data_image0
_cell_length_a       9.812
_cell_length_b       12.679
_cell_length_c       11.111
_cell_angle_alpha    90
_cell_angle_beta     103.92
_cell_angle_gamma    90

_symmetry_space_group_name_H-M    "P 1"
_symmetry_int_tables_number       1

loop_
  _symmetry_equiv_pos_as_xyz
  'x, y, z'

loop_
  _atom_site_label
  _atom_site_occupancy
  _atom_site_fract_x
  _atom_site_fract_y
  _atom_site_fract_z
  _atom_site_thermal_displace_type
  _atom_site_B_iso_or_equiv
  _atom_site_type_symbol
  Cu1      1.0000 0.00000  0.50000  0.00000  Biso   1.000  Cu
  Cu2      1.0000 0.50000  0.00000  0.00000  Biso   1.000  Cu
  Cu3      1.0000 0.00000  0.50000  0.50000  Biso   1.000  Cu
  Cu4      1.0000 0.50000  0.00000  0.50000  Biso   1.000  Cu
  Cl1      1.0000 0.77486  0.43657  0.98100  Biso   1.000  Cl
  Cl2      1.0000 0.27486  0.93657  0.98100  Biso   1.000  Cl
  Cl3      1.0000 0.77486  0.56343  0.48100  Biso   1.000  Cl
  Cl4      1.0000 0.27486  0.06343  0.48100  Biso   1.000  Cl
  Cl5      1.0000 0.22514  0.56343  0.01900  Biso   1.000  Cl
  Cl6      1.0000 0.72514  0.06343  0.01900  Biso   1.000  Cl
  Cl7      1.0000 0.22514  0.43657  0.51900  Biso   1.000  Cl
  Cl8      1.0000 0.72514  0.93657  0.51900  Biso   1.000  Cl
  O1       1.0000 0.00000  0.24190  0.75000  Biso   1.000  O
  O2       1.0000 0.50000  0.74190  0.75000  Biso   1.000  O
  O3       1.0000 0.00000  0.75810  0.25000  Biso   1.000  O
  O4       1.0000 0.50000  0.25810  0.25000  Biso   1.000  O
  N1       1.0000 0.07440  0.35449  0.05900  Biso   1.000  N
  N2       1.0000 0.57440  0.85449  0.05900  Biso   1.000  N
  N3       1.0000 0.07440  0.64551  0.55900  Biso   1.000  N
  N4       1.0000 0.57440  0.14551  0.55900  Biso   1.000  N
  N5       1.0000 0.92560  0.64551  0.94100  Biso   1.000  N
  N6       1.0000 0.42560  0.14551  0.94100  Biso   1.000  N
  N7       1.0000 0.92560  0.35449  0.44100  Biso   1.000  N
  N8       1.0000 0.42560  0.85449  0.44100  Biso   1.000  N
  N9       1.0000 0.01360  0.40712  0.81410  Biso   1.000  N
  N10      1.0000 0.51360  0.90712  0.81410  Biso   1.000  N
  N11      1.0000 0.01360  0.59288  0.31410  Biso   1.000  N
  N12      1.0000 0.51360  0.09288  0.31410  Biso   1.000  N
  N13      1.0000 0.98640  0.59288  0.18590  Biso   1.000  N
  N14      1.0000 0.48640  0.09288  0.18590  Biso   1.000  N
  N15      1.0000 0.98640  0.40712  0.68590  Biso   1.000  N
  N16      1.0000 0.48640  0.90712  0.68590  Biso   1.000  N
  C1       1.0000 0.12460  0.33310  0.17920  Biso   1.000  C
  C2       1.0000 0.62460  0.83310  0.17920  Biso   1.000  C
  C3       1.0000 0.12460  0.66690  0.67920  Biso   1.000  C
  C4       1.0000 0.62460  0.16690  0.67920  Biso   1.000  C
  C5       1.0000 0.87540  0.66690  0.82080  Biso   1.000  C
  C6       1.0000 0.37540  0.16690  0.82080  Biso   1.000  C
  C7       1.0000 0.87540  0.33310  0.32080  Biso   1.000  C
  C8       1.0000 0.37540  0.83310  0.32080  Biso   1.000  C
  H1       1.0000 0.13750  0.38840  0.23590  Biso   1.000  H
  H2       1.0000 0.63750  0.88840  0.23590  Biso   1.000  H
  H3       1.0000 0.13750  0.61160  0.73590  Biso   1.000  H
  H4       1.0000 0.63750  0.11160  0.73590  Biso   1.000  H
  H5       1.0000 0.86250  0.61160  0.76410  Biso   1.000  H
  H6       1.0000 0.36250  0.11160  0.76410  Biso   1.000  H
  H7       1.0000 0.86250  0.38840  0.26410  Biso   1.000  H
  H8       1.0000 0.36250  0.88840  0.26410  Biso   1.000  H
  C9       1.0000 0.15790  0.23180  0.22260  Biso   1.000  C
  C10      1.0000 0.65790  0.73180  0.22260  Biso   1.000  C
  C11      1.0000 0.15790  0.76820  0.72260  Biso   1.000  C
  C12      1.0000 0.65790  0.26820  0.72260  Biso   1.000  C
  C13      1.0000 0.84210  0.76820  0.77740  Biso   1.000  C
  C14      1.0000 0.34210  0.26820  0.77740  Biso   1.000  C
  C15      1.0000 0.84210  0.23180  0.27740  Biso   1.000  C
  C16      1.0000 0.34210  0.73180  0.27740  Biso   1.000  C
  H9       1.0000 0.19270  0.21900  0.30680  Biso   1.000  H
  H10      1.0000 0.69270  0.71900  0.30680  Biso   1.000  H
  H11      1.0000 0.19270  0.78100  0.80680  Biso   1.000  H
  H12      1.0000 0.69270  0.28100  0.80680  Biso   1.000  H
  H13      1.0000 0.80730  0.78100  0.69320  Biso   1.000  H
  H14      1.0000 0.30730  0.28100  0.69320  Biso   1.000  H
  H15      1.0000 0.80730  0.21900  0.19320  Biso   1.000  H
  H16      1.0000 0.30730  0.71900  0.19320  Biso   1.000  H
  C17      1.0000 0.13840  0.15050  0.13840  Biso   1.000  C
  C18      1.0000 0.63840  0.65050  0.13840  Biso   1.000  C
  C19      1.0000 0.13840  0.84950  0.63840  Biso   1.000  C
  C20      1.0000 0.63840  0.34950  0.63840  Biso   1.000  C
  C21      1.0000 0.86160  0.84950  0.86160  Biso   1.000  C
  C22      1.0000 0.36160  0.34950  0.86160  Biso   1.000  C
  C23      1.0000 0.86160  0.15050  0.36160  Biso   1.000  C
  C24      1.0000 0.36160  0.65050  0.36160  Biso   1.000  C
  H17      1.0000 0.15790  0.08160  0.16570  Biso   1.000  H
  H18      1.0000 0.65790  0.58160  0.16570  Biso   1.000  H
  H19      1.0000 0.15790  0.91840  0.66570  Biso   1.000  H
  H20      1.0000 0.65790  0.41840  0.66570  Biso   1.000  H
  H21      1.0000 0.84210  0.91840  0.83430  Biso   1.000  H
  H22      1.0000 0.34210  0.41840  0.83430  Biso   1.000  H
  H23      1.0000 0.84210  0.08160  0.33430  Biso   1.000  H
  H24      1.0000 0.34210  0.58160  0.33430  Biso   1.000  H
  C25      1.0000 0.08990  0.17070  0.01310  Biso   1.000  C
  C26      1.0000 0.58990  0.67070  0.01310  Biso   1.000  C
  C27      1.0000 0.08990  0.82930  0.51310  Biso   1.000  C
  C28      1.0000 0.58990  0.32930  0.51310  Biso   1.000  C
  C29      1.0000 0.91010  0.82930  0.98690  Biso   1.000  C
  C30      1.0000 0.41010  0.32930  0.98690  Biso   1.000  C
  C31      1.0000 0.91010  0.17070  0.48690  Biso   1.000  C
  C32      1.0000 0.41010  0.67070  0.48690  Biso   1.000  C
  H25      1.0000 0.07740  0.11660  0.95490  Biso   1.000  H
  H26      1.0000 0.57740  0.61660  0.95490  Biso   1.000  H
  H27      1.0000 0.07740  0.88340  0.45490  Biso   1.000  H
  H28      1.0000 0.57740  0.38340  0.45490  Biso   1.000  H
  H29      1.0000 0.92260  0.88340  0.04510  Biso   1.000  H
  H30      1.0000 0.42260  0.38340  0.04510  Biso   1.000  H
  H31      1.0000 0.92260  0.11660  0.54510  Biso   1.000  H
  H32      1.0000 0.42260  0.61660  0.54510  Biso   1.000  H
  C33      1.0000 0.06060  0.27480  0.97720  Biso   1.000  C
  C34      1.0000 0.56060  0.77480  0.97720  Biso   1.000  C
  C35      1.0000 0.06060  0.72520  0.47720  Biso   1.000  C
  C36      1.0000 0.56060  0.22520  0.47720  Biso   1.000  C
  C37      1.0000 0.93940  0.72520  0.02280  Biso   1.000  C
  C38      1.0000 0.43940  0.22520  0.02280  Biso   1.000  C
  C39      1.0000 0.93940  0.27480  0.52280  Biso   1.000  C
  C40      1.0000 0.43940  0.77480  0.52280  Biso   1.000  C
  C41      1.0000 0.02220  0.30920  0.84850  Biso   1.000  C
  C42      1.0000 0.52220  0.80920  0.84850  Biso   1.000  C
  C43      1.0000 0.02220  0.69080  0.34850  Biso   1.000  C
  C44      1.0000 0.52220  0.19080  0.34850  Biso   1.000  C
  C45      1.0000 0.97780  0.69080  0.15150  Biso   1.000  C
  C46      1.0000 0.47780  0.19080  0.15150  Biso   1.000  C
  C47      1.0000 0.97780  0.30920  0.65150  Biso   1.000  C
  C48      1.0000 0.47780  0.80920  0.65150  Biso   1.000  C
