data_image0
_cell_length_a       10.07
_cell_length_b       18.832
_cell_length_c       9.425
_cell_angle_alpha    90
_cell_angle_beta     90
_cell_angle_gamma    90

_symmetry_space_group_name_H-M    "P 1"
_symmetry_int_tables_number       1

loop_
  _symmetry_equiv_pos_as_xyz
  'x, y, z'

loop_
  _atom_site_label
  _atom_site_occupancy
  _atom_site_fract_x
  _atom_site_fract_y
  _atom_site_fract_z
  _atom_site_thermal_displace_type
  _atom_site_B_iso_or_equiv
  _atom_site_type_symbol
  Cu1      1.0000 0.49178  0.23571  0.57602  Biso   1.000  Cu
  Cu2      1.0000 0.99178  0.26429  0.42398  Biso   1.000  Cu
  Cu3      1.0000 0.50822  0.73571  0.92398  Biso   1.000  Cu
  Cu4      1.0000 0.00822  0.76429  0.07602  Biso   1.000  Cu
  O1       1.0000 0.90960  0.21380  0.57980  Biso   1.000  O
  O2       1.0000 0.40960  0.28620  0.42020  Biso   1.000  O
  O3       1.0000 0.09040  0.71380  0.92020  Biso   1.000  O
  O4       1.0000 0.59040  0.78620  0.07980  Biso   1.000  O
  O5       1.0000 0.70600  0.22230  0.48530  Biso   1.000  O
  O6       1.0000 0.20600  0.27770  0.51470  Biso   1.000  O
  O7       1.0000 0.29400  0.72230  0.01470  Biso   1.000  O
  O8       1.0000 0.79400  0.77770  0.98530  Biso   1.000  O
  O9       1.0000 0.57110  0.32540  0.65060  Biso   1.000  O
  O10      1.0000 0.07110  0.17460  0.34940  Biso   1.000  O
  O11      1.0000 0.42890  0.82540  0.84940  Biso   1.000  O
  O12      1.0000 0.92890  0.67460  0.15060  Biso   1.000  O
  O13      1.0000 0.51810  0.43400  0.72490  Biso   1.000  O
  O14      1.0000 0.01810  0.06600  0.27510  Biso   1.000  O
  O15      1.0000 0.48190  0.93400  0.77510  Biso   1.000  O
  O16      1.0000 0.98190  0.56600  0.22490  Biso   1.000  O
  O17      1.0000 0.40450  0.14740  0.50770  Biso   1.000  O
  O18      1.0000 0.90450  0.35260  0.49230  Biso   1.000  O
  O19      1.0000 0.59550  0.64740  0.99230  Biso   1.000  O
  O20      1.0000 0.09550  0.85260  0.00770  Biso   1.000  O
  O21      1.0000 0.17620  0.12840  0.93330  Biso   1.000  O
  O22      1.0000 0.67620  0.37160  0.06670  Biso   1.000  O
  O23      1.0000 0.82380  0.62840  0.56670  Biso   1.000  O
  O24      1.0000 0.32380  0.87160  0.43330  Biso   1.000  O
  N1       1.0000 0.58610  0.16540  0.71460  Biso   1.000  N
  N2       1.0000 0.08610  0.33460  0.28540  Biso   1.000  N
  N3       1.0000 0.41390  0.66540  0.78540  Biso   1.000  N
  N4       1.0000 0.91390  0.83460  0.21460  Biso   1.000  N
  N5       1.0000 0.36670  0.26300  0.79660  Biso   1.000  N
  N6       1.0000 0.86670  0.23700  0.20340  Biso   1.000  N
  N7       1.0000 0.63330  0.76300  0.70340  Biso   1.000  N
  N8       1.0000 0.13330  0.73700  0.29660  Biso   1.000  N
  N9       1.0000 0.36440  0.03740  0.59410  Biso   1.000  N
  N10      1.0000 0.86440  0.46260  0.40590  Biso   1.000  N
  N11      1.0000 0.63560  0.53740  0.90590  Biso   1.000  N
  N12      1.0000 0.13560  0.96260  0.09410  Biso   1.000  N
  N13      1.0000 0.17670  0.14290  0.69530  Biso   1.000  N
  N14      1.0000 0.67670  0.35710  0.30470  Biso   1.000  N
  N15      1.0000 0.82330  0.64290  0.80470  Biso   1.000  N
  N16      1.0000 0.32330  0.85710  0.19530  Biso   1.000  N
  C1       1.0000 0.51830  0.16300  0.85490  Biso   1.000  C
  C2       1.0000 0.01830  0.33700  0.14510  Biso   1.000  C
  C3       1.0000 0.48170  0.66300  0.64510  Biso   1.000  C
  C4       1.0000 0.98170  0.83700  0.35490  Biso   1.000  C
  C5       1.0000 0.46620  0.23580  0.89790  Biso   1.000  C
  C6       1.0000 0.96620  0.26420  0.10210  Biso   1.000  C
  C7       1.0000 0.53380  0.73580  0.60210  Biso   1.000  C
  C8       1.0000 0.03380  0.76420  0.39790  Biso   1.000  C
  C9       1.0000 0.72820  0.18640  0.72780  Biso   1.000  C
  C10      1.0000 0.22820  0.31360  0.27220  Biso   1.000  C
  C11      1.0000 0.27180  0.68640  0.77220  Biso   1.000  C
  C12      1.0000 0.77180  0.81360  0.22780  Biso   1.000  C
  C13      1.0000 0.78310  0.20890  0.58340  Biso   1.000  C
  C14      1.0000 0.28310  0.29110  0.41660  Biso   1.000  C
  C15      1.0000 0.21690  0.70890  0.91660  Biso   1.000  C
  C16      1.0000 0.71690  0.79110  0.08340  Biso   1.000  C
  C17      1.0000 0.37290  0.34150  0.78920  Biso   1.000  C
  C18      1.0000 0.87290  0.15850  0.21080  Biso   1.000  C
  C19      1.0000 0.62710  0.84150  0.71080  Biso   1.000  C
  C20      1.0000 0.12710  0.65850  0.28920  Biso   1.000  C
  C21      1.0000 0.49720  0.36880  0.71770  Biso   1.000  C
  C22      1.0000 0.99720  0.13120  0.28230  Biso   1.000  C
  C23      1.0000 0.50280  0.86880  0.78230  Biso   1.000  C
  C24      1.0000 0.00280  0.63120  0.21770  Biso   1.000  C
  C25      1.0000 0.57670  0.09520  0.64310  Biso   1.000  C
  C26      1.0000 0.07670  0.40480  0.35690  Biso   1.000  C
  C27      1.0000 0.42330  0.59520  0.85690  Biso   1.000  C
  C28      1.0000 0.92330  0.90480  0.14310  Biso   1.000  C
  C29      1.0000 0.44020  0.09330  0.57520  Biso   1.000  C
  C30      1.0000 0.94020  0.40670  0.42480  Biso   1.000  C
  C31      1.0000 0.55980  0.59330  0.92480  Biso   1.000  C
  C32      1.0000 0.05980  0.90670  0.07520  Biso   1.000  C
  C33      1.0000 0.22870  0.24440  0.84070  Biso   1.000  C
  C34      1.0000 0.72870  0.25560  0.15930  Biso   1.000  C
  C35      1.0000 0.77130  0.74440  0.65930  Biso   1.000  C
  C36      1.0000 0.27130  0.75560  0.34070  Biso   1.000  C
  C37      1.0000 0.19250  0.16560  0.82510  Biso   1.000  C
  C38      1.0000 0.69250  0.33440  0.17490  Biso   1.000  C
  C39      1.0000 0.80750  0.66560  0.67490  Biso   1.000  C
  C40      1.0000 0.30750  0.83440  0.32510  Biso   1.000  C
  C41      1.0000 0.22570  0.03790  0.54510  Biso   1.000  C
  C42      1.0000 0.72570  0.46210  0.45490  Biso   1.000  C
  C43      1.0000 0.77430  0.53790  0.95490  Biso   1.000  C
  C44      1.0000 0.27430  0.96210  0.04510  Biso   1.000  C
  C45      1.0000 0.13790  0.06990  0.65960  Biso   1.000  C
  C46      1.0000 0.63790  0.43010  0.34040  Biso   1.000  C
  C47      1.0000 0.86210  0.56990  0.84040  Biso   1.000  C
  C48      1.0000 0.36210  0.93010  0.15960  Biso   1.000  C
  O25      1.0000 0.67320  0.63590  0.31210  Biso   1.000  O
  O26      1.0000 0.17320  0.86410  0.68790  Biso   1.000  O
  O27      1.0000 0.32680  0.13590  0.18790  Biso   1.000  O
  O28      1.0000 0.82680  0.36410  0.81210  Biso   1.000  O
  O29      1.0000 0.34570  0.50260  0.51390  Biso   1.000  O
  O30      1.0000 0.84570  0.99740  0.48610  Biso   1.000  O
  O31      1.0000 0.65430  0.00260  0.98610  Biso   1.000  O
  O32      1.0000 0.15430  0.49740  0.01390  Biso   1.000  O
  O33      1.0000 0.59910  0.95560  0.40530  Biso   1.000  O
  O34      1.0000 0.09910  0.54440  0.59470  Biso   1.000  O
  O35      1.0000 0.40090  0.45560  0.09470  Biso   1.000  O
  O36      1.0000 0.90090  0.04440  0.90530  Biso   1.000  O
  O37      1.0000 0.57580  0.06840  0.23180  Biso   1.000  O
  O38      1.0000 0.07580  0.43160  0.76820  Biso   1.000  O
  O39      1.0000 0.42420  0.56840  0.26820  Biso   1.000  O
  O40      1.0000 0.92420  0.93160  0.73180  Biso   1.000  O
  H1       1.0000 0.58000  0.14700  0.92400  Biso   1.000  H
  H2       1.0000 0.08000  0.35300  0.07600  Biso   1.000  H
  H3       1.0000 0.42000  0.64700  0.57600  Biso   1.000  H
  H4       1.0000 0.92000  0.85300  0.42400  Biso   1.000  H
  H5       1.0000 0.44600  0.13100  0.85000  Biso   1.000  H
  H6       1.0000 0.94600  0.36900  0.15000  Biso   1.000  H
  H7       1.0000 0.55400  0.63100  0.65000  Biso   1.000  H
  H8       1.0000 0.05400  0.86900  0.35000  Biso   1.000  H
  H9       1.0000 0.42600  0.23200  0.98900  Biso   1.000  H
  H10      1.0000 0.92600  0.26800  0.01100  Biso   1.000  H
  H11      1.0000 0.57400  0.73200  0.51100  Biso   1.000  H
  H12      1.0000 0.07400  0.76800  0.48900  Biso   1.000  H
  H13      1.0000 0.53800  0.26800  0.90200  Biso   1.000  H
  H14      1.0000 0.03800  0.23200  0.09800  Biso   1.000  H
  H15      1.0000 0.46200  0.76800  0.59800  Biso   1.000  H
  H16      1.0000 0.96200  0.73200  0.40200  Biso   1.000  H
  H17      1.0000 0.77800  0.14700  0.76300  Biso   1.000  H
  H18      1.0000 0.27800  0.35300  0.23700  Biso   1.000  H
  H19      1.0000 0.22200  0.64700  0.73700  Biso   1.000  H
  H20      1.0000 0.72200  0.85300  0.26300  Biso   1.000  H
  H21      1.0000 0.73500  0.22500  0.79200  Biso   1.000  H
  H22      1.0000 0.23500  0.27500  0.20800  Biso   1.000  H
  H23      1.0000 0.26500  0.72500  0.70800  Biso   1.000  H
  H24      1.0000 0.76500  0.77500  0.29200  Biso   1.000  H
  H25      1.0000 0.37000  0.36000  0.88300  Biso   1.000  H
  H26      1.0000 0.87000  0.14000  0.11700  Biso   1.000  H
  H27      1.0000 0.63000  0.86000  0.61700  Biso   1.000  H
  H28      1.0000 0.13000  0.64000  0.38300  Biso   1.000  H
  H29      1.0000 0.29800  0.35800  0.73800  Biso   1.000  H
  H30      1.0000 0.79800  0.14200  0.26200  Biso   1.000  H
  H31      1.0000 0.70200  0.85800  0.76200  Biso   1.000  H
  H32      1.0000 0.20200  0.64200  0.23800  Biso   1.000  H
  H33      1.0000 0.58600  0.05800  0.71000  Biso   1.000  H
  H34      1.0000 0.08600  0.44200  0.29000  Biso   1.000  H
  H35      1.0000 0.41400  0.55800  0.79000  Biso   1.000  H
  H36      1.0000 0.91400  0.94200  0.21000  Biso   1.000  H
  H37      1.0000 0.64400  0.09100  0.57300  Biso   1.000  H
  H38      1.0000 0.14400  0.40900  0.42700  Biso   1.000  H
  H39      1.0000 0.35600  0.59100  0.92700  Biso   1.000  H
  H40      1.0000 0.85600  0.90900  0.07300  Biso   1.000  H
  H41      1.0000 0.16900  0.27100  0.78400  Biso   1.000  H
  H42      1.0000 0.66900  0.22900  0.21600  Biso   1.000  H
  H43      1.0000 0.83100  0.77100  0.71600  Biso   1.000  H
  H44      1.0000 0.33100  0.72900  0.28400  Biso   1.000  H
  H45      1.0000 0.21800  0.25700  0.93800  Biso   1.000  H
  H46      1.0000 0.71800  0.24300  0.06200  Biso   1.000  H
  H47      1.0000 0.78200  0.75700  0.56200  Biso   1.000  H
  H48      1.0000 0.28200  0.74300  0.43800  Biso   1.000  H
  H49      1.0000 0.19700  0.99100  0.52600  Biso   1.000  H
  H50      1.0000 0.69700  0.50900  0.47400  Biso   1.000  H
  H51      1.0000 0.80300  0.49100  0.97400  Biso   1.000  H
  H52      1.0000 0.30300  0.00900  0.02600  Biso   1.000  H
  H53      1.0000 0.21900  0.06600  0.46100  Biso   1.000  H
  H54      1.0000 0.71900  0.43400  0.53900  Biso   1.000  H
  H55      1.0000 0.78100  0.56600  0.03900  Biso   1.000  H
  H56      1.0000 0.28100  0.93400  0.96100  Biso   1.000  H
  H57      1.0000 0.04900  0.07000  0.62700  Biso   1.000  H
  H58      1.0000 0.54900  0.43000  0.37300  Biso   1.000  H
  H59      1.0000 0.95100  0.57000  0.87300  Biso   1.000  H
  H60      1.0000 0.45100  0.93000  0.12700  Biso   1.000  H
  H61      1.0000 0.14400  0.04200  0.74300  Biso   1.000  H
  H62      1.0000 0.64400  0.45800  0.25700  Biso   1.000  H
  H63      1.0000 0.85600  0.54200  0.75700  Biso   1.000  H
  H64      1.0000 0.35600  0.95800  0.24300  Biso   1.000  H
  H65      1.0000 0.40000  0.99600  0.63800  Biso   1.000  H
  H66      1.0000 0.90000  0.50400  0.36200  Biso   1.000  H
  H67      1.0000 0.60000  0.49600  0.86200  Biso   1.000  H
  H68      1.0000 0.10000  0.00400  0.13800  Biso   1.000  H
  H69      1.0000 0.19100  0.17500  0.62000  Biso   1.000  H
  H70      1.0000 0.69100  0.32500  0.38000  Biso   1.000  H
  H71      1.0000 0.80900  0.67500  0.88000  Biso   1.000  H
  H72      1.0000 0.30900  0.82500  0.12000  Biso   1.000  H
  H73      1.0000 0.58400  0.63200  0.30300  Biso   1.000  H
  H74      1.0000 0.08400  0.86800  0.69700  Biso   1.000  H
  H75      1.0000 0.41600  0.13200  0.19700  Biso   1.000  H
  H76      1.0000 0.91600  0.36800  0.80300  Biso   1.000  H
  H77      1.0000 0.70100  0.64700  0.40500  Biso   1.000  H
  H78      1.0000 0.20100  0.85300  0.59500  Biso   1.000  H
  H79      1.0000 0.29900  0.14700  0.09500  Biso   1.000  H
  H80      1.0000 0.79900  0.35300  0.90500  Biso   1.000  H
  H81      1.0000 0.28200  0.50100  0.58000  Biso   1.000  H
  H82      1.0000 0.78200  0.99900  0.42000  Biso   1.000  H
  H83      1.0000 0.71800  0.00100  0.92000  Biso   1.000  H
  H84      1.0000 0.21800  0.49900  0.08000  Biso   1.000  H
  H85      1.0000 0.32600  0.47000  0.44000  Biso   1.000  H
  H86      1.0000 0.82600  0.03000  0.56000  Biso   1.000  H
  H87      1.0000 0.67400  0.97000  0.06000  Biso   1.000  H
  H88      1.0000 0.17400  0.53000  0.94000  Biso   1.000  H
  H89      1.0000 0.64200  0.05000  0.16800  Biso   1.000  H
  H90      1.0000 0.14200  0.45000  0.83200  Biso   1.000  H
  H91      1.0000 0.35800  0.55000  0.33200  Biso   1.000  H
  H92      1.0000 0.85800  0.95000  0.66800  Biso   1.000  H
  H93      1.0000 0.54500  0.03100  0.29000  Biso   1.000  H
  H94      1.0000 0.04500  0.46900  0.71000  Biso   1.000  H
  H95      1.0000 0.45500  0.53100  0.21000  Biso   1.000  H
  H96      1.0000 0.95500  0.96900  0.79000  Biso   1.000  H
