data_image0
_cell_length_a       14.4066
_cell_length_b       5.6353
_cell_length_c       9.9895
_cell_angle_alpha    90
_cell_angle_beta     100.569
_cell_angle_gamma    90

_symmetry_space_group_name_H-M    "P 1"
_symmetry_int_tables_number       1

loop_
  _symmetry_equiv_pos_as_xyz
  'x, y, z'

loop_
  _atom_site_label
  _atom_site_occupancy
  _atom_site_fract_x
  _atom_site_fract_y
  _atom_site_fract_z
  _atom_site_thermal_displace_type
  _atom_site_B_iso_or_equiv
  _atom_site_type_symbol
  Cu1      1.0000 0.63538  0.86561  0.85697  Biso   1.000  Cu
  Cu2      1.0000 0.63538  0.13439  0.35697  Biso   1.000  Cu
  Cu3      1.0000 0.13538  0.36561  0.85697  Biso   1.000  Cu
  Cu4      1.0000 0.13538  0.63439  0.35697  Biso   1.000  Cu
  O1       1.0000 0.50200  0.78090  0.81580  Biso   1.000  O
  O2       1.0000 0.50200  0.21910  0.31580  Biso   1.000  O
  O3       1.0000 0.00200  0.28090  0.81580  Biso   1.000  O
  O4       1.0000 0.00200  0.71910  0.31580  Biso   1.000  O
  O5       1.0000 0.37640  0.57050  0.72410  Biso   1.000  O
  O6       1.0000 0.37640  0.42950  0.22410  Biso   1.000  O
  O7       1.0000 0.87640  0.07050  0.72410  Biso   1.000  O
  O8       1.0000 0.87640  0.92950  0.22410  Biso   1.000  O
  O9       1.0000 0.63580  0.99510  0.63950  Biso   1.000  O
  O10      1.0000 0.63580  0.00490  0.13950  Biso   1.000  O
  O11      1.0000 0.13580  0.49510  0.63950  Biso   1.000  O
  O12      1.0000 0.13580  0.50490  0.13950  Biso   1.000  O
  O13      1.0000 0.61040  0.82660  0.43480  Biso   1.000  O
  O14      1.0000 0.61040  0.17340  0.93480  Biso   1.000  O
  O15      1.0000 0.11040  0.32660  0.43480  Biso   1.000  O
  O16      1.0000 0.11040  0.67340  0.93480  Biso   1.000  O
  N1       1.0000 0.66800  0.56660  0.76480  Biso   1.000  N
  N2       1.0000 0.66800  0.43340  0.26480  Biso   1.000  N
  N3       1.0000 0.16800  0.06660  0.76480  Biso   1.000  N
  N4       1.0000 0.16800  0.93340  0.26480  Biso   1.000  N
  H1       1.0000 0.65050  0.43850  0.80980  Biso   1.000  H
  H2       1.0000 0.65050  0.56150  0.30980  Biso   1.000  H
  H3       1.0000 0.15050  0.93850  0.80980  Biso   1.000  H
  H4       1.0000 0.15050  0.06150  0.30980  Biso   1.000  H
  N5       1.0000 0.77550  0.88280  0.92980  Biso   1.000  N
  N6       1.0000 0.77550  0.11720  0.42980  Biso   1.000  N
  N7       1.0000 0.27550  0.38280  0.92980  Biso   1.000  N
  N8       1.0000 0.27550  0.61720  0.42980  Biso   1.000  N
  H5       1.0000 0.80200  0.99650  0.88580  Biso   1.000  H
  H6       1.0000 0.80200  0.00350  0.38580  Biso   1.000  H
  H7       1.0000 0.30200  0.49650  0.88580  Biso   1.000  H
  H8       1.0000 0.30200  0.50350  0.38580  Biso   1.000  H
  H9       1.0000 0.78610  0.91840  0.01910  Biso   1.000  H
  H10      1.0000 0.78610  0.08160  0.51910  Biso   1.000  H
  H11      1.0000 0.28610  0.41840  0.01910  Biso   1.000  H
  H12      1.0000 0.28610  0.58160  0.51910  Biso   1.000  H
  C1       1.0000 0.45950  0.62940  0.73060  Biso   1.000  C
  C2       1.0000 0.45950  0.37060  0.23060  Biso   1.000  C
  C3       1.0000 0.95950  0.12940  0.73060  Biso   1.000  C
  C4       1.0000 0.95950  0.87060  0.23060  Biso   1.000  C
  C5       1.0000 0.51070  0.50090  0.63000  Biso   1.000  C
  C6       1.0000 0.51070  0.49910  0.13000  Biso   1.000  C
  C7       1.0000 0.01070  0.00090  0.63000  Biso   1.000  C
  C8       1.0000 0.01070  0.99910  0.13000  Biso   1.000  C
  H13      1.0000 0.51010  0.33240  0.64970  Biso   1.000  H
  H14      1.0000 0.51010  0.66760  0.14970  Biso   1.000  H
  H15      1.0000 0.01010  0.83240  0.64970  Biso   1.000  H
  H16      1.0000 0.01010  0.16760  0.14970  Biso   1.000  H
  H17      1.0000 0.47400  0.52340  0.53920  Biso   1.000  H
  H18      1.0000 0.47400  0.47660  0.03920  Biso   1.000  H
  H19      1.0000 0.97400  0.02340  0.53920  Biso   1.000  H
  H20      1.0000 0.97400  0.97660  0.03920  Biso   1.000  H
  C9       1.0000 0.61230  0.57190  0.62660  Biso   1.000  C
  C10      1.0000 0.61230  0.42810  0.12660  Biso   1.000  C
  C11      1.0000 0.11230  0.07190  0.62660  Biso   1.000  C
  C12      1.0000 0.11230  0.92810  0.12660  Biso   1.000  C
  H21      1.0000 0.63900  0.45580  0.57120  Biso   1.000  H
  H22      1.0000 0.63900  0.54420  0.07120  Biso   1.000  H
  H23      1.0000 0.13900  0.95580  0.57120  Biso   1.000  H
  H24      1.0000 0.13900  0.04420  0.07120  Biso   1.000  H
  C13      1.0000 0.62000  0.82030  0.56460  Biso   1.000  C
  C14      1.0000 0.62000  0.17970  0.06460  Biso   1.000  C
  C15      1.0000 0.12000  0.32030  0.56460  Biso   1.000  C
  C16      1.0000 0.12000  0.67970  0.06460  Biso   1.000  C
  C17      1.0000 0.77010  0.56060  0.77100  Biso   1.000  C
  C18      1.0000 0.77010  0.43940  0.27100  Biso   1.000  C
  C19      1.0000 0.27010  0.06060  0.77100  Biso   1.000  C
  C20      1.0000 0.27010  0.93940  0.27100  Biso   1.000  C
  H25      1.0000 0.78710  0.66040  0.70020  Biso   1.000  H
  H26      1.0000 0.78710  0.33960  0.20020  Biso   1.000  H
  H27      1.0000 0.28710  0.16040  0.70020  Biso   1.000  H
  H28      1.0000 0.28710  0.83960  0.20020  Biso   1.000  H
  H29      1.0000 0.79040  0.39970  0.75720  Biso   1.000  H
  H30      1.0000 0.79040  0.60030  0.25720  Biso   1.000  H
  H31      1.0000 0.29040  0.89970  0.75720  Biso   1.000  H
  H32      1.0000 0.29040  0.10030  0.25720  Biso   1.000  H
  C21      1.0000 0.81740  0.64890  0.90830  Biso   1.000  C
  C22      1.0000 0.81740  0.35110  0.40830  Biso   1.000  C
  C23      1.0000 0.31740  0.14890  0.90830  Biso   1.000  C
  C24      1.0000 0.31740  0.85110  0.40830  Biso   1.000  C
  H33      1.0000 0.80710  0.53850  0.97870  Biso   1.000  H
  H34      1.0000 0.80710  0.46150  0.47870  Biso   1.000  H
  H35      1.0000 0.30710  0.03850  0.97870  Biso   1.000  H
  H36      1.0000 0.30710  0.96150  0.47870  Biso   1.000  H
  H37      1.0000 0.88480  0.66450  0.91170  Biso   1.000  H
  H38      1.0000 0.88480  0.33550  0.41170  Biso   1.000  H
  H39      1.0000 0.38480  0.16450  0.91170  Biso   1.000  H
  H40      1.0000 0.38480  0.83550  0.41170  Biso   1.000  H
