data_image0
_cell_length_a       15.2295
_cell_length_b       17.7561
_cell_length_c       10.2552
_cell_angle_alpha    90
_cell_angle_beta     108.815
_cell_angle_gamma    90

_symmetry_space_group_name_H-M    "P 1"
_symmetry_int_tables_number       1

loop_
  _symmetry_equiv_pos_as_xyz
  'x, y, z'

loop_
  _atom_site_label
  _atom_site_occupancy
  _atom_site_fract_x
  _atom_site_fract_y
  _atom_site_fract_z
  _atom_site_thermal_displace_type
  _atom_site_B_iso_or_equiv
  _atom_site_type_symbol
  Cu1      1.0000 0.50762  0.14956  0.40827  Biso   1.000  Cu
  Cu2      1.0000 0.49238  0.64956  0.09173  Biso   1.000  Cu
  Cu3      1.0000 0.49238  0.85044  0.59173  Biso   1.000  Cu
  Cu4      1.0000 0.50762  0.35044  0.90827  Biso   1.000  Cu
  Cl1      1.0000 0.14012  0.21426  0.56850  Biso   1.000  Cl
  Cl2      1.0000 0.85988  0.71426  0.93150  Biso   1.000  Cl
  Cl3      1.0000 0.85988  0.78574  0.43150  Biso   1.000  Cl
  Cl4      1.0000 0.14012  0.28574  0.06850  Biso   1.000  Cl
  O1       1.0000 0.25450  0.09262  0.54250  Biso   1.000  O
  O2       1.0000 0.74550  0.59262  0.95750  Biso   1.000  O
  O3       1.0000 0.74550  0.90738  0.45750  Biso   1.000  O
  O4       1.0000 0.25450  0.40738  0.04250  Biso   1.000  O
  O5       1.0000 0.39221  0.10439  0.41130  Biso   1.000  O
  O6       1.0000 0.60779  0.60439  0.08870  Biso   1.000  O
  O7       1.0000 0.60779  0.89561  0.58870  Biso   1.000  O
  O8       1.0000 0.39221  0.39561  0.91130  Biso   1.000  O
  O9       1.0000 0.62778  0.18202  0.41620  Biso   1.000  O
  O10      1.0000 0.37222  0.68202  0.08380  Biso   1.000  O
  O11      1.0000 0.37222  0.81798  0.58380  Biso   1.000  O
  O12      1.0000 0.62778  0.31798  0.91620  Biso   1.000  O
  N1       1.0000 0.48290  0.06802  0.63020  Biso   1.000  N
  N2       1.0000 0.51710  0.56802  0.86980  Biso   1.000  N
  N3       1.0000 0.51710  0.93198  0.36980  Biso   1.000  N
  N4       1.0000 0.48290  0.43198  0.13020  Biso   1.000  N
  N5       1.0000 0.55200  0.10428  0.58990  Biso   1.000  N
  N6       1.0000 0.44800  0.60428  0.91010  Biso   1.000  N
  N7       1.0000 0.44800  0.89572  0.41010  Biso   1.000  N
  N8       1.0000 0.55200  0.39572  0.08990  Biso   1.000  N
  N9       1.0000 0.46550  0.15654  0.19560  Biso   1.000  N
  N10      1.0000 0.53450  0.65654  0.30440  Biso   1.000  N
  N11      1.0000 0.53450  0.84346  0.80440  Biso   1.000  N
  N12      1.0000 0.46550  0.34346  0.69560  Biso   1.000  N
  N13      1.0000 0.34220  0.13790  0.97600  Biso   1.000  N
  N14      1.0000 0.65780  0.63790  0.52400  Biso   1.000  N
  N15      1.0000 0.65780  0.86210  0.02400  Biso   1.000  N
  N16      1.0000 0.34220  0.36210  0.47600  Biso   1.000  N
  N17      1.0000 0.49780  0.09235  0.00450  Biso   1.000  N
  N18      1.0000 0.50220  0.59235  0.49550  Biso   1.000  N
  N19      1.0000 0.50220  0.90765  0.99550  Biso   1.000  N
  N20      1.0000 0.49780  0.40765  0.50450  Biso   1.000  N
  N21      1.0000 0.46690  0.22717  0.98870  Biso   1.000  N
  N22      1.0000 0.53310  0.72717  0.51130  Biso   1.000  N
  N23      1.0000 0.53310  0.77283  0.01130  Biso   1.000  N
  N24      1.0000 0.46690  0.27283  0.48870  Biso   1.000  N
  C1       1.0000 0.18610  0.10540  0.42250  Biso   1.000  C
  C2       1.0000 0.81390  0.60540  0.07750  Biso   1.000  C
  C3       1.0000 0.81390  0.89460  0.57750  Biso   1.000  C
  C4       1.0000 0.18610  0.39460  0.92250  Biso   1.000  C
  C5       1.0000 0.12420  0.15960  0.41640  Biso   1.000  C
  C6       1.0000 0.87580  0.65960  0.08360  Biso   1.000  C
  C7       1.0000 0.87580  0.84040  0.58360  Biso   1.000  C
  C8       1.0000 0.12420  0.34040  0.91640  Biso   1.000  C
  C9       1.0000 0.05050  0.17500  0.30790  Biso   1.000  C
  C10      1.0000 0.94950  0.67500  0.19210  Biso   1.000  C
  C11      1.0000 0.94950  0.82500  0.69210  Biso   1.000  C
  C12      1.0000 0.05050  0.32500  0.80790  Biso   1.000  C
  H1       1.0000 0.00970  0.21360  0.31000  Biso   1.000  H
  H2       1.0000 0.99030  0.71360  0.19000  Biso   1.000  H
  H3       1.0000 0.99030  0.78640  0.69000  Biso   1.000  H
  H4       1.0000 0.00970  0.28640  0.81000  Biso   1.000  H
  C13      1.0000 0.03710  0.13030  0.18960  Biso   1.000  C
  C14      1.0000 0.96290  0.63030  0.31040  Biso   1.000  C
  C15      1.0000 0.96290  0.86970  0.81040  Biso   1.000  C
  C16      1.0000 0.03710  0.36970  0.68960  Biso   1.000  C
  H5       1.0000 0.98360  0.13520  0.11390  Biso   1.000  H
  H6       1.0000 0.01640  0.63520  0.38610  Biso   1.000  H
  H7       1.0000 0.01640  0.86480  0.88610  Biso   1.000  H
  H8       1.0000 0.98360  0.36480  0.61390  Biso   1.000  H
  C17      1.0000 0.10140  0.08180  0.18870  Biso   1.000  C
  C18      1.0000 0.89860  0.58180  0.31130  Biso   1.000  C
  C19      1.0000 0.89860  0.91820  0.81130  Biso   1.000  C
  C20      1.0000 0.10140  0.41820  0.68870  Biso   1.000  C
  H9       1.0000 0.09700  0.05780  0.10620  Biso   1.000  H
  H10      1.0000 0.90300  0.55780  0.39380  Biso   1.000  H
  H11      1.0000 0.90300  0.94220  0.89380  Biso   1.000  H
  H12      1.0000 0.09700  0.44220  0.60620  Biso   1.000  H
  C21      1.0000 0.17310  0.06500  0.30020  Biso   1.000  C
  C22      1.0000 0.82690  0.56500  0.19980  Biso   1.000  C
  C23      1.0000 0.82690  0.93500  0.69980  Biso   1.000  C
  C24      1.0000 0.17310  0.43500  0.80020  Biso   1.000  C
  H13      1.0000 0.21400  0.02680  0.29680  Biso   1.000  H
  H14      1.0000 0.78600  0.52680  0.20320  Biso   1.000  H
  H15      1.0000 0.78600  0.97320  0.70320  Biso   1.000  H
  H16      1.0000 0.21400  0.47320  0.79680  Biso   1.000  H
  C25      1.0000 0.32190  0.03410  0.55170  Biso   1.000  C
  C26      1.0000 0.67810  0.53410  0.94830  Biso   1.000  C
  C27      1.0000 0.67810  0.96590  0.44830  Biso   1.000  C
  C28      1.0000 0.32190  0.46590  0.05170  Biso   1.000  C
  C29      1.0000 0.40500  0.07155  0.52740  Biso   1.000  C
  C30      1.0000 0.59500  0.57155  0.97260  Biso   1.000  C
  C31      1.0000 0.59500  0.92845  0.47260  Biso   1.000  C
  C32      1.0000 0.40500  0.42845  0.02740  Biso   1.000  C
  C33      1.0000 0.63370  0.10670  0.67670  Biso   1.000  C
  C34      1.0000 0.36630  0.60670  0.82330  Biso   1.000  C
  C35      1.0000 0.36630  0.89330  0.32330  Biso   1.000  C
  C36      1.0000 0.63370  0.39330  0.17670  Biso   1.000  C
  H17      1.0000 0.64380  0.08460  0.76260  Biso   1.000  H
  H18      1.0000 0.35620  0.58460  0.73740  Biso   1.000  H
  H19      1.0000 0.35620  0.91540  0.23740  Biso   1.000  H
  H20      1.0000 0.64380  0.41540  0.26260  Biso   1.000  H
  C37      1.0000 0.71080  0.14160  0.64900  Biso   1.000  C
  C38      1.0000 0.28920  0.64160  0.85100  Biso   1.000  C
  C39      1.0000 0.28920  0.85840  0.35100  Biso   1.000  C
  C40      1.0000 0.71080  0.35840  0.14900  Biso   1.000  C
  C41      1.0000 0.70410  0.17620  0.52070  Biso   1.000  C
  C42      1.0000 0.29590  0.67620  0.97930  Biso   1.000  C
  C43      1.0000 0.29590  0.82380  0.47930  Biso   1.000  C
  C44      1.0000 0.70410  0.32380  0.02070  Biso   1.000  C
  C45      1.0000 0.78650  0.20450  0.50660  Biso   1.000  C
  C46      1.0000 0.21350  0.70450  0.99340  Biso   1.000  C
  C47      1.0000 0.21350  0.79550  0.49340  Biso   1.000  C
  C48      1.0000 0.78650  0.29550  0.00660  Biso   1.000  C
  H21      1.0000 0.78400  0.22820  0.42460  Biso   1.000  H
  H22      1.0000 0.21600  0.72820  0.07540  Biso   1.000  H
  H23      1.0000 0.21600  0.77180  0.57540  Biso   1.000  H
  H24      1.0000 0.78400  0.27180  0.92460  Biso   1.000  H
  C49      1.0000 0.86930  0.19890  0.60720  Biso   1.000  C
  C50      1.0000 0.13070  0.69890  0.89280  Biso   1.000  C
  C51      1.0000 0.13070  0.80110  0.39280  Biso   1.000  C
  C52      1.0000 0.86930  0.30110  0.10720  Biso   1.000  C
  H25      1.0000 0.92240  0.21770  0.59260  Biso   1.000  H
  H26      1.0000 0.07760  0.71770  0.90740  Biso   1.000  H
  H27      1.0000 0.07760  0.78230  0.40740  Biso   1.000  H
  H28      1.0000 0.92240  0.28230  0.09260  Biso   1.000  H
  C53      1.0000 0.87590  0.16510  0.73290  Biso   1.000  C
  C54      1.0000 0.12410  0.66510  0.76710  Biso   1.000  C
  C55      1.0000 0.12410  0.83490  0.26710  Biso   1.000  C
  C56      1.0000 0.87590  0.33490  0.23290  Biso   1.000  C
  H29      1.0000 0.93300  0.16130  0.80200  Biso   1.000  H
  H30      1.0000 0.06700  0.66130  0.69800  Biso   1.000  H
  H31      1.0000 0.06700  0.83870  0.19800  Biso   1.000  H
  H32      1.0000 0.93300  0.33870  0.30200  Biso   1.000  H
  C57      1.0000 0.79810  0.13780  0.75340  Biso   1.000  C
  C58      1.0000 0.20190  0.63780  0.74660  Biso   1.000  C
  C59      1.0000 0.20190  0.86220  0.24660  Biso   1.000  C
  C60      1.0000 0.79810  0.36220  0.25340  Biso   1.000  C
  H33      1.0000 0.80230  0.11610  0.83770  Biso   1.000  H
  H34      1.0000 0.19770  0.61610  0.66230  Biso   1.000  H
  H35      1.0000 0.19770  0.88390  0.16230  Biso   1.000  H
  H36      1.0000 0.80230  0.38390  0.33770  Biso   1.000  H
  C61      1.0000 0.36370  0.14120  0.12540  Biso   1.000  C
  C62      1.0000 0.63630  0.64120  0.37460  Biso   1.000  C
  C63      1.0000 0.63630  0.85880  0.87460  Biso   1.000  C
  C64      1.0000 0.36370  0.35880  0.62540  Biso   1.000  C
  H37      1.0000 0.34720  0.09380  0.15830  Biso   1.000  H
  H38      1.0000 0.65280  0.59380  0.34170  Biso   1.000  H
  H39      1.0000 0.65280  0.90620  0.84170  Biso   1.000  H
  H40      1.0000 0.34720  0.40620  0.65830  Biso   1.000  H
  H41      1.0000 0.32730  0.18070  0.14860  Biso   1.000  H
  H42      1.0000 0.67270  0.68070  0.35140  Biso   1.000  H
  H43      1.0000 0.67270  0.81930  0.85140  Biso   1.000  H
  H44      1.0000 0.32730  0.31930  0.64860  Biso   1.000  H
  C65      1.0000 0.39890  0.07880  0.94290  Biso   1.000  C
  C66      1.0000 0.60110  0.57880  0.55710  Biso   1.000  C
  C67      1.0000 0.60110  0.92120  0.05710  Biso   1.000  C
  C68      1.0000 0.39890  0.42120  0.44290  Biso   1.000  C
  H45      1.0000 0.38360  0.03070  0.97520  Biso   1.000  H
  H46      1.0000 0.61640  0.53070  0.52480  Biso   1.000  H
  H47      1.0000 0.61640  0.96930  0.02480  Biso   1.000  H
  H48      1.0000 0.38360  0.46930  0.47520  Biso   1.000  H
  H49      1.0000 0.38390  0.07560  0.84370  Biso   1.000  H
  H50      1.0000 0.61610  0.57560  0.65630  Biso   1.000  H
  H51      1.0000 0.61610  0.92440  0.15630  Biso   1.000  H
  H52      1.0000 0.38390  0.42440  0.34370  Biso   1.000  H
  C69      1.0000 0.51860  0.09570  0.15250  Biso   1.000  C
  C70      1.0000 0.48140  0.59570  0.34750  Biso   1.000  C
  C71      1.0000 0.48140  0.90430  0.84750  Biso   1.000  C
  C72      1.0000 0.51860  0.40430  0.65250  Biso   1.000  C
  H53      1.0000 0.58450  0.10450  0.19550  Biso   1.000  H
  H54      1.0000 0.41550  0.60450  0.30450  Biso   1.000  H
  H55      1.0000 0.41550  0.89550  0.80450  Biso   1.000  H
  H56      1.0000 0.58450  0.39550  0.69550  Biso   1.000  H
  H57      1.0000 0.50380  0.04760  0.18500  Biso   1.000  H
  H58      1.0000 0.49620  0.54760  0.31500  Biso   1.000  H
  H59      1.0000 0.49620  0.95240  0.81500  Biso   1.000  H
  H60      1.0000 0.50380  0.45240  0.68500  Biso   1.000  H
  C73      1.0000 0.48800  0.22869  0.13970  Biso   1.000  C
  C74      1.0000 0.51200  0.72869  0.36030  Biso   1.000  C
  C75      1.0000 0.51200  0.77131  0.86030  Biso   1.000  C
  C76      1.0000 0.48800  0.27131  0.63970  Biso   1.000  C
  H61      1.0000 0.45300  0.26910  0.16350  Biso   1.000  H
  H62      1.0000 0.54700  0.76910  0.33650  Biso   1.000  H
  H63      1.0000 0.54700  0.73090  0.83650  Biso   1.000  H
  H64      1.0000 0.45300  0.23090  0.66350  Biso   1.000  H
  H65      1.0000 0.55340  0.23950  0.18280  Biso   1.000  H
  H66      1.0000 0.44660  0.73950  0.31720  Biso   1.000  H
  H67      1.0000 0.44660  0.76050  0.81720  Biso   1.000  H
  H68      1.0000 0.55340  0.26050  0.68280  Biso   1.000  H
  C77      1.0000 0.52120  0.16460  0.95650  Biso   1.000  C
  C78      1.0000 0.47880  0.66460  0.54350  Biso   1.000  C
  C79      1.0000 0.47880  0.83540  0.04350  Biso   1.000  C
  C80      1.0000 0.52120  0.33540  0.45650  Biso   1.000  C
  H69      1.0000 0.50900  0.16230  0.85770  Biso   1.000  H
  H70      1.0000 0.49100  0.66230  0.64230  Biso   1.000  H
  H71      1.0000 0.49100  0.83770  0.14230  Biso   1.000  H
  H72      1.0000 0.50900  0.33770  0.35770  Biso   1.000  H
  H73      1.0000 0.58690  0.17430  0.99980  Biso   1.000  H
  H74      1.0000 0.41310  0.67430  0.50020  Biso   1.000  H
  H75      1.0000 0.41310  0.82570  0.00020  Biso   1.000  H
  H76      1.0000 0.58690  0.32570  0.49980  Biso   1.000  H
  C81      1.0000 0.36720  0.21040  0.92760  Biso   1.000  C
  C82      1.0000 0.63280  0.71040  0.57240  Biso   1.000  C
  C83      1.0000 0.63280  0.78960  0.07240  Biso   1.000  C
  C84      1.0000 0.36720  0.28960  0.42760  Biso   1.000  C
  H77      1.0000 0.35100  0.20920  0.82810  Biso   1.000  H
  H78      1.0000 0.64900  0.70920  0.67190  Biso   1.000  H
  H79      1.0000 0.64900  0.79080  0.17190  Biso   1.000  H
  H80      1.0000 0.35100  0.29080  0.32810  Biso   1.000  H
  H81      1.0000 0.33160  0.25040  0.95130  Biso   1.000  H
  H82      1.0000 0.66840  0.75040  0.54870  Biso   1.000  H
  H83      1.0000 0.66840  0.74960  0.04870  Biso   1.000  H
  H84      1.0000 0.33160  0.24960  0.45130  Biso   1.000  H
  N25      1.0000 0.84560  0.02550  0.22230  Biso   1.000  N
  N26      1.0000 0.15440  0.52550  0.27770  Biso   1.000  N
  N27      1.0000 0.15440  0.97450  0.77770  Biso   1.000  N
  N28      1.0000 0.84560  0.47450  0.72230  Biso   1.000  N
  C85      1.0000 0.89260  0.03040  0.35830  Biso   1.000  C
  C86      1.0000 0.10740  0.53040  0.14170  Biso   1.000  C
  C87      1.0000 0.10740  0.96960  0.64170  Biso   1.000  C
  C88      1.0000 0.89260  0.46960  0.85830  Biso   1.000  C
  H85      1.0000 0.93040  0.07490  0.37590  Biso   1.000  H
  H86      1.0000 0.06960  0.57490  0.12410  Biso   1.000  H
  H87      1.0000 0.06960  0.92510  0.62410  Biso   1.000  H
  H88      1.0000 0.93040  0.42510  0.87590  Biso   1.000  H
  H89      1.0000 0.93130  0.98680  0.38700  Biso   1.000  H
  H90      1.0000 0.06870  0.48680  0.11300  Biso   1.000  H
  H91      1.0000 0.06870  0.01320  0.61300  Biso   1.000  H
  H92      1.0000 0.93130  0.51320  0.88700  Biso   1.000  H
  H93      1.0000 0.84940  0.03300  0.40880  Biso   1.000  H
  H94      1.0000 0.15060  0.53300  0.09120  Biso   1.000  H
  H95      1.0000 0.15060  0.96700  0.59120  Biso   1.000  H
  H96      1.0000 0.84940  0.46700  0.90880  Biso   1.000  H
  C89      1.0000 0.79240  0.08040  0.16900  Biso   1.000  C
  C90      1.0000 0.20760  0.58040  0.33100  Biso   1.000  C
  C91      1.0000 0.20760  0.91960  0.83100  Biso   1.000  C
  C92      1.0000 0.79240  0.41960  0.66900  Biso   1.000  C
  H97      1.0000 0.77670  0.12430  0.20520  Biso   1.000  H
  H98      1.0000 0.22330  0.62430  0.29480  Biso   1.000  H
  H99      1.0000 0.22330  0.87570  0.79480  Biso   1.000  H
  H100     1.0000 0.77670  0.37570  0.70520  Biso   1.000  H
  C93      1.0000 0.86010  0.96390  0.16000  Biso   1.000  C
  C94      1.0000 0.13990  0.46390  0.34000  Biso   1.000  C
  C95      1.0000 0.13990  0.03610  0.84000  Biso   1.000  C
  C96      1.0000 0.86010  0.53610  0.66000  Biso   1.000  C
  H101     1.0000 0.82610  0.92280  0.18110  Biso   1.000  H
  H102     1.0000 0.17390  0.42280  0.31890  Biso   1.000  H
  H103     1.0000 0.17390  0.07720  0.81890  Biso   1.000  H
  H104     1.0000 0.82610  0.57720  0.68110  Biso   1.000  H
  H105     1.0000 0.92510  0.95220  0.19110  Biso   1.000  H
  H106     1.0000 0.07490  0.45220  0.30890  Biso   1.000  H
  H107     1.0000 0.07490  0.04780  0.80890  Biso   1.000  H
  H108     1.0000 0.92510  0.54780  0.69110  Biso   1.000  H
  H109     1.0000 0.83960  0.97200  0.06210  Biso   1.000  H
  H110     1.0000 0.16040  0.47200  0.43790  Biso   1.000  H
  H111     1.0000 0.16040  0.02800  0.93790  Biso   1.000  H
  H112     1.0000 0.83960  0.52800  0.56210  Biso   1.000  H
  O13      1.0000 0.76180  0.04570  0.01240  Biso   1.000  O
  O14      1.0000 0.23820  0.54570  0.48760  Biso   1.000  O
  O15      1.0000 0.23820  0.95430  0.98760  Biso   1.000  O
  O16      1.0000 0.76180  0.45430  0.51240  Biso   1.000  O
