data_image0
_cell_length_a       10.2053
_cell_length_b       11.2092
_cell_length_c       11.8049
_cell_angle_alpha    109.583
_cell_angle_beta     95.353
_cell_angle_gamma    109.081

_symmetry_space_group_name_H-M    "P 1"
_symmetry_int_tables_number       1

loop_
  _symmetry_equiv_pos_as_xyz
  'x, y, z'

loop_
  _atom_site_label
  _atom_site_occupancy
  _atom_site_fract_x
  _atom_site_fract_y
  _atom_site_fract_z
  _atom_site_thermal_displace_type
  _atom_site_B_iso_or_equiv
  _atom_site_type_symbol
  Mo1      1.0000 0.44983  0.55941  0.41994  Biso   1.000  Mo
  Mo2      1.0000 0.98058  0.02852  0.64414  Biso   1.000  Mo
  Mo3      1.0000 0.04123  0.99978  0.36499  Biso   1.000  Mo
  Mo4      1.0000 0.51154  0.53088  0.14143  Biso   1.000  Mo
  Mo5      1.0000 0.79674  0.76283  0.11346  Biso   1.000  Mo
  Mo6      1.0000 0.69302  0.79639  0.67126  Biso   1.000  Mo
  Cr1      1.0000 0.74580  0.78130  0.39290  Biso   1.000  Cr
  O1       1.0000 0.08300  0.02600  0.75400  Biso   1.000  O
  O2       1.0000 0.81450  0.45070  0.35870  Biso   1.000  O
  O3       1.0000 0.10880  0.76520  0.85630  Biso   1.000  O
  O4       1.0000 0.80880  0.77410  0.77380  Biso   1.000  O
  O5       1.0000 0.56500  0.82940  0.73950  Biso   1.000  O
  O6       1.0000 0.31720  0.59280  0.47800  Biso   1.000  O
  O7       1.0000 0.53900  0.18320  0.20400  Biso   1.000  O
  O8       1.0000 0.40240  0.54810  0.02970  Biso   1.000  O
  O9       1.0000 0.96240  0.39210  0.57770  Biso   1.000  O
  O10      1.0000 0.09400  0.17960  0.41400  Biso   1.000  O
  O11      1.0000 0.43250  0.87900  0.18700  Biso   1.000  O
  O12      1.0000 0.80560  0.99270  0.69770  Biso   1.000  O
  O13      1.0000 0.95780  0.55350  0.27100  Biso   1.000  O
  O14      1.0000 0.02790  0.67660  0.59740  Biso   1.000  O
  O15      1.0000 0.59460  0.78290  0.48030  Biso   1.000  O
  H1       1.0000 0.54950  0.84760  0.47930  Biso   1.000  H
  O16      1.0000 0.67460  0.11290  0.42400  Biso   1.000  O
  O17      1.0000 0.85200  0.98000  0.45550  Biso   1.000  O
  H2       1.0000 0.79830  0.03700  0.45040  Biso   1.000  H
  O18      1.0000 0.09310  0.98710  0.51940  Biso   1.000  O
  O19      1.0000 0.89550  0.95360  0.22460  Biso   1.000  O
  O20      1.0000 0.63190  0.75570  0.23990  Biso   1.000  O
  H3       1.0000 0.57840  0.81490  0.24460  Biso   1.000  H
  O21      1.0000 0.69170  0.57760  0.09520  Biso   1.000  O
  O22      1.0000 0.40420  0.57430  0.26510  Biso   1.000  O
  O23      1.0000 0.59130  0.60660  0.56340  Biso   1.000  O
  O24      1.0000 0.69800  0.78100  0.00500  Biso   1.000  O
  O25      1.0000 0.89730  0.76980  0.29730  Biso   1.000  O
  H4       1.0000 0.94140  0.70410  0.29710  Biso   1.000  H
  O26      1.0000 0.84940  0.78840  0.54990  Biso   1.000  O
  H5       1.0000 0.89940  0.72630  0.54530  Biso   1.000  H
  O27      1.0000 0.64760  0.58160  0.32870  Biso   1.000  O
  H6       1.0000 0.70320  0.52620  0.33390  Biso   1.000  H
  O28      1.0000 0.66800  0.14210  0.84050  Biso   1.000  O
  O29      1.0000 0.92710  0.72640  0.04280  Biso   1.000  O
  O30      1.0000 0.47400  0.36370  0.09990  Biso   1.000  O
  O31      1.0000 0.39660  0.38800  0.37030  Biso   1.000  O
  O32      1.0000 0.17120  0.95850  0.29740  Biso   1.000  O
  O33      1.0000 0.02950  0.20320  0.67710  Biso   1.000  O
  O34      1.0000 0.65880  0.04030  0.02780  Biso   1.000  O
  O35      1.0000 0.50260  0.99790  0.50600  Biso   1.000  O
  Cu1      1.0000 0.74170  0.27760  0.39270  Biso   1.000  Cu
  C1       1.0000 0.90700  0.46000  0.29900  Biso   1.000  C
  C2       1.0000 0.41400  0.35300  0.67200  Biso   1.000  C
  C3       1.0000 0.06400  0.19700  0.11300  Biso   1.000  C
  C4       1.0000 0.30700  0.49700  0.69400  Biso   1.000  C
  H7       1.0000 0.24150  0.53610  0.68310  Biso   1.000  H
  C5       1.0000 0.57200  0.10200  0.48700  Biso   1.000  C
  C6       1.0000 0.48900  0.45500  0.77700  Biso   1.000  C
  H8       1.0000 0.56530  0.46340  0.83330  Biso   1.000  H
  C7       1.0000 0.00200  0.08600  0.01000  Biso   1.000  C
  H9       1.0000 0.91820  0.06660  0.95660  Biso   1.000  H
  C8       1.0000 0.91400  0.31340  0.21960  Biso   1.000  C
  H10      1.0000 0.83670  0.27400  0.14570  Biso   1.000  H
  C9       1.0000 0.50780  0.20880  0.50640  Biso   1.000  C
  H11      1.0000 0.43280  0.17650  0.43250  Biso   1.000  H
  C10      1.0000 0.44500  0.23200  0.60800  Biso   1.000  C
  H12      1.0000 0.50310  0.22190  0.67090  Biso   1.000  H
  H13      1.0000 0.35410  0.15500  0.58210  Biso   1.000  H
  C11      1.0000 0.04300  0.33200  0.17200  Biso   1.000  C
  H14      1.0000 0.12490  0.39610  0.23940  Biso   1.000  H
  H15      1.0000 0.03870  0.37220  0.11130  Biso   1.000  H
  C12      1.0000 0.17400  0.05900  0.09100  Biso   1.000  C
  H16      1.0000 0.23480  0.01720  0.10780  Biso   1.000  H
  N1       1.0000 0.63100  0.34000  0.50800  Biso   1.000  N
  H17      1.0000 0.68650  0.38910  0.58430  Biso   1.000  H
  H18      1.0000 0.59310  0.39270  0.48500  Biso   1.000  H
  N2       1.0000 0.87130  0.22530  0.28140  Biso   1.000  N
  H19      1.0000 0.94890  0.22830  0.32720  Biso   1.000  H
  H20      1.0000 0.82520  0.13880  0.22570  Biso   1.000  H
  N3       1.0000 0.07300  0.00900  0.99500  Biso   1.000  N
  H21      1.0000 0.05640  0.93580  0.93150  Biso   1.000  H
  N4       1.0000 0.30370  0.37200  0.61900  Biso   1.000  N
  N5       1.0000 0.17800  0.17600  0.16100  Biso   1.000  N
  N6       1.0000 0.41800  0.55000  0.78300  Biso   1.000  N
  H22      1.0000 0.44710  0.63210  0.83800  Biso   1.000  H
  Na1      1.0000 0.24640  0.73270  0.27990  Biso   1.000  Na
  Na2      1.0000 0.26730  0.84520  0.55830  Biso   1.000  Na
