data_image0
_cell_length_a       10.214
_cell_length_b       11.2
_cell_length_c       11.631
_cell_angle_alpha    109.403
_cell_angle_beta     95.144
_cell_angle_gamma    109.171

_symmetry_space_group_name_H-M    "P 1"
_symmetry_int_tables_number       1

loop_
  _symmetry_equiv_pos_as_xyz
  'x, y, z'

loop_
  _atom_site_label
  _atom_site_occupancy
  _atom_site_fract_x
  _atom_site_fract_y
  _atom_site_fract_z
  _atom_site_thermal_displace_type
  _atom_site_B_iso_or_equiv
  _atom_site_type_symbol
  Cu1      1.0000 0.00000  0.00000  0.00000  Biso   1.000  Cu
  Mo1      1.0000 0.29117  0.71687  0.96740  Biso   1.000  Mo
  Mo2      1.0000 0.70883  0.28313  0.03260  Biso   1.000  Mo
  Mo3      1.0000 0.04672  0.48165  0.71751  Biso   1.000  Mo
  Mo4      1.0000 0.95328  0.51835  0.28249  Biso   1.000  Mo
  Mo5      1.0000 0.76532  0.25139  0.74993  Biso   1.000  Mo
  Mo6      1.0000 0.23468  0.74861  0.25007  Biso   1.000  Mo
  Al1      1.0000 0.00000  0.50000  0.00000  Biso   1.000  Al
  O1       1.0000 0.93060  0.83030  0.03330  Biso   1.000  O
  O2       1.0000 0.06940  0.16970  0.96670  Biso   1.000  O
  O3       1.0000 0.08010  0.23650  0.36230  Biso   1.000  O
  O4       1.0000 0.91990  0.76350  0.63770  Biso   1.000  O
  O5       1.0000 0.77670  0.72090  0.12340  Biso   1.000  O
  O6       1.0000 0.22330  0.27910  0.87660  Biso   1.000  O
  O7       1.0000 0.36420  0.48620  0.46630  Biso   1.000  O
  O8       1.0000 0.63580  0.51380  0.53370  Biso   1.000  O
  O9       1.0000 0.17670  0.44760  0.64580  Biso   1.000  O
  O10      1.0000 0.82330  0.55240  0.35420  Biso   1.000  O
  O11      1.0000 0.08090  0.13770  0.55220  Biso   1.000  O
  O12      1.0000 0.91910  0.86230  0.44780  Biso   1.000  O
  O13      1.0000 0.14480  0.49260  0.90950  Biso   1.000  O
  O14      1.0000 0.85520  0.50740  0.09050  Biso   1.000  O
  O15      1.0000 0.29630  0.40010  0.20690  Biso   1.000  O
  O16      1.0000 0.70370  0.59990  0.79310  Biso   1.000  O
  O17      1.0000 0.34430  0.89350  0.01790  Biso   1.000  O
  O18      1.0000 0.65570  0.10650  0.98210  Biso   1.000  O
  O19      1.0000 0.20970  0.10830  0.18900  Biso   1.000  O
  O20      1.0000 0.79030  0.89170  0.81100  Biso   1.000  O
  O21      1.0000 0.89290  0.48480  0.84940  Biso   1.000  O
  O22      1.0000 0.10710  0.51520  0.15060  Biso   1.000  O
  O23      1.0000 0.62030  0.70510  0.40430  Biso   1.000  O
  O24      1.0000 0.37970  0.29490  0.59570  Biso   1.000  O
  O25      1.0000 0.94090  0.29230  0.69570  Biso   1.000  O
  O26      1.0000 0.05910  0.70770  0.30430  Biso   1.000  O
  O27      1.0000 0.64680  0.85020  0.47060  Biso   1.000  O
  O28      1.0000 0.35320  0.14980  0.52940  Biso   1.000  O
  O29      1.0000 0.14640  0.67160  0.82500  Biso   1.000  O
  O30      1.0000 0.85360  0.32840  0.17500  Biso   1.000  O
  O31      1.0000 0.34420  0.70480  0.12360  Biso   1.000  O
  O32      1.0000 0.65580  0.29520  0.87640  Biso   1.000  O
  O33      1.0000 0.42200  0.67720  0.90100  Biso   1.000  O
  O34      1.0000 0.57800  0.32280  0.09900  Biso   1.000  O
  O35      1.0000 0.09730  0.69200  0.05980  Biso   1.000  O
  O36      1.0000 0.90270  0.30800  0.94020  Biso   1.000  O
  H1       1.0000 0.04140  0.74710  0.05420  Biso   1.000  H
  H2       1.0000 0.95860  0.25290  0.94580  Biso   1.000  H
  O37      1.0000 0.65660  0.26350  0.63800  Biso   1.000  O
  O38      1.0000 0.34340  0.73650  0.36200  Biso   1.000  O
  O39      1.0000 0.93710  0.50090  0.61230  Biso   1.000  O
  O40      1.0000 0.06290  0.49910  0.38770  Biso   1.000  O
  O41      1.0000 0.72280  0.08030  0.71590  Biso   1.000  O
  O42      1.0000 0.27720  0.91970  0.28410  Biso   1.000  O
  Na1      1.0000 0.50990  0.55620  0.14020  Biso   1.000  Na
  Na2      1.0000 0.49010  0.44380  0.85980  Biso   1.000  Na
  N1       1.0000 0.87580  0.05440  0.11150  Biso   1.000  N
  N2       1.0000 0.12420  0.94560  0.88850  Biso   1.000  N
  N3       1.0000 0.74110  0.18580  0.38300  Biso   1.000  N
  N4       1.0000 0.25890  0.81420  0.61700  Biso   1.000  N
  N5       1.0000 0.55770  0.21270  0.29970  Biso   1.000  N
  N6       1.0000 0.44230  0.78730  0.70030  Biso   1.000  N
  H3       1.0000 0.49640  0.24690  0.28680  Biso   1.000  H
  H4       1.0000 0.50360  0.75310  0.71320  Biso   1.000  H
  C1       1.0000 0.83740  0.96580  0.17680  Biso   1.000  C
  C2       1.0000 0.16260  0.03420  0.82320  Biso   1.000  C
  C3       1.0000 0.67140  0.07310  0.27860  Biso   1.000  C
  C4       1.0000 0.32860  0.92690  0.72140  Biso   1.000  C
  C5       1.0000 0.83610  0.82150  0.09730  Biso   1.000  C
  C6       1.0000 0.16390  0.17850  0.90270  Biso   1.000  C
  C7       1.0000 0.69720  0.94420  0.21910  Biso   1.000  C
  C8       1.0000 0.30280  0.05580  0.78090  Biso   1.000  C
  C9       1.0000 0.66840  0.27060  0.39370  Biso   1.000  C
  C10      1.0000 0.33160  0.72940  0.60630  Biso   1.000  C
  H5       1.0000 0.69350  0.35600  0.45770  Biso   1.000  H
  H6       1.0000 0.30650  0.64400  0.54230  Biso   1.000  H
  C11      1.0000 0.55660  0.09240  0.22800  Biso   1.000  C
  C12      1.0000 0.44340  0.90760  0.77200  Biso   1.000  C
  H7       1.0000 0.48900  0.03080  0.15510  Biso   1.000  H
  H8       1.0000 0.51100  0.96920  0.84490  Biso   1.000  H
  H9       1.0000 0.16200  0.42900  0.90500  Biso   1.000  H
  H10      1.0000 0.83800  0.57100  0.09500  Biso   1.000  H
  H11      1.0000 0.85000  0.53700  0.85400  Biso   1.000  H
  H12      1.0000 0.15000  0.46300  0.14600  Biso   1.000  H
  C13      1.0000 0.23990  0.07200  0.88370  Biso   1.000  C
  C14      1.0000 0.76010  0.92800  0.11630  Biso   1.000  C
