data_image0
_cell_length_a       17.924
_cell_length_b       22.666
_cell_length_c       18.279
_cell_angle_alpha    90
_cell_angle_beta     112.104
_cell_angle_gamma    90

_symmetry_space_group_name_H-M    "P 1"
_symmetry_int_tables_number       1

loop_
  _symmetry_equiv_pos_as_xyz
  'x, y, z'

loop_
  _atom_site_label
  _atom_site_occupancy
  _atom_site_fract_x
  _atom_site_fract_y
  _atom_site_fract_z
  _atom_site_thermal_displace_type
  _atom_site_B_iso_or_equiv
  _atom_site_type_symbol
  O1       1.0000 0.23720  0.37480  0.35700  Biso   1.000  O
  O2       1.0000 0.76280  0.87480  0.14300  Biso   1.000  O
  O3       1.0000 0.76280  0.62520  0.64300  Biso   1.000  O
  O4       1.0000 0.23720  0.12520  0.85700  Biso   1.000  O
  O5       1.0000 0.87440  0.98420  0.08660  Biso   1.000  O
  O6       1.0000 0.12560  0.48420  0.41340  Biso   1.000  O
  O7       1.0000 0.12560  0.01580  0.91340  Biso   1.000  O
  O8       1.0000 0.87440  0.51580  0.58660  Biso   1.000  O
  Cu1      1.0000 0.55308  0.22596  0.89388  Biso   1.000  Cu
  Cu2      1.0000 0.44692  0.72596  0.60612  Biso   1.000  Cu
  Cu3      1.0000 0.44692  0.77404  0.10612  Biso   1.000  Cu
  Cu4      1.0000 0.55308  0.27404  0.39388  Biso   1.000  Cu
  Cu5      1.0000 0.99395  0.20512  0.24968  Biso   1.000  Cu
  Cu6      1.0000 0.00605  0.70512  0.25032  Biso   1.000  Cu
  Cu7      1.0000 0.00605  0.79488  0.75032  Biso   1.000  Cu
  Cu8      1.0000 0.99395  0.29488  0.74968  Biso   1.000  Cu
  Cr1      1.0000 0.66303  0.05063  0.15149  Biso   1.000  Cr
  Cr2      1.0000 0.33697  0.55063  0.34851  Biso   1.000  Cr
  Cr3      1.0000 0.33697  0.94937  0.84851  Biso   1.000  Cr
  Cr4      1.0000 0.66303  0.44937  0.65149  Biso   1.000  Cr
  Cr5      1.0000 0.85452  0.40434  0.02363  Biso   1.000  Cr
  Cr6      1.0000 0.14548  0.90434  0.47637  Biso   1.000  Cr
  Cr7      1.0000 0.14548  0.59566  0.97637  Biso   1.000  Cr
  Cr8      1.0000 0.85452  0.09566  0.52363  Biso   1.000  Cr
  S1       1.0000 0.46189  0.15703  0.94344  Biso   1.000  S
  S2       1.0000 0.53811  0.65703  0.55656  Biso   1.000  S
  S3       1.0000 0.53811  0.84297  0.05656  Biso   1.000  S
  S4       1.0000 0.46189  0.34297  0.44344  Biso   1.000  S
  S5       1.0000 0.63353  0.94770  0.91957  Biso   1.000  S
  S6       1.0000 0.36647  0.44770  0.58043  Biso   1.000  S
  S7       1.0000 0.36647  0.05230  0.08043  Biso   1.000  S
  S8       1.0000 0.63353  0.55230  0.41957  Biso   1.000  S
  S9       1.0000 0.84991  0.93818  0.36170  Biso   1.000  S
  S10      1.0000 0.15009  0.43818  0.13830  Biso   1.000  S
  S11      1.0000 0.15009  0.06182  0.63830  Biso   1.000  S
  S12      1.0000 0.84991  0.56182  0.86170  Biso   1.000  S
  S13      1.0000 0.65954  0.20451  0.32614  Biso   1.000  S
  S14      1.0000 0.34046  0.70451  0.17386  Biso   1.000  S
  S15      1.0000 0.34046  0.79549  0.67386  Biso   1.000  S
  S16      1.0000 0.65954  0.29549  0.82614  Biso   1.000  S
  S17      1.0000 0.84990  0.44311  0.27580  Biso   1.000  S
  S18      1.0000 0.15010  0.94311  0.22420  Biso   1.000  S
  S19      1.0000 0.15010  0.55689  0.72420  Biso   1.000  S
  S20      1.0000 0.84990  0.05689  0.77580  Biso   1.000  S
  S21      1.0000 0.06616  0.30040  0.21601  Biso   1.000  S
  S22      1.0000 0.93384  0.80040  0.28399  Biso   1.000  S
  S23      1.0000 0.93384  0.69960  0.78399  Biso   1.000  S
  S24      1.0000 0.06616  0.19960  0.71601  Biso   1.000  S
  S25      1.0000 0.94405  0.40639  0.81057  Biso   1.000  S
  S26      1.0000 0.05595  0.90639  0.68943  Biso   1.000  S
  S27      1.0000 0.05595  0.59361  0.18943  Biso   1.000  S
  S28      1.0000 0.94405  0.09361  0.31057  Biso   1.000  S
  S29      1.0000 0.59731  0.48307  0.87273  Biso   1.000  S
  S30      1.0000 0.40269  0.98307  0.62727  Biso   1.000  S
  S31      1.0000 0.40269  0.51693  0.12727  Biso   1.000  S
  S32      1.0000 0.59731  0.01693  0.37273  Biso   1.000  S
  O9       1.0000 0.70820  0.18720  0.01280  Biso   1.000  O
  O10      1.0000 0.29180  0.68720  0.48720  Biso   1.000  O
  O11      1.0000 0.29180  0.81280  0.98720  Biso   1.000  O
  O12      1.0000 0.70820  0.31280  0.51280  Biso   1.000  O
  O13      1.0000 0.90540  0.16370  0.08550  Biso   1.000  O
  O14      1.0000 0.09460  0.66370  0.41450  Biso   1.000  O
  O15      1.0000 0.09460  0.83630  0.91450  Biso   1.000  O
  O16      1.0000 0.90540  0.33630  0.58550  Biso   1.000  O
  O17      1.0000 0.65390  0.27744  0.04860  Biso   1.000  O
  O18      1.0000 0.34610  0.77744  0.45140  Biso   1.000  O
  O19      1.0000 0.34610  0.72256  0.95140  Biso   1.000  O
  O20      1.0000 0.65390  0.22256  0.54860  Biso   1.000  O
  O21      1.0000 0.83030  0.23060  0.13700  Biso   1.000  O
  O22      1.0000 0.16970  0.73060  0.36300  Biso   1.000  O
  O23      1.0000 0.16970  0.76940  0.86300  Biso   1.000  O
  O24      1.0000 0.83030  0.26940  0.63700  Biso   1.000  O
  N1       1.0000 0.65360  0.17940  0.94010  Biso   1.000  N
  N2       1.0000 0.34640  0.67940  0.55990  Biso   1.000  N
  N3       1.0000 0.34640  0.82060  0.05990  Biso   1.000  N
  N4       1.0000 0.65360  0.32060  0.44010  Biso   1.000  N
  N5       1.0000 0.54550  0.17250  0.80180  Biso   1.000  N
  N6       1.0000 0.45450  0.67250  0.69820  Biso   1.000  N
  N7       1.0000 0.45450  0.82750  0.19820  Biso   1.000  N
  N8       1.0000 0.54550  0.32750  0.30180  Biso   1.000  N
  N9       1.0000 0.10130  0.16170  0.27550  Biso   1.000  N
  N10      1.0000 0.89870  0.66170  0.22450  Biso   1.000  N
  N11      1.0000 0.89870  0.83830  0.72450  Biso   1.000  N
  N12      1.0000 0.10130  0.33830  0.77550  Biso   1.000  N
  N13      1.0000 0.97480  0.16240  0.14840  Biso   1.000  N
  N14      1.0000 0.02520  0.66240  0.35160  Biso   1.000  N
  N15      1.0000 0.02520  0.83760  0.85160  Biso   1.000  N
  N16      1.0000 0.97480  0.33760  0.64840  Biso   1.000  N
  N17      1.0000 0.58850  0.28440  0.98180  Biso   1.000  N
  N18      1.0000 0.41150  0.78440  0.51820  Biso   1.000  N
  N19      1.0000 0.41150  0.71560  0.01820  Biso   1.000  N
  N20      1.0000 0.58850  0.21560  0.48180  Biso   1.000  N
  N21      1.0000 0.46720  0.28850  0.85190  Biso   1.000  N
  N22      1.0000 0.53280  0.78850  0.64810  Biso   1.000  N
  N23      1.0000 0.53280  0.71150  0.14810  Biso   1.000  N
  N24      1.0000 0.46720  0.21150  0.35190  Biso   1.000  N
  N25      1.0000 0.99290  0.24440  0.35030  Biso   1.000  N
  N26      1.0000 0.00710  0.74440  0.14970  Biso   1.000  N
  N27      1.0000 0.00710  0.75560  0.64970  Biso   1.000  N
  N28      1.0000 0.99290  0.25560  0.85030  Biso   1.000  N
  N29      1.0000 0.88330  0.23580  0.21250  Biso   1.000  N
  N30      1.0000 0.11670  0.73580  0.28750  Biso   1.000  N
  N31      1.0000 0.11670  0.76420  0.78750  Biso   1.000  N
  N32      1.0000 0.88330  0.26420  0.71250  Biso   1.000  N
  N33      1.0000 0.58360  0.09920  0.06630  Biso   1.000  N
  N34      1.0000 0.41640  0.59920  0.43370  Biso   1.000  N
  N35      1.0000 0.41640  0.90080  0.93370  Biso   1.000  N
  N36      1.0000 0.58360  0.40080  0.56630  Biso   1.000  N
  N37      1.0000 0.66150  0.99450  0.06770  Biso   1.000  N
  N38      1.0000 0.33850  0.49450  0.43230  Biso   1.000  N
  N39      1.0000 0.33850  0.00550  0.93230  Biso   1.000  N
  N40      1.0000 0.66150  0.50550  0.56770  Biso   1.000  N
  N41      1.0000 0.73930  0.00170  0.23750  Biso   1.000  N
  N42      1.0000 0.26070  0.50170  0.26250  Biso   1.000  N
  N43      1.0000 0.26070  0.99830  0.76250  Biso   1.000  N
  N44      1.0000 0.73930  0.49830  0.73750  Biso   1.000  N
  N45      1.0000 0.66120  0.11060  0.22900  Biso   1.000  N
  N46      1.0000 0.33880  0.61060  0.27100  Biso   1.000  N
  N47      1.0000 0.33880  0.88940  0.77100  Biso   1.000  N
  N48      1.0000 0.66120  0.38940  0.72900  Biso   1.000  N
  N49      1.0000 0.75890  0.09330  0.13910  Biso   1.000  N
  N50      1.0000 0.24110  0.59330  0.36090  Biso   1.000  N
  N51      1.0000 0.24110  0.90670  0.86090  Biso   1.000  N
  N52      1.0000 0.75890  0.40670  0.63910  Biso   1.000  N
  H1       1.0000 0.77360  0.07400  0.10430  Biso   1.000  H
  H2       1.0000 0.22640  0.57400  0.39570  Biso   1.000  H
  H3       1.0000 0.22640  0.92600  0.89570  Biso   1.000  H
  H4       1.0000 0.77360  0.42600  0.60430  Biso   1.000  H
  H5       1.0000 0.80000  0.09440  0.18550  Biso   1.000  H
  H6       1.0000 0.20000  0.59440  0.31450  Biso   1.000  H
  H7       1.0000 0.20000  0.90560  0.81450  Biso   1.000  H
  H8       1.0000 0.80000  0.40560  0.68550  Biso   1.000  H
  H9       1.0000 0.74450  0.12990  0.12210  Biso   1.000  H
  H10      1.0000 0.25550  0.62990  0.37790  Biso   1.000  H
  H11      1.0000 0.25550  0.87010  0.87790  Biso   1.000  H
  H12      1.0000 0.74450  0.37010  0.62210  Biso   1.000  H
  N53      1.0000 0.56880  0.00560  0.16660  Biso   1.000  N
  N54      1.0000 0.43120  0.50560  0.33340  Biso   1.000  N
  N55      1.0000 0.43120  0.99440  0.83340  Biso   1.000  N
  N56      1.0000 0.56880  0.49440  0.66660  Biso   1.000  N
  H13      1.0000 0.55640  0.97380  0.13570  Biso   1.000  H
  H14      1.0000 0.44360  0.47380  0.36430  Biso   1.000  H
  H15      1.0000 0.44360  0.02620  0.86430  Biso   1.000  H
  H16      1.0000 0.55640  0.52620  0.63570  Biso   1.000  H
  H17      1.0000 0.52600  0.02910  0.15380  Biso   1.000  H
  H18      1.0000 0.47400  0.52910  0.34620  Biso   1.000  H
  H19      1.0000 0.47400  0.97090  0.84620  Biso   1.000  H
  H20      1.0000 0.52600  0.47090  0.65380  Biso   1.000  H
  H21      1.0000 0.58360  0.99450  0.21680  Biso   1.000  H
  H22      1.0000 0.41640  0.49450  0.28320  Biso   1.000  H
  H23      1.0000 0.41640  0.00550  0.78320  Biso   1.000  H
  H24      1.0000 0.58360  0.50550  0.71680  Biso   1.000  H
  N57      1.0000 0.83190  0.42180  0.11920  Biso   1.000  N
  N58      1.0000 0.16810  0.92180  0.38080  Biso   1.000  N
  N59      1.0000 0.16810  0.57820  0.88080  Biso   1.000  N
  N60      1.0000 0.83190  0.07820  0.61920  Biso   1.000  N
  N61      1.0000 0.95350  0.36170  0.09240  Biso   1.000  N
  N62      1.0000 0.04650  0.86170  0.40760  Biso   1.000  N
  N63      1.0000 0.04650  0.63830  0.90760  Biso   1.000  N
  N64      1.0000 0.95350  0.13830  0.59240  Biso   1.000  N
  N65      1.0000 0.88300  0.39090  0.92940  Biso   1.000  N
  N66      1.0000 0.11700  0.89090  0.57060  Biso   1.000  N
  N67      1.0000 0.11700  0.60910  0.07060  Biso   1.000  N
  N68      1.0000 0.88300  0.10910  0.42940  Biso   1.000  N
  N69      1.0000 0.75300  0.44370  0.95760  Biso   1.000  N
  N70      1.0000 0.24700  0.94370  0.54240  Biso   1.000  N
  N71      1.0000 0.24700  0.55630  0.04240  Biso   1.000  N
  N72      1.0000 0.75300  0.05630  0.45760  Biso   1.000  N
  N73      1.0000 0.91790  0.48300  0.03980  Biso   1.000  N
  N74      1.0000 0.08210  0.98300  0.46020  Biso   1.000  N
  N75      1.0000 0.08210  0.51700  0.96020  Biso   1.000  N
  N76      1.0000 0.91790  0.01700  0.53980  Biso   1.000  N
  H25      1.0000 0.93700  0.48730  0.00170  Biso   1.000  H
  H26      1.0000 0.06300  0.98730  0.49830  Biso   1.000  H
  H27      1.0000 0.06300  0.51270  0.99830  Biso   1.000  H
  H28      1.0000 0.93700  0.01270  0.50170  Biso   1.000  H
  H29      1.0000 0.95860  0.48260  0.08650  Biso   1.000  H
  H30      1.0000 0.04140  0.98260  0.41350  Biso   1.000  H
  H31      1.0000 0.04140  0.51740  0.91350  Biso   1.000  H
  H32      1.0000 0.95860  0.01740  0.58650  Biso   1.000  H
  H33      1.0000 0.88520  0.51300  0.03820  Biso   1.000  H
  H34      1.0000 0.11480  0.01300  0.46180  Biso   1.000  H
  H35      1.0000 0.11480  0.48700  0.96180  Biso   1.000  H
  H36      1.0000 0.88520  0.98700  0.53820  Biso   1.000  H
  N77      1.0000 0.79400  0.32550  0.00740  Biso   1.000  N
  N78      1.0000 0.20600  0.82550  0.49260  Biso   1.000  N
  N79      1.0000 0.20600  0.67450  0.99260  Biso   1.000  N
  N80      1.0000 0.79400  0.17450  0.50740  Biso   1.000  N
  H37      1.0000 0.79570  0.30750  0.96480  Biso   1.000  H
  H38      1.0000 0.20430  0.80750  0.53520  Biso   1.000  H
  H39      1.0000 0.20430  0.69250  0.03520  Biso   1.000  H
  H40      1.0000 0.79570  0.19250  0.46480  Biso   1.000  H
  H41      1.0000 0.74290  0.33210  0.00100  Biso   1.000  H
  H42      1.0000 0.25710  0.83210  0.49900  Biso   1.000  H
  H43      1.0000 0.25710  0.66790  0.99900  Biso   1.000  H
  H44      1.0000 0.74290  0.16790  0.50100  Biso   1.000  H
  H45      1.0000 0.81710  0.30260  0.04950  Biso   1.000  H
  H46      1.0000 0.18290  0.80260  0.45050  Biso   1.000  H
  H47      1.0000 0.18290  0.69740  0.95050  Biso   1.000  H
  H48      1.0000 0.81710  0.19740  0.54950  Biso   1.000  H
  C1       1.0000 0.73970  0.09980  0.92460  Biso   1.000  C
  C2       1.0000 0.26030  0.59980  0.57540  Biso   1.000  C
  C3       1.0000 0.26030  0.90020  0.07540  Biso   1.000  C
  C4       1.0000 0.73970  0.40020  0.42460  Biso   1.000  C
  H49      1.0000 0.77360  0.10960  0.97790  Biso   1.000  H
  H50      1.0000 0.22640  0.60960  0.52210  Biso   1.000  H
  H51      1.0000 0.22640  0.89040  0.02210  Biso   1.000  H
  H52      1.0000 0.77360  0.39040  0.47790  Biso   1.000  H
  H53      1.0000 0.76890  0.10550  0.89060  Biso   1.000  H
  H54      1.0000 0.23110  0.60550  0.60940  Biso   1.000  H
  H55      1.0000 0.23110  0.89450  0.10940  Biso   1.000  H
  H56      1.0000 0.76890  0.39450  0.39060  Biso   1.000  H
  H57      1.0000 0.72320  0.05930  0.92220  Biso   1.000  H
  H58      1.0000 0.27680  0.55930  0.57780  Biso   1.000  H
  H59      1.0000 0.27680  0.94070  0.07780  Biso   1.000  H
  H60      1.0000 0.72320  0.44070  0.42220  Biso   1.000  H
  C5       1.0000 0.66740  0.13850  0.89840  Biso   1.000  C
  C6       1.0000 0.33260  0.63850  0.60160  Biso   1.000  C
  C7       1.0000 0.33260  0.86150  0.10160  Biso   1.000  C
  C8       1.0000 0.66740  0.36150  0.39840  Biso   1.000  C
  C9       1.0000 0.60180  0.13430  0.81780  Biso   1.000  C
  C10      1.0000 0.39820  0.63430  0.68220  Biso   1.000  C
  C11      1.0000 0.39820  0.86570  0.18220  Biso   1.000  C
  C12      1.0000 0.60180  0.36570  0.31780  Biso   1.000  C
  C13      1.0000 0.60870  0.08740  0.76400  Biso   1.000  C
  C14      1.0000 0.39130  0.58740  0.73600  Biso   1.000  C
  C15      1.0000 0.39130  0.91260  0.23600  Biso   1.000  C
  C16      1.0000 0.60870  0.41260  0.26400  Biso   1.000  C
  H61      1.0000 0.56350  0.08960  0.71470  Biso   1.000  H
  H62      1.0000 0.43650  0.58960  0.78530  Biso   1.000  H
  H63      1.0000 0.43650  0.91040  0.28530  Biso   1.000  H
  H64      1.0000 0.56350  0.41040  0.21470  Biso   1.000  H
  H65      1.0000 0.60950  0.04950  0.78770  Biso   1.000  H
  H66      1.0000 0.39050  0.54950  0.71230  Biso   1.000  H
  H67      1.0000 0.39050  0.95050  0.21230  Biso   1.000  H
  H68      1.0000 0.60950  0.45050  0.28770  Biso   1.000  H
  H69      1.0000 0.65760  0.09280  0.75490  Biso   1.000  H
  H70      1.0000 0.34240  0.59280  0.74510  Biso   1.000  H
  H71      1.0000 0.34240  0.90720  0.24510  Biso   1.000  H
  H72      1.0000 0.65760  0.40720  0.25490  Biso   1.000  H
  C17      1.0000 0.48380  0.17080  0.72410  Biso   1.000  C
  C18      1.0000 0.51620  0.67080  0.77590  Biso   1.000  C
  C19      1.0000 0.51620  0.82920  0.27590  Biso   1.000  C
  C20      1.0000 0.48380  0.32920  0.22410  Biso   1.000  C
  C21      1.0000 0.41330  0.13910  0.71120  Biso   1.000  C
  C22      1.0000 0.58670  0.63910  0.78880  Biso   1.000  C
  C23      1.0000 0.58670  0.86090  0.28880  Biso   1.000  C
  C24      1.0000 0.41330  0.36090  0.21120  Biso   1.000  C
  H73      1.0000 0.40600  0.11960  0.75270  Biso   1.000  H
  H74      1.0000 0.59400  0.61960  0.74730  Biso   1.000  H
  H75      1.0000 0.59400  0.88040  0.24730  Biso   1.000  H
  H76      1.0000 0.40600  0.38040  0.25270  Biso   1.000  H
  C25      1.0000 0.35510  0.13690  0.63720  Biso   1.000  C
  C26      1.0000 0.64490  0.63690  0.86280  Biso   1.000  C
  C27      1.0000 0.64490  0.86310  0.36280  Biso   1.000  C
  C28      1.0000 0.35510  0.36310  0.13720  Biso   1.000  C
  H77      1.0000 0.30880  0.11490  0.62850  Biso   1.000  H
  H78      1.0000 0.69120  0.61490  0.87150  Biso   1.000  H
  H79      1.0000 0.69120  0.88510  0.37150  Biso   1.000  H
  H80      1.0000 0.30880  0.38510  0.12850  Biso   1.000  H
  C29      1.0000 0.36380  0.16700  0.57390  Biso   1.000  C
  C30      1.0000 0.63620  0.66700  0.92610  Biso   1.000  C
  C31      1.0000 0.63620  0.83300  0.42610  Biso   1.000  C
  C32      1.0000 0.36380  0.33300  0.07390  Biso   1.000  C
  C33      1.0000 0.43180  0.20000  0.58840  Biso   1.000  C
  C34      1.0000 0.56820  0.70000  0.91160  Biso   1.000  C
  C35      1.0000 0.56820  0.80000  0.41160  Biso   1.000  C
  C36      1.0000 0.43180  0.30000  0.08840  Biso   1.000  C
  H81      1.0000 0.43740  0.22160  0.54740  Biso   1.000  H
  H82      1.0000 0.56260  0.72160  0.95260  Biso   1.000  H
  H83      1.0000 0.56260  0.77840  0.45260  Biso   1.000  H
  H84      1.0000 0.43740  0.27840  0.04740  Biso   1.000  H
  C37      1.0000 0.49260  0.20210  0.66290  Biso   1.000  C
  C38      1.0000 0.50740  0.70210  0.83710  Biso   1.000  C
  C39      1.0000 0.50740  0.79790  0.33710  Biso   1.000  C
  C40      1.0000 0.49260  0.29790  0.16290  Biso   1.000  C
  H85      1.0000 0.53880  0.22430  0.67150  Biso   1.000  H
  H86      1.0000 0.46120  0.72430  0.82850  Biso   1.000  H
  H87      1.0000 0.46120  0.77570  0.32850  Biso   1.000  H
  H88      1.0000 0.53880  0.27570  0.17150  Biso   1.000  H
  C41      1.0000 0.29750  0.16460  0.49420  Biso   1.000  C
  C42      1.0000 0.70250  0.66460  0.00580  Biso   1.000  C
  C43      1.0000 0.70250  0.83540  0.50580  Biso   1.000  C
  C44      1.0000 0.29750  0.33540  0.99420  Biso   1.000  C
  C45      1.0000 0.25430  0.11310  0.46690  Biso   1.000  C
  C46      1.0000 0.74570  0.61310  0.03310  Biso   1.000  C
  C47      1.0000 0.74570  0.88690  0.53310  Biso   1.000  C
  C48      1.0000 0.25430  0.38690  0.96690  Biso   1.000  C
  H89      1.0000 0.26850  0.07920  0.49770  Biso   1.000  H
  H90      1.0000 0.73150  0.57920  0.00230  Biso   1.000  H
  H91      1.0000 0.73150  0.92080  0.50230  Biso   1.000  H
  H92      1.0000 0.26850  0.42080  0.99770  Biso   1.000  H
  C49      1.0000 0.19000  0.11120  0.39410  Biso   1.000  C
  C50      1.0000 0.81000  0.61120  0.10590  Biso   1.000  C
  C51      1.0000 0.81000  0.88880  0.60590  Biso   1.000  C
  C52      1.0000 0.19000  0.38880  0.89410  Biso   1.000  C
  H93      1.0000 0.16160  0.07640  0.37600  Biso   1.000  H
  H94      1.0000 0.83840  0.57640  0.12400  Biso   1.000  H
  H95      1.0000 0.83840  0.92360  0.62400  Biso   1.000  H
  H96      1.0000 0.16160  0.42360  0.87600  Biso   1.000  H
  C53      1.0000 0.16900  0.16290  0.34870  Biso   1.000  C
  C54      1.0000 0.83100  0.66290  0.15130  Biso   1.000  C
  C55      1.0000 0.83100  0.83710  0.65130  Biso   1.000  C
  C56      1.0000 0.16900  0.33710  0.84870  Biso   1.000  C
  C57      1.0000 0.21170  0.21423  0.37570  Biso   1.000  C
  C58      1.0000 0.78830  0.71423  0.12430  Biso   1.000  C
  C59      1.0000 0.78830  0.78577  0.62430  Biso   1.000  C
  C60      1.0000 0.21170  0.28577  0.87570  Biso   1.000  C
  H97      1.0000 0.19740  0.24850  0.34570  Biso   1.000  H
  H98      1.0000 0.80260  0.74850  0.15430  Biso   1.000  H
  H99      1.0000 0.80260  0.75150  0.65430  Biso   1.000  H
  H100     1.0000 0.19740  0.25150  0.84570  Biso   1.000  H
  C61      1.0000 0.27560  0.21470  0.44740  Biso   1.000  C
  C62      1.0000 0.72440  0.71470  0.05260  Biso   1.000  C
  C63      1.0000 0.72440  0.78530  0.55260  Biso   1.000  C
  C64      1.0000 0.27560  0.28530  0.94740  Biso   1.000  C
  H101     1.0000 0.30470  0.24930  0.46480  Biso   1.000  H
  H102     1.0000 0.69530  0.74930  0.03520  Biso   1.000  H
  H103     1.0000 0.69530  0.75070  0.53520  Biso   1.000  H
  H104     1.0000 0.30470  0.25070  0.96480  Biso   1.000  H
  C65      1.0000 0.18000  0.10390  0.21560  Biso   1.000  C
  C66      1.0000 0.82000  0.60390  0.28440  Biso   1.000  C
  C67      1.0000 0.82000  0.89610  0.78440  Biso   1.000  C
  C68      1.0000 0.18000  0.39610  0.71560  Biso   1.000  C
  H105     1.0000 0.22340  0.10890  0.26570  Biso   1.000  H
  H106     1.0000 0.77660  0.60890  0.23430  Biso   1.000  H
  H107     1.0000 0.77660  0.89110  0.73430  Biso   1.000  H
  H108     1.0000 0.22340  0.39110  0.76570  Biso   1.000  H
  H109     1.0000 0.19430  0.12180  0.17500  Biso   1.000  H
  H110     1.0000 0.80570  0.62180  0.32500  Biso   1.000  H
  H111     1.0000 0.80570  0.87820  0.82500  Biso   1.000  H
  H112     1.0000 0.19430  0.37820  0.67500  Biso   1.000  H
  H113     1.0000 0.17000  0.06260  0.20470  Biso   1.000  H
  H114     1.0000 0.83000  0.56260  0.29530  Biso   1.000  H
  H115     1.0000 0.83000  0.93740  0.79530  Biso   1.000  H
  H116     1.0000 0.17000  0.43740  0.70470  Biso   1.000  H
  C69      1.0000 0.10620  0.13260  0.21760  Biso   1.000  C
  C70      1.0000 0.89380  0.63260  0.28240  Biso   1.000  C
  C71      1.0000 0.89380  0.86740  0.78240  Biso   1.000  C
  C72      1.0000 0.10620  0.36740  0.71760  Biso   1.000  C
  C73      1.0000 0.03060  0.13010  0.14450  Biso   1.000  C
  C74      1.0000 0.96940  0.63010  0.35550  Biso   1.000  C
  C75      1.0000 0.96940  0.86990  0.85550  Biso   1.000  C
  C76      1.0000 0.03060  0.36990  0.64450  Biso   1.000  C
  C77      1.0000 0.02500  0.09260  0.07420  Biso   1.000  C
  C78      1.0000 0.97500  0.59260  0.42580  Biso   1.000  C
  C79      1.0000 0.97500  0.90740  0.92580  Biso   1.000  C
  C80      1.0000 0.02500  0.40740  0.57420  Biso   1.000  C
  H117     1.0000 0.97240  0.09680  0.03360  Biso   1.000  H
  H118     1.0000 0.02760  0.59680  0.46640  Biso   1.000  H
  H119     1.0000 0.02760  0.90320  0.96640  Biso   1.000  H
  H120     1.0000 0.97240  0.40320  0.53360  Biso   1.000  H
  H121     1.0000 0.03410  0.05200  0.09000  Biso   1.000  H
  H122     1.0000 0.96590  0.55200  0.41000  Biso   1.000  H
  H123     1.0000 0.96590  0.94800  0.91000  Biso   1.000  H
  H124     1.0000 0.03410  0.44800  0.59000  Biso   1.000  H
  H125     1.0000 0.06490  0.10530  0.05440  Biso   1.000  H
  H126     1.0000 0.93510  0.60530  0.44560  Biso   1.000  H
  H127     1.0000 0.93510  0.89470  0.94560  Biso   1.000  H
  H128     1.0000 0.06490  0.39470  0.55440  Biso   1.000  H
  C81      1.0000 0.57320  0.38310  0.03060  Biso   1.000  C
  C82      1.0000 0.42680  0.88310  0.46940  Biso   1.000  C
  C83      1.0000 0.42680  0.61690  0.96940  Biso   1.000  C
  C84      1.0000 0.57320  0.11690  0.53060  Biso   1.000  C
  H129     1.0000 0.62150  0.37270  0.07420  Biso   1.000  H
  H130     1.0000 0.37850  0.87270  0.42580  Biso   1.000  H
  H131     1.0000 0.37850  0.62730  0.92580  Biso   1.000  H
  H132     1.0000 0.62150  0.12730  0.57420  Biso   1.000  H
  H133     1.0000 0.53080  0.39050  0.04950  Biso   1.000  H
  H134     1.0000 0.46920  0.89050  0.45050  Biso   1.000  H
  H135     1.0000 0.46920  0.60950  0.95050  Biso   1.000  H
  H136     1.0000 0.53080  0.10950  0.54950  Biso   1.000  H
  H137     1.0000 0.58260  0.41790  0.00550  Biso   1.000  H
  H138     1.0000 0.41740  0.91790  0.49450  Biso   1.000  H
  H139     1.0000 0.41740  0.58210  0.99450  Biso   1.000  H
  H140     1.0000 0.58260  0.08210  0.50550  Biso   1.000  H
  C85      1.0000 0.54920  0.33330  0.97230  Biso   1.000  C
  C86      1.0000 0.45080  0.83330  0.52770  Biso   1.000  C
  C87      1.0000 0.45080  0.66670  0.02770  Biso   1.000  C
  C88      1.0000 0.54920  0.16670  0.47230  Biso   1.000  C
  C89      1.0000 0.47720  0.33430  0.89670  Biso   1.000  C
  C90      1.0000 0.52280  0.83430  0.60330  Biso   1.000  C
  C91      1.0000 0.52280  0.66570  0.10330  Biso   1.000  C
  C92      1.0000 0.47720  0.16570  0.39670  Biso   1.000  C
  C93      1.0000 0.42150  0.38530  0.88060  Biso   1.000  C
  C94      1.0000 0.57850  0.88530  0.61940  Biso   1.000  C
  C95      1.0000 0.57850  0.61470  0.11940  Biso   1.000  C
  C96      1.0000 0.42150  0.11470  0.38060  Biso   1.000  C
  H141     1.0000 0.37810  0.37990  0.83050  Biso   1.000  H
  H142     1.0000 0.62190  0.87990  0.66950  Biso   1.000  H
  H143     1.0000 0.62190  0.62010  0.16950  Biso   1.000  H
  H144     1.0000 0.37810  0.12010  0.33050  Biso   1.000  H
  H145     1.0000 0.45010  0.42090  0.87940  Biso   1.000  H
  H146     1.0000 0.54990  0.92090  0.62060  Biso   1.000  H
  H147     1.0000 0.54990  0.57910  0.12060  Biso   1.000  H
  H148     1.0000 0.45010  0.07910  0.37940  Biso   1.000  H
  H149     1.0000 0.40010  0.38820  0.92140  Biso   1.000  H
  H150     1.0000 0.59990  0.88820  0.57860  Biso   1.000  H
  H151     1.0000 0.59990  0.61180  0.07860  Biso   1.000  H
  H152     1.0000 0.40010  0.11180  0.42140  Biso   1.000  H
  C97      1.0000 0.39660  0.28540  0.77980  Biso   1.000  C
  C98      1.0000 0.60340  0.78540  0.72020  Biso   1.000  C
  C99      1.0000 0.60340  0.71460  0.22020  Biso   1.000  C
  C100     1.0000 0.39660  0.21460  0.27980  Biso   1.000  C
  C101     1.0000 0.39350  0.31390  0.71290  Biso   1.000  C
  C102     1.0000 0.60650  0.81390  0.78710  Biso   1.000  C
  C103     1.0000 0.60650  0.68610  0.28710  Biso   1.000  C
  C104     1.0000 0.39350  0.18610  0.21290  Biso   1.000  C
  H153     1.0000 0.43640  0.33730  0.71380  Biso   1.000  H
  H154     1.0000 0.56360  0.83730  0.78620  Biso   1.000  H
  H155     1.0000 0.56360  0.66270  0.28620  Biso   1.000  H
  H156     1.0000 0.43640  0.16270  0.21380  Biso   1.000  H
  C105     1.0000 0.32610  0.30810  0.64360  Biso   1.000  C
  C106     1.0000 0.67390  0.80810  0.85640  Biso   1.000  C
  C107     1.0000 0.67390  0.69190  0.35640  Biso   1.000  C
  C108     1.0000 0.32610  0.19190  0.14360  Biso   1.000  C
  H157     1.0000 0.32440  0.32710  0.59800  Biso   1.000  H
  H158     1.0000 0.67560  0.82710  0.90200  Biso   1.000  H
  H159     1.0000 0.67560  0.67290  0.40200  Biso   1.000  H
  H160     1.0000 0.32440  0.17290  0.09800  Biso   1.000  H
  C109     1.0000 0.26140  0.27410  0.64210  Biso   1.000  C
  C110     1.0000 0.73860  0.77410  0.85790  Biso   1.000  C
  C111     1.0000 0.73860  0.72590  0.35790  Biso   1.000  C
  C112     1.0000 0.26140  0.22590  0.14210  Biso   1.000  C
  C113     1.0000 0.26580  0.24520  0.70990  Biso   1.000  C
  C114     1.0000 0.73420  0.74520  0.79010  Biso   1.000  C
  C115     1.0000 0.73420  0.75480  0.29010  Biso   1.000  C
  C116     1.0000 0.26580  0.25480  0.20990  Biso   1.000  C
  H161     1.0000 0.22280  0.22220  0.70950  Biso   1.000  H
  H162     1.0000 0.77720  0.72220  0.79050  Biso   1.000  H
  H163     1.0000 0.77720  0.77780  0.29050  Biso   1.000  H
  H164     1.0000 0.22280  0.27780  0.20950  Biso   1.000  H
  C117     1.0000 0.33340  0.25020  0.77860  Biso   1.000  C
  C118     1.0000 0.66660  0.75020  0.72140  Biso   1.000  C
  C119     1.0000 0.66660  0.74980  0.22140  Biso   1.000  C
  C120     1.0000 0.33340  0.24980  0.27860  Biso   1.000  C
  H165     1.0000 0.33620  0.22990  0.82370  Biso   1.000  H
  H166     1.0000 0.66380  0.72990  0.67630  Biso   1.000  H
  H167     1.0000 0.66380  0.77010  0.17630  Biso   1.000  H
  H168     1.0000 0.33620  0.27010  0.32370  Biso   1.000  H
  C121     1.0000 0.18980  0.26690  0.56700  Biso   1.000  C
  C122     1.0000 0.81020  0.76690  0.93300  Biso   1.000  C
  C123     1.0000 0.81020  0.73310  0.43300  Biso   1.000  C
  C124     1.0000 0.18980  0.23310  0.06700  Biso   1.000  C
  C125     1.0000 0.16450  0.31230  0.51130  Biso   1.000  C
  C126     1.0000 0.83550  0.81230  0.98870  Biso   1.000  C
  C127     1.0000 0.83550  0.68770  0.48870  Biso   1.000  C
  C128     1.0000 0.16450  0.18770  0.01130  Biso   1.000  C
  H169     1.0000 0.19150  0.34820  0.52190  Biso   1.000  H
  H170     1.0000 0.80850  0.84820  0.97810  Biso   1.000  H
  H171     1.0000 0.80850  0.65180  0.47810  Biso   1.000  H
  H172     1.0000 0.19150  0.15180  0.02190  Biso   1.000  H
  C129     1.0000 0.10080  0.30480  0.44150  Biso   1.000  C
  C130     1.0000 0.89920  0.80480  0.05850  Biso   1.000  C
  C131     1.0000 0.89920  0.69520  0.55850  Biso   1.000  C
  C132     1.0000 0.10080  0.19520  0.94150  Biso   1.000  C
  H173     1.0000 0.08540  0.33540  0.40500  Biso   1.000  H
  H174     1.0000 0.91460  0.83540  0.09500  Biso   1.000  H
  H175     1.0000 0.91460  0.66460  0.59500  Biso   1.000  H
  H176     1.0000 0.08540  0.16460  0.90500  Biso   1.000  H
  C133     1.0000 0.05930  0.25210  0.42470  Biso   1.000  C
  C134     1.0000 0.94070  0.75210  0.07530  Biso   1.000  C
  C135     1.0000 0.94070  0.74790  0.57530  Biso   1.000  C
  C136     1.0000 0.05930  0.24790  0.92470  Biso   1.000  C
  C137     1.0000 0.08170  0.20620  0.47860  Biso   1.000  C
  C138     1.0000 0.91830  0.70620  0.02140  Biso   1.000  C
  C139     1.0000 0.91830  0.79380  0.52140  Biso   1.000  C
  C140     1.0000 0.08170  0.29380  0.97860  Biso   1.000  C
  H177     1.0000 0.05380  0.17060  0.46790  Biso   1.000  H
  H178     1.0000 0.94620  0.67060  0.03210  Biso   1.000  H
  H179     1.0000 0.94620  0.82940  0.53210  Biso   1.000  H
  H180     1.0000 0.05380  0.32940  0.96790  Biso   1.000  H
  C141     1.0000 0.14660  0.21480  0.54870  Biso   1.000  C
  C142     1.0000 0.85340  0.71480  0.95130  Biso   1.000  C
  C143     1.0000 0.85340  0.78520  0.45130  Biso   1.000  C
  C144     1.0000 0.14660  0.28520  0.04870  Biso   1.000  C
  H181     1.0000 0.16190  0.18420  0.58520  Biso   1.000  H
  H182     1.0000 0.83810  0.68420  0.91480  Biso   1.000  H
  H183     1.0000 0.83810  0.81580  0.41480  Biso   1.000  H
  H184     1.0000 0.16190  0.31580  0.08520  Biso   1.000  H
  C145     1.0000 0.90430  0.29550  0.40610  Biso   1.000  C
  C146     1.0000 0.09570  0.79550  0.09390  Biso   1.000  C
  C147     1.0000 0.09570  0.70450  0.59390  Biso   1.000  C
  C148     1.0000 0.90430  0.20450  0.90610  Biso   1.000  C
  H185     1.0000 0.95050  0.29470  0.45460  Biso   1.000  H
  H186     1.0000 0.04950  0.79470  0.04540  Biso   1.000  H
  H187     1.0000 0.04950  0.70530  0.54540  Biso   1.000  H
  H188     1.0000 0.95050  0.20530  0.95460  Biso   1.000  H
  H189     1.0000 0.86060  0.27470  0.41290  Biso   1.000  H
  H190     1.0000 0.13940  0.77470  0.08710  Biso   1.000  H
  H191     1.0000 0.13940  0.72530  0.58710  Biso   1.000  H
  H192     1.0000 0.86060  0.22530  0.91290  Biso   1.000  H
  H193     1.0000 0.88870  0.33560  0.39160  Biso   1.000  H
  H194     1.0000 0.11130  0.83560  0.10840  Biso   1.000  H
  H195     1.0000 0.11130  0.66440  0.60840  Biso   1.000  H
  H196     1.0000 0.88870  0.16440  0.89160  Biso   1.000  H
  C149     1.0000 0.92460  0.26620  0.34200  Biso   1.000  C
  C150     1.0000 0.07540  0.76620  0.15800  Biso   1.000  C
  C151     1.0000 0.07540  0.73380  0.65800  Biso   1.000  C
  C152     1.0000 0.92460  0.23380  0.84200  Biso   1.000  C
  C153     1.0000 0.86030  0.26330  0.26100  Biso   1.000  C
  C154     1.0000 0.13970  0.76330  0.23900  Biso   1.000  C
  C155     1.0000 0.13970  0.73670  0.73900  Biso   1.000  C
  C156     1.0000 0.86030  0.23670  0.76100  Biso   1.000  C
  C157     1.0000 0.77760  0.28990  0.23950  Biso   1.000  C
  C158     1.0000 0.22240  0.78990  0.26050  Biso   1.000  C
  C159     1.0000 0.22240  0.71010  0.76050  Biso   1.000  C
  C160     1.0000 0.77760  0.21010  0.73950  Biso   1.000  C
  H197     1.0000 0.74620  0.28250  0.18470  Biso   1.000  H
  H198     1.0000 0.25380  0.78250  0.31530  Biso   1.000  H
  H199     1.0000 0.25380  0.71750  0.81530  Biso   1.000  H
  H200     1.0000 0.74620  0.21750  0.68470  Biso   1.000  H
  H201     1.0000 0.78240  0.33170  0.24850  Biso   1.000  H
  H202     1.0000 0.21760  0.83170  0.25150  Biso   1.000  H
  H203     1.0000 0.21760  0.66830  0.75150  Biso   1.000  H
  H204     1.0000 0.78240  0.16830  0.74850  Biso   1.000  H
  H205     1.0000 0.75140  0.27250  0.27140  Biso   1.000  H
  H206     1.0000 0.24860  0.77250  0.22860  Biso   1.000  H
  H207     1.0000 0.24860  0.72750  0.72860  Biso   1.000  H
  H208     1.0000 0.75140  0.22750  0.77140  Biso   1.000  H
  C161     1.0000 0.53290  0.12350  0.01550  Biso   1.000  C
  C162     1.0000 0.46710  0.62350  0.48450  Biso   1.000  C
  C163     1.0000 0.46710  0.87650  0.98450  Biso   1.000  C
  C164     1.0000 0.53290  0.37650  0.51550  Biso   1.000  C
  C165     1.0000 0.64830  0.97460  0.00590  Biso   1.000  C
  C166     1.0000 0.35170  0.47460  0.49410  Biso   1.000  C
  C167     1.0000 0.35170  0.02540  0.99410  Biso   1.000  C
  C168     1.0000 0.64830  0.52540  0.50590  Biso   1.000  C
  C169     1.0000 0.78570  0.97630  0.28970  Biso   1.000  C
  C170     1.0000 0.21430  0.47630  0.21030  Biso   1.000  C
  C171     1.0000 0.21430  0.02370  0.71030  Biso   1.000  C
  C172     1.0000 0.78570  0.52370  0.78970  Biso   1.000  C
  C173     1.0000 0.66010  0.14880  0.26960  Biso   1.000  C
  C174     1.0000 0.33990  0.64880  0.23040  Biso   1.000  C
  C175     1.0000 0.33990  0.85120  0.73040  Biso   1.000  C
  C176     1.0000 0.66010  0.35120  0.76960  Biso   1.000  C
  C177     1.0000 0.83570  0.43090  0.18200  Biso   1.000  C
  C178     1.0000 0.16430  0.93090  0.31800  Biso   1.000  C
  C179     1.0000 0.16430  0.56910  0.81800  Biso   1.000  C
  C180     1.0000 0.83570  0.06910  0.68200  Biso   1.000  C
  C181     1.0000 0.99940  0.33590  0.14340  Biso   1.000  C
  C182     1.0000 0.00060  0.83590  0.35660  Biso   1.000  C
  C183     1.0000 0.00060  0.66410  0.85660  Biso   1.000  C
  C184     1.0000 0.99940  0.16410  0.64340  Biso   1.000  C
  C185     1.0000 0.90780  0.39640  0.87900  Biso   1.000  C
  C186     1.0000 0.09220  0.89640  0.62100  Biso   1.000  C
  C187     1.0000 0.09220  0.60360  0.12100  Biso   1.000  C
  C188     1.0000 0.90780  0.10360  0.37900  Biso   1.000  C
  C189     1.0000 0.68830  0.45920  0.92030  Biso   1.000  C
  C190     1.0000 0.31170  0.95920  0.57970  Biso   1.000  C
  C191     1.0000 0.31170  0.54080  0.07970  Biso   1.000  C
  C192     1.0000 0.68830  0.04080  0.42030  Biso   1.000  C
  H209     1.0000 0.68500  0.20600  0.02300  Biso   1.000  H
  H210     1.0000 0.31500  0.70600  0.47700  Biso   1.000  H
  H211     1.0000 0.31500  0.79400  0.97700  Biso   1.000  H
  H212     1.0000 0.68500  0.29400  0.52300  Biso   1.000  H
  H213     1.0000 0.87800  0.18800  0.10200  Biso   1.000  H
  H214     1.0000 0.12200  0.68800  0.39800  Biso   1.000  H
  H215     1.0000 0.12200  0.81200  0.89800  Biso   1.000  H
  H216     1.0000 0.87800  0.31200  0.60200  Biso   1.000  H
  O25      1.0000 0.89700  0.96250  0.15300  Biso   1.000  O
  O26      1.0000 0.10300  0.46250  0.34700  Biso   1.000  O
  O27      1.0000 0.10300  0.03750  0.84700  Biso   1.000  O
  O28      1.0000 0.89700  0.53750  0.65300  Biso   1.000  O
  O29      1.0000 0.04400  0.45020  0.29200  Biso   1.000  O
  O30      1.0000 0.95600  0.95020  0.20800  Biso   1.000  O
  O31      1.0000 0.95600  0.54980  0.70800  Biso   1.000  O
  O32      1.0000 0.04400  0.04980  0.79200  Biso   1.000  O
