data_image0
_cell_length_a       5.9778
_cell_length_b       8.3606
_cell_length_c       9.1921
_cell_angle_alpha    83.697
_cell_angle_beta     72.625
_cell_angle_gamma    72.405

_symmetry_space_group_name_H-M    "P 1"
_symmetry_int_tables_number       1

loop_
  _symmetry_equiv_pos_as_xyz
  'x, y, z'

loop_
  _atom_site_label
  _atom_site_occupancy
  _atom_site_fract_x
  _atom_site_fract_y
  _atom_site_fract_z
  _atom_site_thermal_displace_type
  _atom_site_B_iso_or_equiv
  _atom_site_type_symbol
  Cu1      1.0000 0.50000  0.00000  0.00000  Biso   1.000  Cu
  Cu2      1.0000 0.59762  0.44409  0.13826  Biso   1.000  Cu
  Cu3      1.0000 0.40238  0.55591  0.86174  Biso   1.000  Cu
  P1       1.0000 0.14640  0.34131  0.15537  Biso   1.000  P
  P2       1.0000 0.85360  0.65869  0.84463  Biso   1.000  P
  C1       1.0000 0.24070  0.29250  0.32780  Biso   1.000  C
  C2       1.0000 0.75930  0.70750  0.67220  Biso   1.000  C
  C3       1.0000 0.13270  0.20080  0.44930  Biso   1.000  C
  C4       1.0000 0.86730  0.79920  0.55070  Biso   1.000  C
  H1       1.0000 0.00420  0.16290  0.44420  Biso   1.000  H
  H2       1.0000 0.99580  0.83710  0.55580  Biso   1.000  H
  C5       1.0000 0.21550  0.16600  0.57700  Biso   1.000  C
  C6       1.0000 0.78450  0.83400  0.42300  Biso   1.000  C
  H3       1.0000 0.14470  0.10400  0.65830  Biso   1.000  H
  H4       1.0000 0.85530  0.89600  0.34170  Biso   1.000  H
  C7       1.0000 0.40700  0.22500  0.58270  Biso   1.000  C
  C8       1.0000 0.59300  0.77500  0.41730  Biso   1.000  C
  C9       1.0000 0.50910  0.31190  0.45680  Biso   1.000  C
  C10      1.0000 0.49090  0.68810  0.54320  Biso   1.000  C
  H5       1.0000 0.63810  0.35080  0.45920  Biso   1.000  H
  H6       1.0000 0.36190  0.64920  0.54080  Biso   1.000  H
  C11      1.0000 0.50630  0.18670  0.72170  Biso   1.000  C
  C12      1.0000 0.49370  0.81330  0.27830  Biso   1.000  C
  N1       1.0000 0.43260  0.34290  0.33180  Biso   1.000  N
  N2       1.0000 0.56740  0.65710  0.66820  Biso   1.000  N
  O1       1.0000 0.19610  0.17960  0.07910  Biso   1.000  O
  O2       1.0000 0.80390  0.82040  0.92090  Biso   1.000  O
  O3       1.0000 0.31050  0.45130  0.06840  Biso   1.000  O
  O4       1.0000 0.68950  0.54870  0.93160  Biso   1.000  O
  O5       1.0000 0.88190  0.43780  0.19960  Biso   1.000  O
  O6       1.0000 0.11810  0.56220  0.80040  Biso   1.000  O
  O7       1.0000 0.62280  0.27790  0.74150  Biso   1.000  O
  O8       1.0000 0.37720  0.72210  0.25850  Biso   1.000  O
  O9       1.0000 0.46000  0.06580  0.79910  Biso   1.000  O
  O10      1.0000 0.54000  0.93420  0.20090  Biso   1.000  O
  O11      1.0000 0.22540  0.81800  0.99730  Biso   1.000  O
  O12      1.0000 0.77460  0.18200  0.00270  Biso   1.000  O
  H7       1.0000 0.15880  0.79500  0.08950  Biso   1.000  H
  H8       1.0000 0.84120  0.20500  0.91050  Biso   1.000  H
  H9       1.0000 0.11060  0.87670  0.95940  Biso   1.000  H
  H10      1.0000 0.88940  0.12330  0.04060  Biso   1.000  H
