data_image0
_cell_length_a       5.5021
_cell_length_b       20.1449
_cell_length_c       13.0034
_cell_angle_alpha    90
_cell_angle_beta     92.278
_cell_angle_gamma    90

_symmetry_space_group_name_H-M    "P 1"
_symmetry_int_tables_number       1

loop_
  _symmetry_equiv_pos_as_xyz
  'x, y, z'

loop_
  _atom_site_label
  _atom_site_occupancy
  _atom_site_fract_x
  _atom_site_fract_y
  _atom_site_fract_z
  _atom_site_thermal_displace_type
  _atom_site_B_iso_or_equiv
  _atom_site_type_symbol
  Cu1      1.0000 0.54345  0.06168  0.59060  Biso   1.000  Cu
  Cu2      1.0000 0.95655  0.56168  0.90940  Biso   1.000  Cu
  Cu3      1.0000 0.45655  0.93832  0.40940  Biso   1.000  Cu
  Cu4      1.0000 0.04345  0.43832  0.09060  Biso   1.000  Cu
  Cu5      1.0000 0.00000  0.00000  0.50000  Biso   1.000  Cu
  Cu6      1.0000 0.50000  0.50000  0.00000  Biso   1.000  Cu
  C1       1.0000 0.28730  0.16802  0.51850  Biso   1.000  C
  C2       1.0000 0.21270  0.66802  0.98150  Biso   1.000  C
  C3       1.0000 0.71270  0.83198  0.48150  Biso   1.000  C
  C4       1.0000 0.78730  0.33198  0.01850  Biso   1.000  C
  C5       1.0000 0.06770  0.20217  0.46810  Biso   1.000  C
  C6       1.0000 0.43230  0.70217  0.03190  Biso   1.000  C
  C7       1.0000 0.93230  0.79783  0.53190  Biso   1.000  C
  C8       1.0000 0.56770  0.29783  0.96810  Biso   1.000  C
  H1       1.0000 0.06110  0.19230  0.39500  Biso   1.000  H
  H2       1.0000 0.43890  0.69230  0.10500  Biso   1.000  H
  H3       1.0000 0.93890  0.80770  0.60500  Biso   1.000  H
  H4       1.0000 0.56110  0.30770  0.89500  Biso   1.000  H
  H5       1.0000 0.92100  0.18470  0.49710  Biso   1.000  H
  H6       1.0000 0.57900  0.68470  0.00290  Biso   1.000  H
  H7       1.0000 0.07900  0.81530  0.50290  Biso   1.000  H
  H8       1.0000 0.42100  0.31530  0.99710  Biso   1.000  H
  C9       1.0000 0.92790  0.30323  0.54920  Biso   1.000  C
  C10      1.0000 0.57210  0.80323  0.95080  Biso   1.000  C
  C11      1.0000 0.07210  0.69677  0.45080  Biso   1.000  C
  C12      1.0000 0.42790  0.19677  0.04920  Biso   1.000  C
  H9       1.0000 0.81910  0.27740  0.58470  Biso   1.000  H
  H10      1.0000 0.68090  0.77740  0.91530  Biso   1.000  H
  H11      1.0000 0.18090  0.72260  0.41530  Biso   1.000  H
  H12      1.0000 0.31910  0.22260  0.08470  Biso   1.000  H
  C13      1.0000 0.23290  0.31132  0.43070  Biso   1.000  C
  C14      1.0000 0.26710  0.81132  0.06930  Biso   1.000  C
  C15      1.0000 0.76710  0.68868  0.56930  Biso   1.000  C
  C16      1.0000 0.73290  0.18868  0.93070  Biso   1.000  C
  H13      1.0000 0.33310  0.29110  0.38400  Biso   1.000  H
  H14      1.0000 0.16690  0.79110  0.11600  Biso   1.000  H
  H15      1.0000 0.66690  0.70890  0.61600  Biso   1.000  H
  H16      1.0000 0.83310  0.20890  0.88400  Biso   1.000  H
  C17      1.0000 0.24780  0.37829  0.44610  Biso   1.000  C
  C18      1.0000 0.25220  0.87829  0.05390  Biso   1.000  C
  C19      1.0000 0.75220  0.62171  0.55390  Biso   1.000  C
  C20      1.0000 0.74780  0.12171  0.94610  Biso   1.000  C
  H17      1.0000 0.35910  0.40320  0.41040  Biso   1.000  H
  H18      1.0000 0.14090  0.90320  0.08960  Biso   1.000  H
  H19      1.0000 0.64090  0.59680  0.58960  Biso   1.000  H
  H20      1.0000 0.85910  0.09680  0.91040  Biso   1.000  H
  C21      1.0000 0.93650  0.36974  0.56550  Biso   1.000  C
  C22      1.0000 0.56350  0.86974  0.93450  Biso   1.000  C
  C23      1.0000 0.06350  0.63026  0.43450  Biso   1.000  C
  C24      1.0000 0.43650  0.13026  0.06550  Biso   1.000  C
  H21      1.0000 0.83230  0.38900  0.61150  Biso   1.000  H
  H22      1.0000 0.66770  0.88900  0.88850  Biso   1.000  H
  H23      1.0000 0.16770  0.61100  0.38850  Biso   1.000  H
  H24      1.0000 0.33230  0.11100  0.11150  Biso   1.000  H
  C25      1.0000 0.09810  0.40924  0.51450  Biso   1.000  C
  C26      1.0000 0.40190  0.90924  0.98550  Biso   1.000  C
  C27      1.0000 0.90190  0.59076  0.48550  Biso   1.000  C
  C28      1.0000 0.59810  0.09076  0.01450  Biso   1.000  C
  C29      1.0000 0.10420  0.48299  0.53040  Biso   1.000  C
  C30      1.0000 0.39580  0.98299  0.96960  Biso   1.000  C
  C31      1.0000 0.89580  0.51701  0.46960  Biso   1.000  C
  C32      1.0000 0.60420  0.01701  0.03040  Biso   1.000  C
  H25      1.0000 0.25820  0.50040  0.50850  Biso   1.000  H
  H26      1.0000 0.24180  0.00040  0.99150  Biso   1.000  H
  H27      1.0000 0.74180  0.49960  0.49150  Biso   1.000  H
  H28      1.0000 0.75820  0.99960  0.00850  Biso   1.000  H
  H29      1.0000 0.09180  0.49270  0.60300  Biso   1.000  H
  H30      1.0000 0.40820  0.99270  0.89700  Biso   1.000  H
  H31      1.0000 0.90820  0.50730  0.39700  Biso   1.000  H
  H32      1.0000 0.59180  0.00730  0.10300  Biso   1.000  H
  N1       1.0000 0.44310  0.07225  0.73040  Biso   1.000  N
  N2       1.0000 0.05690  0.57225  0.76960  Biso   1.000  N
  N3       1.0000 0.55690  0.92775  0.26960  Biso   1.000  N
  N4       1.0000 0.94310  0.42775  0.23040  Biso   1.000  N
  N5       1.0000 0.31060  0.11561  0.75310  Biso   1.000  N
  N6       1.0000 0.18940  0.61561  0.74690  Biso   1.000  N
  N7       1.0000 0.68940  0.88439  0.24690  Biso   1.000  N
  N8       1.0000 0.81060  0.38439  0.25310  Biso   1.000  N
  N9       1.0000 0.18380  0.15650  0.77970  Biso   1.000  N
  N10      1.0000 0.31620  0.65650  0.72030  Biso   1.000  N
  N11      1.0000 0.81620  0.84350  0.22030  Biso   1.000  N
  N12      1.0000 0.68380  0.34350  0.27970  Biso   1.000  N
  N13      1.0000 0.84190  0.01257  0.63195  Biso   1.000  N
  N14      1.0000 0.65810  0.51257  0.86805  Biso   1.000  N
  N15      1.0000 0.15810  0.98743  0.36805  Biso   1.000  N
  N16      1.0000 0.34190  0.48743  0.13195  Biso   1.000  N
  N17      1.0000 0.89480  0.99381  0.71800  Biso   1.000  N
  N18      1.0000 0.60520  0.49381  0.78200  Biso   1.000  N
  N19      1.0000 0.10520  0.00619  0.28200  Biso   1.000  N
  N20      1.0000 0.39480  0.50619  0.21800  Biso   1.000  N
  N21      1.0000 0.94130  0.97753  0.79960  Biso   1.000  N
  N22      1.0000 0.55870  0.47753  0.70040  Biso   1.000  N
  N23      1.0000 0.05870  0.02247  0.20040  Biso   1.000  N
  N24      1.0000 0.44130  0.52247  0.29960  Biso   1.000  N
  N25      1.0000 0.69700  0.04661  0.45225  Biso   1.000  N
  N26      1.0000 0.80300  0.54661  0.04775  Biso   1.000  N
  N27      1.0000 0.30300  0.95339  0.54775  Biso   1.000  N
  N28      1.0000 0.19700  0.45339  0.95225  Biso   1.000  N
  N29      1.0000 0.65630  0.08248  0.37870  Biso   1.000  N
  N30      1.0000 0.84370  0.58248  0.12130  Biso   1.000  N
  N31      1.0000 0.34370  0.91752  0.62130  Biso   1.000  N
  N32      1.0000 0.15630  0.41752  0.87870  Biso   1.000  N
  N33      1.0000 0.60980  0.11532  0.31100  Biso   1.000  N
  N34      1.0000 0.89020  0.61532  0.18900  Biso   1.000  N
  N35      1.0000 0.39020  0.88468  0.68900  Biso   1.000  N
  N36      1.0000 0.10980  0.38468  0.81100  Biso   1.000  N
  N37      1.0000 0.07470  0.27427  0.48240  Biso   1.000  N
  N38      1.0000 0.42530  0.77427  0.01760  Biso   1.000  N
  N39      1.0000 0.92530  0.72573  0.51760  Biso   1.000  N
  N40      1.0000 0.57470  0.22573  0.98240  Biso   1.000  N
  O1       1.0000 0.26100  0.10552  0.52623  Biso   1.000  O
  O2       1.0000 0.23900  0.60552  0.97377  Biso   1.000  O
  O3       1.0000 0.73900  0.89448  0.47377  Biso   1.000  O
  O4       1.0000 0.76100  0.39448  0.02623  Biso   1.000  O
  O5       1.0000 0.46830  0.19918  0.54680  Biso   1.000  O
  O6       1.0000 0.03170  0.69918  0.95320  Biso   1.000  O
  O7       1.0000 0.53170  0.80082  0.45320  Biso   1.000  O
  O8       1.0000 0.96830  0.30082  0.04680  Biso   1.000  O
  O9       1.0000 0.50000  0.29510  0.71580  Biso   1.000  O
  O10      1.0000 0.00000  0.79510  0.78420  Biso   1.000  O
  O11      1.0000 0.50000  0.70490  0.28420  Biso   1.000  O
  O12      1.0000 0.00000  0.20490  0.21580  Biso   1.000  O
