data_image0
_cell_length_a       13.9746
_cell_length_b       14.9708
_cell_length_c       14.3454
_cell_angle_alpha    90
_cell_angle_beta     97.557
_cell_angle_gamma    90

_symmetry_space_group_name_H-M    "P 1"
_symmetry_int_tables_number       1

loop_
  _symmetry_equiv_pos_as_xyz
  'x, y, z'

loop_
  _atom_site_label
  _atom_site_occupancy
  _atom_site_fract_x
  _atom_site_fract_y
  _atom_site_fract_z
  _atom_site_thermal_displace_type
  _atom_site_B_iso_or_equiv
  _atom_site_type_symbol
  Cu1      1.0000 0.67637  0.09471  0.96200  Biso   1.000  Cu
  Cu2      1.0000 0.32363  0.59471  0.53800  Biso   1.000  Cu
  Cu3      1.0000 0.32363  0.90529  0.03800  Biso   1.000  Cu
  Cu4      1.0000 0.67637  0.40529  0.46200  Biso   1.000  Cu
  Cu5      1.0000 0.51596  0.92392  0.93485  Biso   1.000  Cu
  Cu6      1.0000 0.48404  0.42392  0.56515  Biso   1.000  Cu
  Cu7      1.0000 0.48404  0.07608  0.06515  Biso   1.000  Cu
  Cu8      1.0000 0.51596  0.57608  0.43485  Biso   1.000  Cu
  C1       1.0000 0.69580  0.92390  0.86250  Biso   1.000  C
  C2       1.0000 0.30420  0.42390  0.63750  Biso   1.000  C
  C3       1.0000 0.30420  0.07610  0.13750  Biso   1.000  C
  C4       1.0000 0.69580  0.57610  0.36250  Biso   1.000  C
  C5       1.0000 0.78440  0.87480  0.84400  Biso   1.000  C
  C6       1.0000 0.21560  0.37480  0.65600  Biso   1.000  C
  C7       1.0000 0.21560  0.12520  0.15600  Biso   1.000  C
  C8       1.0000 0.78440  0.62520  0.34400  Biso   1.000  C
  C9       1.0000 0.86730  0.92140  0.83010  Biso   1.000  C
  C10      1.0000 0.13270  0.42140  0.66990  Biso   1.000  C
  C11      1.0000 0.13270  0.07860  0.16990  Biso   1.000  C
  C12      1.0000 0.86730  0.57860  0.33010  Biso   1.000  C
  H1       1.0000 0.86570  0.98350  0.82770  Biso   1.000  H
  H2       1.0000 0.13430  0.48350  0.67230  Biso   1.000  H
  H3       1.0000 0.13430  0.01650  0.17230  Biso   1.000  H
  H4       1.0000 0.86570  0.51650  0.32770  Biso   1.000  H
  C13      1.0000 0.95190  0.87740  0.81960  Biso   1.000  C
  C14      1.0000 0.04810  0.37740  0.68040  Biso   1.000  C
  C15      1.0000 0.04810  0.12260  0.18040  Biso   1.000  C
  C16      1.0000 0.95190  0.62260  0.31960  Biso   1.000  C
  H5       1.0000 0.00680  0.90990  0.81120  Biso   1.000  H
  H6       1.0000 0.99320  0.40990  0.68880  Biso   1.000  H
  H7       1.0000 0.99320  0.09010  0.18880  Biso   1.000  H
  H8       1.0000 0.00680  0.59010  0.31120  Biso   1.000  H
  C17      1.0000 0.95550  0.78430  0.82130  Biso   1.000  C
  C18      1.0000 0.04450  0.28430  0.67870  Biso   1.000  C
  C19      1.0000 0.04450  0.21570  0.17870  Biso   1.000  C
  C20      1.0000 0.95550  0.71570  0.32130  Biso   1.000  C
  C21      1.0000 0.87120  0.73670  0.83340  Biso   1.000  C
  C22      1.0000 0.12880  0.23670  0.66660  Biso   1.000  C
  C23      1.0000 0.12880  0.26330  0.16660  Biso   1.000  C
  C24      1.0000 0.87120  0.76330  0.33340  Biso   1.000  C
  H9       1.0000 0.87210  0.67460  0.83400  Biso   1.000  H
  H10      1.0000 0.12790  0.17460  0.66600  Biso   1.000  H
  H11      1.0000 0.12790  0.32540  0.16600  Biso   1.000  H
  H12      1.0000 0.87210  0.82540  0.33400  Biso   1.000  H
  C25      1.0000 0.78700  0.78170  0.84440  Biso   1.000  C
  C26      1.0000 0.21300  0.28170  0.65560  Biso   1.000  C
  C27      1.0000 0.21300  0.21830  0.15560  Biso   1.000  C
  C28      1.0000 0.78700  0.71830  0.34440  Biso   1.000  C
  H13      1.0000 0.73170  0.74960  0.85220  Biso   1.000  H
  H14      1.0000 0.26830  0.24960  0.64780  Biso   1.000  H
  H15      1.0000 0.26830  0.25040  0.14780  Biso   1.000  H
  H16      1.0000 0.73170  0.75040  0.35220  Biso   1.000  H
  C29      1.0000 0.04700  0.73550  0.81350  Biso   1.000  C
  C30      1.0000 0.95300  0.23550  0.68650  Biso   1.000  C
  C31      1.0000 0.95300  0.26450  0.18650  Biso   1.000  C
  C32      1.0000 0.04700  0.76450  0.31350  Biso   1.000  C
  C33      1.0000 0.12750  0.77940  0.79080  Biso   1.000  C
  C34      1.0000 0.87250  0.27940  0.70920  Biso   1.000  C
  C35      1.0000 0.87250  0.22060  0.20920  Biso   1.000  C
  C36      1.0000 0.12750  0.72060  0.29080  Biso   1.000  C
  H17      1.0000 0.12430  0.84080  0.78060  Biso   1.000  H
  H18      1.0000 0.87570  0.34080  0.71940  Biso   1.000  H
  H19      1.0000 0.87570  0.15920  0.21940  Biso   1.000  H
  H20      1.0000 0.12430  0.65920  0.28060  Biso   1.000  H
  C37      1.0000 0.21850  0.64810  0.79740  Biso   1.000  C
  C38      1.0000 0.78150  0.14810  0.70260  Biso   1.000  C
  C39      1.0000 0.78150  0.35190  0.20260  Biso   1.000  C
  C40      1.0000 0.21850  0.85190  0.29740  Biso   1.000  C
  H21      1.0000 0.27610  0.61900  0.79100  Biso   1.000  H
  H22      1.0000 0.72390  0.11900  0.70900  Biso   1.000  H
  H23      1.0000 0.72390  0.38100  0.20900  Biso   1.000  H
  H24      1.0000 0.27610  0.88100  0.29100  Biso   1.000  H
  C41      1.0000 0.14220  0.60150  0.82150  Biso   1.000  C
  C42      1.0000 0.85780  0.10150  0.67850  Biso   1.000  C
  C43      1.0000 0.85780  0.39850  0.17850  Biso   1.000  C
  C44      1.0000 0.14220  0.89850  0.32150  Biso   1.000  C
  H25      1.0000 0.14790  0.54040  0.83230  Biso   1.000  H
  H26      1.0000 0.85210  0.04040  0.66770  Biso   1.000  H
  H27      1.0000 0.85210  0.45960  0.16770  Biso   1.000  H
  H28      1.0000 0.14790  0.95960  0.33230  Biso   1.000  H
  C45      1.0000 0.05630  0.64410  0.83010  Biso   1.000  C
  C46      1.0000 0.94370  0.14410  0.66990  Biso   1.000  C
  C47      1.0000 0.94370  0.35590  0.16990  Biso   1.000  C
  C48      1.0000 0.05630  0.85590  0.33010  Biso   1.000  C
  H29      1.0000 0.00450  0.61170  0.84710  Biso   1.000  H
  H30      1.0000 0.99550  0.11170  0.65290  Biso   1.000  H
  H31      1.0000 0.99550  0.38830  0.15290  Biso   1.000  H
  H32      1.0000 0.00450  0.88830  0.34710  Biso   1.000  H
  C49      1.0000 0.29510  0.78730  0.76130  Biso   1.000  C
  C50      1.0000 0.70490  0.28730  0.73870  Biso   1.000  C
  C51      1.0000 0.70490  0.21270  0.23870  Biso   1.000  C
  C52      1.0000 0.29510  0.71270  0.26130  Biso   1.000  C
  H33      1.0000 0.33800  0.74790  0.73270  Biso   1.000  H
  H34      1.0000 0.66200  0.24790  0.76730  Biso   1.000  H
  H35      1.0000 0.66200  0.25210  0.26730  Biso   1.000  H
  H36      1.0000 0.33800  0.75210  0.23270  Biso   1.000  H
  H37      1.0000 0.27380  0.83380  0.71620  Biso   1.000  H
  H38      1.0000 0.72620  0.33380  0.78380  Biso   1.000  H
  H39      1.0000 0.72620  0.16620  0.28380  Biso   1.000  H
  H40      1.0000 0.27380  0.66620  0.21620  Biso   1.000  H
  C53      1.0000 0.34990  0.82950  0.84880  Biso   1.000  C
  C54      1.0000 0.65010  0.32950  0.65120  Biso   1.000  C
  C55      1.0000 0.65010  0.17050  0.15120  Biso   1.000  C
  C56      1.0000 0.34990  0.67050  0.34880  Biso   1.000  C
  C57      1.0000 0.85660  0.13560  0.96310  Biso   1.000  C
  C58      1.0000 0.14340  0.63560  0.53690  Biso   1.000  C
  C59      1.0000 0.14340  0.86440  0.03690  Biso   1.000  C
  C60      1.0000 0.85660  0.36440  0.46310  Biso   1.000  C
  C61      1.0000 0.94830  0.18060  0.94490  Biso   1.000  C
  C62      1.0000 0.05170  0.68060  0.55510  Biso   1.000  C
  C63      1.0000 0.05170  0.81940  0.05510  Biso   1.000  C
  C64      1.0000 0.94830  0.31940  0.44490  Biso   1.000  C
  C65      1.0000 0.03190  0.13120  0.94330  Biso   1.000  C
  C66      1.0000 0.96810  0.63120  0.55670  Biso   1.000  C
  C67      1.0000 0.96810  0.86880  0.05670  Biso   1.000  C
  C68      1.0000 0.03190  0.36880  0.44330  Biso   1.000  C
  H41      1.0000 0.03050  0.06960  0.95110  Biso   1.000  H
  H42      1.0000 0.96950  0.56960  0.54890  Biso   1.000  H
  H43      1.0000 0.96950  0.93040  0.04890  Biso   1.000  H
  H44      1.0000 0.03050  0.43040  0.45110  Biso   1.000  H
  C69      1.0000 0.11730  0.17290  0.93040  Biso   1.000  C
  C70      1.0000 0.88270  0.67290  0.56960  Biso   1.000  C
  C71      1.0000 0.88270  0.82710  0.06960  Biso   1.000  C
  C72      1.0000 0.11730  0.32710  0.43040  Biso   1.000  C
  H45      1.0000 0.17220  0.13870  0.92680  Biso   1.000  H
  H46      1.0000 0.82780  0.63870  0.57320  Biso   1.000  H
  H47      1.0000 0.82780  0.86130  0.07320  Biso   1.000  H
  H48      1.0000 0.17220  0.36130  0.42680  Biso   1.000  H
  C73      1.0000 0.12200  0.26550  0.92280  Biso   1.000  C
  C74      1.0000 0.87800  0.76550  0.57720  Biso   1.000  C
  C75      1.0000 0.87800  0.73450  0.07720  Biso   1.000  C
  C76      1.0000 0.12200  0.23450  0.42280  Biso   1.000  C
  C77      1.0000 0.03760  0.31510  0.92370  Biso   1.000  C
  C78      1.0000 0.96240  0.81510  0.57630  Biso   1.000  C
  C79      1.0000 0.96240  0.68490  0.07630  Biso   1.000  C
  C80      1.0000 0.03760  0.18490  0.42370  Biso   1.000  C
  H49      1.0000 0.03920  0.37690  0.91730  Biso   1.000  H
  H50      1.0000 0.96080  0.87690  0.58270  Biso   1.000  H
  H51      1.0000 0.96080  0.62310  0.08270  Biso   1.000  H
  H52      1.0000 0.03920  0.12310  0.41730  Biso   1.000  H
  C81      1.0000 0.95140  0.27280  0.93400  Biso   1.000  C
  C82      1.0000 0.04860  0.77280  0.56600  Biso   1.000  C
  C83      1.0000 0.04860  0.72720  0.06600  Biso   1.000  C
  C84      1.0000 0.95140  0.22720  0.43400  Biso   1.000  C
  H53      1.0000 0.89530  0.30630  0.93370  Biso   1.000  H
  H54      1.0000 0.10470  0.80630  0.56630  Biso   1.000  H
  H55      1.0000 0.10470  0.69370  0.06630  Biso   1.000  H
  H56      1.0000 0.89530  0.19370  0.43370  Biso   1.000  H
  C85      1.0000 0.21420  0.31090  0.91360  Biso   1.000  C
  C86      1.0000 0.78580  0.81090  0.58640  Biso   1.000  C
  C87      1.0000 0.78580  0.68910  0.08640  Biso   1.000  C
  C88      1.0000 0.21420  0.18910  0.41360  Biso   1.000  C
  C89      1.0000 0.28510  0.26980  0.87060  Biso   1.000  C
  C90      1.0000 0.71490  0.76980  0.62940  Biso   1.000  C
  C91      1.0000 0.71490  0.73020  0.12940  Biso   1.000  C
  C92      1.0000 0.28510  0.23020  0.37060  Biso   1.000  C
  H57      1.0000 0.27560  0.21140  0.84920  Biso   1.000  H
  H58      1.0000 0.72440  0.71140  0.65080  Biso   1.000  H
  H59      1.0000 0.72440  0.78860  0.15080  Biso   1.000  H
  H60      1.0000 0.27560  0.28860  0.34920  Biso   1.000  H
  C93      1.0000 0.38410  0.39610  0.88850  Biso   1.000  C
  C94      1.0000 0.61590  0.89610  0.61150  Biso   1.000  C
  C95      1.0000 0.61590  0.60390  0.11150  Biso   1.000  C
  C96      1.0000 0.38410  0.10390  0.38850  Biso   1.000  C
  H61      1.0000 0.44080  0.42470  0.87810  Biso   1.000  H
  H62      1.0000 0.55920  0.92470  0.62190  Biso   1.000  H
  H63      1.0000 0.55920  0.57530  0.12190  Biso   1.000  H
  H64      1.0000 0.44080  0.07530  0.37810  Biso   1.000  H
  C97      1.0000 0.31810  0.43990  0.93370  Biso   1.000  C
  C98      1.0000 0.68190  0.93990  0.56630  Biso   1.000  C
  C99      1.0000 0.68190  0.56010  0.06630  Biso   1.000  C
  C100     1.0000 0.31810  0.06010  0.43370  Biso   1.000  C
  H65      1.0000 0.32990  0.49810  0.95480  Biso   1.000  H
  H66      1.0000 0.67010  0.99810  0.54520  Biso   1.000  H
  H67      1.0000 0.67010  0.50190  0.04520  Biso   1.000  H
  H68      1.0000 0.32990  0.00190  0.45480  Biso   1.000  H
  C101     1.0000 0.23360  0.39730  0.94810  Biso   1.000  C
  C102     1.0000 0.76640  0.89730  0.55190  Biso   1.000  C
  C103     1.0000 0.76640  0.60270  0.05190  Biso   1.000  C
  C104     1.0000 0.23360  0.10270  0.44810  Biso   1.000  C
  H69      1.0000 0.18940  0.42620  0.98070  Biso   1.000  H
  H70      1.0000 0.81060  0.92620  0.51930  Biso   1.000  H
  H71      1.0000 0.81060  0.57380  0.01930  Biso   1.000  H
  H72      1.0000 0.18940  0.07380  0.48070  Biso   1.000  H
  C105     1.0000 0.44290  0.26240  0.81770  Biso   1.000  C
  C106     1.0000 0.55710  0.76240  0.68230  Biso   1.000  C
  C107     1.0000 0.55710  0.73760  0.18230  Biso   1.000  C
  C108     1.0000 0.44290  0.23760  0.31770  Biso   1.000  C
  H73      1.0000 0.48820  0.30430  0.79610  Biso   1.000  H
  H74      1.0000 0.51180  0.80430  0.70390  Biso   1.000  H
  H75      1.0000 0.51180  0.69570  0.20390  Biso   1.000  H
  H76      1.0000 0.48820  0.19570  0.29610  Biso   1.000  H
  H77      1.0000 0.41350  0.22860  0.76370  Biso   1.000  H
  H78      1.0000 0.58650  0.72860  0.73630  Biso   1.000  H
  H79      1.0000 0.58650  0.77140  0.23630  Biso   1.000  H
  H80      1.0000 0.41350  0.27140  0.26370  Biso   1.000  H
  C109     1.0000 0.49730  0.19840  0.89020  Biso   1.000  C
  C110     1.0000 0.50270  0.69840  0.60980  Biso   1.000  C
  C111     1.0000 0.50270  0.80160  0.10980  Biso   1.000  C
  C112     1.0000 0.49730  0.30160  0.39020  Biso   1.000  C
  O1       1.0000 0.69620  0.00728  0.85841  Biso   1.000  O
  O2       1.0000 0.30380  0.50728  0.64159  Biso   1.000  O
  O3       1.0000 0.30380  0.99272  0.14159  Biso   1.000  O
  O4       1.0000 0.69620  0.49272  0.35841  Biso   1.000  O
  O5       1.0000 0.62645  0.87663  0.88191  Biso   1.000  O
  O6       1.0000 0.37355  0.37663  0.61809  Biso   1.000  O
  O7       1.0000 0.37355  0.12337  0.11809  Biso   1.000  O
  O8       1.0000 0.62645  0.62337  0.38191  Biso   1.000  O
  O9       1.0000 0.42981  0.86363  0.83553  Biso   1.000  O
  O10      1.0000 0.57019  0.36363  0.66447  Biso   1.000  O
  O11      1.0000 0.57019  0.13637  0.16447  Biso   1.000  O
  O12      1.0000 0.42981  0.63637  0.33553  Biso   1.000  O
  O13      1.0000 0.31174  0.82916  0.92159  Biso   1.000  O
  O14      1.0000 0.68826  0.32916  0.57841  Biso   1.000  O
  O15      1.0000 0.68826  0.17084  0.07841  Biso   1.000  O
  O16      1.0000 0.31174  0.67084  0.42159  Biso   1.000  O
  O17      1.0000 0.77706  0.17091  0.92400  Biso   1.000  O
  O18      1.0000 0.22294  0.67091  0.57600  Biso   1.000  O
  O19      1.0000 0.22294  0.82909  0.07600  Biso   1.000  O
  O20      1.0000 0.77706  0.32909  0.42400  Biso   1.000  O
  O21      1.0000 0.85987  0.06767  0.01264  Biso   1.000  O
  O22      1.0000 0.14013  0.56767  0.48736  Biso   1.000  O
  O23      1.0000 0.14013  0.93233  0.98736  Biso   1.000  O
  O24      1.0000 0.85987  0.43233  0.51264  Biso   1.000  O
  O25      1.0000 0.56700  0.16012  0.86229  Biso   1.000  O
  O26      1.0000 0.43300  0.66012  0.63771  Biso   1.000  O
  O27      1.0000 0.43300  0.83988  0.13771  Biso   1.000  O
  O28      1.0000 0.56700  0.33988  0.36229  Biso   1.000  O
  O29      1.0000 0.46676  0.19054  0.96702  Biso   1.000  O
  O30      1.0000 0.53324  0.69054  0.53298  Biso   1.000  O
  O31      1.0000 0.53324  0.80946  0.03298  Biso   1.000  O
  O32      1.0000 0.46676  0.30946  0.46702  Biso   1.000  O
  O33      1.0000 0.59197  0.01126  0.01805  Biso   1.000  O
  O34      1.0000 0.40803  0.51126  0.48195  Biso   1.000  O
  O35      1.0000 0.40803  0.98874  0.98195  Biso   1.000  O
  O36      1.0000 0.59197  0.48874  0.51805  Biso   1.000  O
  H81      1.0000 0.62000  0.98700  0.05100  Biso   1.000  H
  H82      1.0000 0.38000  0.48700  0.44900  Biso   1.000  H
  H83      1.0000 0.38000  0.01300  0.94900  Biso   1.000  H
  H84      1.0000 0.62000  0.51300  0.55100  Biso   1.000  H
  N1       1.0000 0.21062  0.73625  0.78296  Biso   1.000  N
  N2       1.0000 0.78938  0.23625  0.71704  Biso   1.000  N
  N3       1.0000 0.78938  0.26375  0.21704  Biso   1.000  N
  N4       1.0000 0.21062  0.76375  0.28296  Biso   1.000  N
  N5       1.0000 0.36742  0.31209  0.85890  Biso   1.000  N
  N6       1.0000 0.63258  0.81209  0.64110  Biso   1.000  N
  N7       1.0000 0.63258  0.68791  0.14110  Biso   1.000  N
  N8       1.0000 0.36742  0.18791  0.35890  Biso   1.000  N
  O37      1.0000 0.30040  0.64630  0.03210  Biso   1.000  O
  O38      1.0000 0.69960  0.14630  0.46790  Biso   1.000  O
  O39      1.0000 0.69960  0.35370  0.96790  Biso   1.000  O
  O40      1.0000 0.30040  0.85370  0.53210  Biso   1.000  O
  H85      1.0000 0.36220  0.64600  0.03000  Biso   1.000  H
  H86      1.0000 0.63780  0.14600  0.47000  Biso   1.000  H
  H87      1.0000 0.63780  0.35400  0.97000  Biso   1.000  H
  H88      1.0000 0.36220  0.85400  0.53000  Biso   1.000  H
  H89      1.0000 0.28900  0.60600  0.07300  Biso   1.000  H
  H90      1.0000 0.71100  0.10600  0.42700  Biso   1.000  H
  H91      1.0000 0.71100  0.39400  0.92700  Biso   1.000  H
  H92      1.0000 0.28900  0.89400  0.57300  Biso   1.000  H
  O41      1.0000 0.48960  0.04650  0.70670  Biso   1.000  O
  O42      1.0000 0.51040  0.54650  0.79330  Biso   1.000  O
  O43      1.0000 0.51040  0.95350  0.29330  Biso   1.000  O
  O44      1.0000 0.48960  0.45350  0.20670  Biso   1.000  O
  O45      1.0000 0.32080  0.05890  0.80420  Biso   1.000  O
  O46      1.0000 0.67920  0.55890  0.69580  Biso   1.000  O
  O47      1.0000 0.67920  0.94110  0.19580  Biso   1.000  O
  O48      1.0000 0.32080  0.44110  0.30420  Biso   1.000  O
  O49      1.0000 0.54350  0.34830  0.07490  Biso   1.000  O
  O50      1.0000 0.45650  0.84830  0.42510  Biso   1.000  O
  O51      1.0000 0.45650  0.65170  0.92510  Biso   1.000  O
  O52      1.0000 0.54350  0.15170  0.57490  Biso   1.000  O
  Cl1      1.0000 0.15971  0.51777  0.15117  Biso   1.000  Cl
  Cl2      1.0000 0.84029  0.01777  0.34883  Biso   1.000  Cl
  Cl3      1.0000 0.84029  0.48223  0.84883  Biso   1.000  Cl
  Cl4      1.0000 0.15971  0.98223  0.65117  Biso   1.000  Cl
  O53      1.0000 0.25200  0.02420  0.86000  Biso   1.000  O
  O54      1.0000 0.74800  0.52420  0.64000  Biso   1.000  O
  O55      1.0000 0.74800  0.97580  0.14000  Biso   1.000  O
  O56      1.0000 0.25200  0.47580  0.36000  Biso   1.000  O
