data_image0
_cell_length_a       10.74
_cell_length_b       10.9397
_cell_length_c       13.9761
_cell_angle_alpha    83.286
_cell_angle_beta     74.808
_cell_angle_gamma    81.672

_symmetry_space_group_name_H-M    "P 1"
_symmetry_int_tables_number       1

loop_
  _symmetry_equiv_pos_as_xyz
  'x, y, z'

loop_
  _atom_site_label
  _atom_site_occupancy
  _atom_site_fract_x
  _atom_site_fract_y
  _atom_site_fract_z
  _atom_site_thermal_displace_type
  _atom_site_B_iso_or_equiv
  _atom_site_type_symbol
  Cu1      1.0000 0.63839  0.53739  0.14816  Biso   1.000  Cu
  Cu2      1.0000 0.36161  0.46261  0.85184  Biso   1.000  Cu
  Cu3      1.0000 0.48217  0.36669  0.04124  Biso   1.000  Cu
  Cu4      1.0000 0.51783  0.63331  0.95876  Biso   1.000  Cu
  C1       1.0000 0.55040  0.29230  0.22450  Biso   1.000  C
  C2       1.0000 0.44960  0.70770  0.77550  Biso   1.000  C
  C3       1.0000 0.51230  0.23610  0.32980  Biso   1.000  C
  C4       1.0000 0.48770  0.76390  0.67020  Biso   1.000  C
  C5       1.0000 0.57740  0.25690  0.39960  Biso   1.000  C
  C6       1.0000 0.42260  0.74310  0.60040  Biso   1.000  C
  H1       1.0000 0.64880  0.30110  0.37970  Biso   1.000  H
  H2       1.0000 0.35120  0.69890  0.62030  Biso   1.000  H
  C7       1.0000 0.53680  0.21250  0.49780  Biso   1.000  C
  C8       1.0000 0.46320  0.78750  0.50220  Biso   1.000  C
  H3       1.0000 0.58150  0.22650  0.54340  Biso   1.000  H
  H4       1.0000 0.41850  0.77350  0.45660  Biso   1.000  H
  C9       1.0000 0.42900  0.14670  0.52940  Biso   1.000  C
  C10      1.0000 0.57100  0.85330  0.47060  Biso   1.000  C
  C11      1.0000 0.36600  0.12420  0.45880  Biso   1.000  C
  C12      1.0000 0.63400  0.87580  0.54120  Biso   1.000  C
  H5       1.0000 0.29580  0.07830  0.47800  Biso   1.000  H
  H6       1.0000 0.70420  0.92170  0.52200  Biso   1.000  H
  C13      1.0000 0.40680  0.16940  0.36050  Biso   1.000  C
  C14      1.0000 0.59320  0.83060  0.63950  Biso   1.000  C
  H7       1.0000 0.36280  0.15480  0.31460  Biso   1.000  H
  H8       1.0000 0.63720  0.84520  0.68540  Biso   1.000  H
  C15      1.0000 0.38090  0.10100  0.63580  Biso   1.000  C
  C16      1.0000 0.61910  0.89900  0.36420  Biso   1.000  C
  C17      1.0000 0.45530  0.10030  0.70340  Biso   1.000  C
  C18      1.0000 0.54470  0.89970  0.29660  Biso   1.000  C
  H9       1.0000 0.53530  0.13100  0.68220  Biso   1.000  H
  H10      1.0000 0.46470  0.86900  0.31780  Biso   1.000  H
  C19      1.0000 0.30060  0.01050  0.83310  Biso   1.000  C
  C20      1.0000 0.69940  0.98950  0.16690  Biso   1.000  C
  H11      1.0000 0.27540  0.97840  0.89900  Biso   1.000  H
  H12      1.0000 0.72460  0.02160  0.10100  Biso   1.000  H
  C21      1.0000 0.22090  0.01110  0.77040  Biso   1.000  C
  C22      1.0000 0.77910  0.98890  0.22960  Biso   1.000  C
  H13      1.0000 0.14110  0.98040  0.79380  Biso   1.000  H
  H14      1.0000 0.85890  0.01960  0.20620  Biso   1.000  H
  C23      1.0000 0.26030  0.05800  0.67220  Biso   1.000  C
  C24      1.0000 0.73970  0.94200  0.32780  Biso   1.000  C
  H15      1.0000 0.20550  0.06070  0.63020  Biso   1.000  H
  H16      1.0000 0.79450  0.93930  0.36980  Biso   1.000  H
  C25      1.0000 0.49160  0.06760  0.87000  Biso   1.000  C
  C26      1.0000 0.50840  0.93240  0.13000  Biso   1.000  C
  H17      1.0000 0.58340  0.05230  0.83760  Biso   1.000  H
  H18      1.0000 0.41660  0.94770  0.16240  Biso   1.000  H
  H19      1.0000 0.47200  0.00570  0.92560  Biso   1.000  H
  H20      1.0000 0.52800  0.99430  0.07440  Biso   1.000  H
  C27      1.0000 0.46180  0.19660  0.90820  Biso   1.000  C
  C28      1.0000 0.53820  0.80340  0.09180  Biso   1.000  C
  C29      1.0000 0.68190  0.56900  0.31580  Biso   1.000  C
  C30      1.0000 0.31810  0.43100  0.68420  Biso   1.000  C
  C31      1.0000 0.75030  0.58270  0.39450  Biso   1.000  C
  C32      1.0000 0.24970  0.41730  0.60550  Biso   1.000  C
  C33      1.0000 0.86360  0.63920  0.36910  Biso   1.000  C
  C34      1.0000 0.13640  0.36080  0.63090  Biso   1.000  C
  H21      1.0000 0.89990  0.66410  0.30290  Biso   1.000  H
  H22      1.0000 0.10010  0.33590  0.69710  Biso   1.000  H
  C35      1.0000 0.92290  0.65840  0.44260  Biso   1.000  C
  C36      1.0000 0.07710  0.34160  0.55740  Biso   1.000  C
  H23      1.0000 0.99870  0.69640  0.42520  Biso   1.000  H
  H24      1.0000 0.00130  0.30360  0.57480  Biso   1.000  H
  C37      1.0000 0.87010  0.62140  0.54170  Biso   1.000  C
  C38      1.0000 0.12990  0.37860  0.45830  Biso   1.000  C
  C39      1.0000 0.75840  0.56190  0.56630  Biso   1.000  C
  C40      1.0000 0.24160  0.43810  0.43370  Biso   1.000  C
  H25      1.0000 0.72390  0.53380  0.63210  Biso   1.000  H
  H26      1.0000 0.27610  0.46620  0.36790  Biso   1.000  H
  C41      1.0000 0.69820  0.54430  0.49320  Biso   1.000  C
  C42      1.0000 0.30180  0.45570  0.50680  Biso   1.000  C
  H27      1.0000 0.62240  0.50640  0.51060  Biso   1.000  H
  H28      1.0000 0.37760  0.49360  0.48940  Biso   1.000  H
  C43      1.0000 0.93150  0.64840  0.61900  Biso   1.000  C
  C44      1.0000 0.06850  0.35160  0.38100  Biso   1.000  C
  C45      1.0000 0.00980  0.74310  0.60450  Biso   1.000  C
  C46      1.0000 0.99020  0.25690  0.39550  Biso   1.000  C
  H29      1.0000 0.02160  0.79450  0.54570  Biso   1.000  H
  H30      1.0000 0.97840  0.20550  0.45430  Biso   1.000  H
  C47      1.0000 0.07020  0.76130  0.67690  Biso   1.000  C
  C48      1.0000 0.92980  0.23870  0.32310  Biso   1.000  C
  H31      1.0000 0.12330  0.82410  0.66640  Biso   1.000  H
  H32      1.0000 0.87670  0.17590  0.33360  Biso   1.000  H
  C49      1.0000 0.05160  0.68710  0.76370  Biso   1.000  C
  C50      1.0000 0.94840  0.31290  0.23630  Biso   1.000  C
  H33      1.0000 0.09360  0.69780  0.81180  Biso   1.000  H
  H34      1.0000 0.90640  0.30220  0.18820  Biso   1.000  H
  C51      1.0000 0.91400  0.57800  0.71000  Biso   1.000  C
  C52      1.0000 0.08600  0.42200  0.29000  Biso   1.000  C
  H35      1.0000 0.86060  0.51520  0.72330  Biso   1.000  H
  H36      1.0000 0.13940  0.48480  0.27670  Biso   1.000  H
  C53      1.0000 0.95060  0.52060  0.87380  Biso   1.000  C
  C54      1.0000 0.04940  0.47940  0.12620  Biso   1.000  C
  H37      1.0000 0.96500  0.43430  0.85950  Biso   1.000  H
  H38      1.0000 0.03500  0.56570  0.14050  Biso   1.000  H
  H39      1.0000 0.01330  0.53300  0.90960  Biso   1.000  H
  H40      1.0000 0.98670  0.46700  0.09040  Biso   1.000  H
  C55      1.0000 0.81380  0.54770  0.94040  Biso   1.000  C
  C56      1.0000 0.18620  0.45230  0.05960  Biso   1.000  C
  O1       1.0000 0.64470  0.35500  0.20000  Biso   1.000  O
  O2       1.0000 0.35530  0.64500  0.80000  Biso   1.000  O
  O3       1.0000 0.48300  0.27330  0.16780  Biso   1.000  O
  O4       1.0000 0.51700  0.72670  0.83220  Biso   1.000  O
  O5       1.0000 0.51250  0.21010  0.97689  Biso   1.000  O
  O6       1.0000 0.48750  0.78990  0.02311  Biso   1.000  O
  O7       1.0000 0.39250  0.27490  0.86710  Biso   1.000  O
  O8       1.0000 0.60750  0.72510  0.13290  Biso   1.000  O
  O9       1.0000 0.75470  0.55850  0.22777  Biso   1.000  O
  O10      1.0000 0.24530  0.44150  0.77223  Biso   1.000  O
  O11      1.0000 0.56310  0.56880  0.33766  Biso   1.000  O
  O12      1.0000 0.43690  0.43120  0.66234  Biso   1.000  O
  O13      1.0000 0.79560  0.48570  0.02240  Biso   1.000  O
  O14      1.0000 0.20440  0.51430  0.97760  Biso   1.000  O
  O15      1.0000 0.73430  0.62530  0.90874  Biso   1.000  O
  O16      1.0000 0.26570  0.37470  0.09126  Biso   1.000  O
  O17      1.0000 0.49640  0.52810  0.08648  Biso   1.000  O
  O18      1.0000 0.50360  0.47190  0.91352  Biso   1.000  O
  H41      1.0000 0.44800  0.55100  0.11400  Biso   1.000  H
  H42      1.0000 0.55200  0.44900  0.88600  Biso   1.000  H
  N1       1.0000 0.41460  0.05630  0.79910  Biso   1.000  N
  N2       1.0000 0.58540  0.94370  0.20090  Biso   1.000  N
  N3       1.0000 0.97330  0.59940  0.77920  Biso   1.000  N
  N4       1.0000 0.02670  0.40060  0.22080  Biso   1.000  N
  O19      1.0000 0.22250  0.11670  0.07040  Biso   1.000  O
  O20      1.0000 0.77750  0.88330  0.92960  Biso   1.000  O
  O21      1.0000 0.09640  0.24570  0.93290  Biso   1.000  O
  O22      1.0000 0.90360  0.75430  0.06710  Biso   1.000  O
  O23      1.0000 0.25820  0.65080  0.18380  Biso   1.000  O
  O24      1.0000 0.74180  0.34920  0.81620  Biso   1.000  O
  O25      1.0000 0.17520  0.77980  0.00670  Biso   1.000  O
  O26      1.0000 0.82480  0.22020  0.99330  Biso   1.000  O
  O27      1.0000 0.21130  0.02650  0.28520  Biso   1.000  O
  O28      1.0000 0.78870  0.97350  0.71480  Biso   1.000  O
  O29      1.0000 0.22480  0.81730  0.34290  Biso   1.000  O
  O30      1.0000 0.77520  0.18270  0.65710  Biso   1.000  O
  O31      1.0000 0.02730  0.94720  0.39130  Biso   1.000  O
  O32      1.0000 0.97270  0.05280  0.60870  Biso   1.000  O
  O33      1.0000 0.09000  0.89860  0.24620  Biso   1.000  O
  O34      1.0000 0.91000  0.10140  0.75380  Biso   1.000  O
  Cl1      1.0000 0.14422  0.92429  0.32267  Biso   1.000  Cl
  Cl2      1.0000 0.85578  0.07571  0.67733  Biso   1.000  Cl
  O35      1.0000 0.34090  0.62370  0.24750  Biso   1.000  O
  O36      1.0000 0.65910  0.37630  0.75250  Biso   1.000  O
