data_image0
_cell_length_a       13.1126
_cell_length_b       16.1764
_cell_length_c       17.1279
_cell_angle_alpha    90
_cell_angle_beta     123.896
_cell_angle_gamma    90

_symmetry_space_group_name_H-M    "P 1"
_symmetry_int_tables_number       1

loop_
  _symmetry_equiv_pos_as_xyz
  'x, y, z'

loop_
  _atom_site_label
  _atom_site_occupancy
  _atom_site_fract_x
  _atom_site_fract_y
  _atom_site_fract_z
  _atom_site_thermal_displace_type
  _atom_site_B_iso_or_equiv
  _atom_site_type_symbol
  Cu1      1.0000 0.01080  0.25445  0.68951  Biso   1.000  Cu
  Cu2      1.0000 0.98920  0.75445  0.81049  Biso   1.000  Cu
  Cu3      1.0000 0.98920  0.74555  0.31049  Biso   1.000  Cu
  Cu4      1.0000 0.01080  0.24555  0.18951  Biso   1.000  Cu
  N1       1.0000 0.87530  0.19150  0.68480  Biso   1.000  N
  N2       1.0000 0.12470  0.69150  0.81520  Biso   1.000  N
  N3       1.0000 0.12470  0.80850  0.31520  Biso   1.000  N
  N4       1.0000 0.87530  0.30850  0.18480  Biso   1.000  N
  N5       1.0000 0.68800  0.14620  0.62900  Biso   1.000  N
  N6       1.0000 0.31200  0.64620  0.87100  Biso   1.000  N
  N7       1.0000 0.31200  0.85380  0.37100  Biso   1.000  N
  N8       1.0000 0.68800  0.35380  0.12900  Biso   1.000  N
  N9       1.0000 0.13760  0.32360  0.68930  Biso   1.000  N
  N10      1.0000 0.86240  0.82360  0.81070  Biso   1.000  N
  N11      1.0000 0.86240  0.67640  0.31070  Biso   1.000  N
  N12      1.0000 0.13760  0.17640  0.18930  Biso   1.000  N
  N13      1.0000 0.31990  0.37430  0.73440  Biso   1.000  N
  N14      1.0000 0.68010  0.87430  0.76560  Biso   1.000  N
  N15      1.0000 0.68010  0.62570  0.26560  Biso   1.000  N
  N16      1.0000 0.31990  0.12570  0.23440  Biso   1.000  N
  N17      1.0000 0.07580  0.29940  0.81950  Biso   1.000  N
  N18      1.0000 0.92420  0.79940  0.68050  Biso   1.000  N
  N19      1.0000 0.92420  0.70060  0.18050  Biso   1.000  N
  N20      1.0000 0.07580  0.20060  0.31950  Biso   1.000  N
  N21      1.0000 0.17930  0.31080  0.97220  Biso   1.000  N
  N22      1.0000 0.82070  0.81080  0.52780  Biso   1.000  N
  N23      1.0000 0.82070  0.68920  0.02780  Biso   1.000  N
  N24      1.0000 0.17930  0.18920  0.47220  Biso   1.000  N
  N25      1.0000 0.95610  0.20250  0.56550  Biso   1.000  N
  N26      1.0000 0.04390  0.70250  0.93450  Biso   1.000  N
  N27      1.0000 0.04390  0.79750  0.43450  Biso   1.000  N
  N28      1.0000 0.95610  0.29750  0.06550  Biso   1.000  N
  N29      1.0000 0.85260  0.17750  0.41320  Biso   1.000  N
  N30      1.0000 0.14740  0.67750  0.08680  Biso   1.000  N
  N31      1.0000 0.14740  0.82250  0.58680  Biso   1.000  N
  N32      1.0000 0.85260  0.32250  0.91320  Biso   1.000  N
  C1       1.0000 0.88190  0.12630  0.73950  Biso   1.000  C
  C2       1.0000 0.11810  0.62630  0.76050  Biso   1.000  C
  C3       1.0000 0.11810  0.87370  0.26050  Biso   1.000  C
  C4       1.0000 0.88190  0.37370  0.23950  Biso   1.000  C
  H1       1.0000 0.95380  0.10460  0.79120  Biso   1.000  H
  H2       1.0000 0.04620  0.60460  0.70880  Biso   1.000  H
  H3       1.0000 0.04620  0.89540  0.20880  Biso   1.000  H
  H4       1.0000 0.95380  0.39540  0.29120  Biso   1.000  H
  C5       1.0000 0.76830  0.09950  0.70590  Biso   1.000  C
  C6       1.0000 0.23170  0.59950  0.79410  Biso   1.000  C
  C7       1.0000 0.23170  0.90050  0.29410  Biso   1.000  C
  C8       1.0000 0.76830  0.40050  0.20590  Biso   1.000  C
  H5       1.0000 0.74750  0.05650  0.73050  Biso   1.000  H
  H6       1.0000 0.25250  0.55650  0.76950  Biso   1.000  H
  H7       1.0000 0.25250  0.94350  0.26950  Biso   1.000  H
  H8       1.0000 0.74750  0.44350  0.23050  Biso   1.000  H
  C9       1.0000 0.75670  0.20160  0.61940  Biso   1.000  C
  C10      1.0000 0.24330  0.70160  0.88060  Biso   1.000  C
  C11      1.0000 0.24330  0.79840  0.38060  Biso   1.000  C
  C12      1.0000 0.75670  0.29840  0.11940  Biso   1.000  C
  H9       1.0000 0.72510  0.24190  0.57280  Biso   1.000  H
  H10      1.0000 0.27490  0.74190  0.92720  Biso   1.000  H
  H11      1.0000 0.27490  0.75810  0.42720  Biso   1.000  H
  H12      1.0000 0.72510  0.25810  0.07280  Biso   1.000  H
  C13      1.0000 0.55260  0.13920  0.56920  Biso   1.000  C
  C14      1.0000 0.44740  0.63920  0.93080  Biso   1.000  C
  C15      1.0000 0.44740  0.86080  0.43080  Biso   1.000  C
  C16      1.0000 0.55260  0.36080  0.06920  Biso   1.000  C
  H13      1.0000 0.51890  0.18520  0.52660  Biso   1.000  H
  H14      1.0000 0.48110  0.68520  0.97340  Biso   1.000  H
  H15      1.0000 0.48110  0.81480  0.47340  Biso   1.000  H
  H16      1.0000 0.51890  0.31480  0.02660  Biso   1.000  H
  H17      1.0000 0.52120  0.13930  0.60810  Biso   1.000  H
  H18      1.0000 0.47880  0.63930  0.89190  Biso   1.000  H
  H19      1.0000 0.47880  0.86070  0.39190  Biso   1.000  H
  H20      1.0000 0.52120  0.36070  0.10810  Biso   1.000  H
  H21      1.0000 0.52980  0.08860  0.53400  Biso   1.000  H
  H22      1.0000 0.47020  0.58860  0.96600  Biso   1.000  H
  H23      1.0000 0.47020  0.91140  0.46600  Biso   1.000  H
  H24      1.0000 0.52980  0.41140  0.03400  Biso   1.000  H
  C17      1.0000 0.08030  0.37950  0.84230  Biso   1.000  C
  C18      1.0000 0.91970  0.87950  0.65770  Biso   1.000  C
  C19      1.0000 0.91970  0.62050  0.15770  Biso   1.000  C
  C20      1.0000 0.08030  0.12050  0.34230  Biso   1.000  C
  H25      1.0000 0.04450  0.42260  0.79920  Biso   1.000  H
  H26      1.0000 0.95550  0.92260  0.70080  Biso   1.000  H
  H27      1.0000 0.95550  0.57740  0.20080  Biso   1.000  H
  H28      1.0000 0.04450  0.07740  0.29920  Biso   1.000  H
  C21      1.0000 0.14300  0.38820  0.93450  Biso   1.000  C
  C22      1.0000 0.85700  0.88820  0.56550  Biso   1.000  C
  C23      1.0000 0.85700  0.61180  0.06550  Biso   1.000  C
  C24      1.0000 0.14300  0.11180  0.43450  Biso   1.000  C
  H29      1.0000 0.15920  0.43740  0.96750  Biso   1.000  H
  H30      1.0000 0.84080  0.93740  0.53250  Biso   1.000  H
  H31      1.0000 0.84080  0.56260  0.03250  Biso   1.000  H
  H32      1.0000 0.15920  0.06260  0.46750  Biso   1.000  H
  C25      1.0000 0.25160  0.28900  0.07280  Biso   1.000  C
  C26      1.0000 0.74840  0.78900  0.42720  Biso   1.000  C
  C27      1.0000 0.74840  0.71100  0.92720  Biso   1.000  C
  C28      1.0000 0.25160  0.21100  0.57280  Biso   1.000  C
  H33      1.0000 0.20800  0.30600  0.10030  Biso   1.000  H
  H34      1.0000 0.79200  0.80600  0.39970  Biso   1.000  H
  H35      1.0000 0.79200  0.69400  0.89970  Biso   1.000  H
  H36      1.0000 0.20800  0.19400  0.60030  Biso   1.000  H
  H37      1.0000 0.32970  0.31650  0.10420  Biso   1.000  H
  H38      1.0000 0.67030  0.81650  0.39580  Biso   1.000  H
  H39      1.0000 0.67030  0.68350  0.89580  Biso   1.000  H
  H40      1.0000 0.32970  0.18350  0.60420  Biso   1.000  H
  H41      1.0000 0.26410  0.23030  0.07960  Biso   1.000  H
  H42      1.0000 0.73590  0.73030  0.42040  Biso   1.000  H
  H43      1.0000 0.73590  0.76970  0.92040  Biso   1.000  H
  H44      1.0000 0.26410  0.26970  0.57960  Biso   1.000  H
  C29      1.0000 0.13610  0.25930  0.90030  Biso   1.000  C
  C30      1.0000 0.86390  0.75930  0.59970  Biso   1.000  C
  C31      1.0000 0.86390  0.74070  0.09970  Biso   1.000  C
  C32      1.0000 0.13610  0.24070  0.40030  Biso   1.000  C
  H45      1.0000 0.14700  0.20230  0.90600  Biso   1.000  H
  H46      1.0000 0.85300  0.70230  0.59400  Biso   1.000  H
  H47      1.0000 0.85300  0.79770  0.09400  Biso   1.000  H
  H48      1.0000 0.14700  0.29770  0.40600  Biso   1.000  H
  C33      1.0000 0.12220  0.38680  0.63070  Biso   1.000  C
  C34      1.0000 0.87780  0.88680  0.86930  Biso   1.000  C
  C35      1.0000 0.87780  0.61320  0.36930  Biso   1.000  C
  C36      1.0000 0.12220  0.11320  0.13070  Biso   1.000  C
  H49      1.0000 0.04700  0.40620  0.58050  Biso   1.000  H
  H50      1.0000 0.95300  0.90620  0.91950  Biso   1.000  H
  H51      1.0000 0.95300  0.59380  0.41950  Biso   1.000  H
  H52      1.0000 0.04700  0.09380  0.08050  Biso   1.000  H
  C37      1.0000 0.23680  0.41780  0.65770  Biso   1.000  C
  C38      1.0000 0.76320  0.91780  0.84230  Biso   1.000  C
  C39      1.0000 0.76320  0.58220  0.34230  Biso   1.000  C
  C40      1.0000 0.23680  0.08220  0.15770  Biso   1.000  C
  H53      1.0000 0.25240  0.45980  0.62870  Biso   1.000  H
  H54      1.0000 0.74760  0.95980  0.87130  Biso   1.000  H
  H55      1.0000 0.74760  0.54020  0.37130  Biso   1.000  H
  H56      1.0000 0.25240  0.04020  0.12870  Biso   1.000  H
  C41      1.0000 0.25800  0.31920  0.75100  Biso   1.000  C
  C42      1.0000 0.74200  0.81920  0.74900  Biso   1.000  C
  C43      1.0000 0.74200  0.68080  0.24900  Biso   1.000  C
  C44      1.0000 0.25800  0.18080  0.25100  Biso   1.000  C
  H57      1.0000 0.29570  0.28180  0.80070  Biso   1.000  H
  H58      1.0000 0.70430  0.78180  0.69930  Biso   1.000  H
  H59      1.0000 0.70430  0.71820  0.19930  Biso   1.000  H
  H60      1.0000 0.29570  0.21820  0.30070  Biso   1.000  H
  C45      1.0000 0.94820  0.11890  0.55010  Biso   1.000  C
  C46      1.0000 0.05180  0.61890  0.94990  Biso   1.000  C
  C47      1.0000 0.05180  0.88110  0.44990  Biso   1.000  C
  C48      1.0000 0.94820  0.38110  0.05010  Biso   1.000  C
  H61      1.0000 0.98160  0.07870  0.59700  Biso   1.000  H
  H62      1.0000 0.01840  0.57870  0.90300  Biso   1.000  H
  H63      1.0000 0.01840  0.92130  0.40300  Biso   1.000  H
  H64      1.0000 0.98160  0.42130  0.09700  Biso   1.000  H
  C49      1.0000 0.88580  0.10370  0.45830  Biso   1.000  C
  C50      1.0000 0.11420  0.60370  0.04170  Biso   1.000  C
  C51      1.0000 0.11420  0.89630  0.54170  Biso   1.000  C
  C52      1.0000 0.88580  0.39630  0.95830  Biso   1.000  C
  H65      1.0000 0.86810  0.05190  0.43020  Biso   1.000  H
  H66      1.0000 0.13190  0.55190  0.06980  Biso   1.000  H
  H67      1.0000 0.13190  0.94810  0.56980  Biso   1.000  H
  H68      1.0000 0.86810  0.44810  0.93020  Biso   1.000  H
  C53      1.0000 0.89350  0.23620  0.48090  Biso   1.000  C
  C54      1.0000 0.10650  0.73620  0.01910  Biso   1.000  C
  C55      1.0000 0.10650  0.76380  0.51910  Biso   1.000  C
  C56      1.0000 0.89350  0.26380  0.98090  Biso   1.000  C
  H69      1.0000 0.87940  0.29260  0.46930  Biso   1.000  H
  H70      1.0000 0.12060  0.79260  0.03070  Biso   1.000  H
  H71      1.0000 0.12060  0.70740  0.53070  Biso   1.000  H
  H72      1.0000 0.87940  0.20740  0.96930  Biso   1.000  H
  C57      1.0000 0.77710  0.19370  0.31170  Biso   1.000  C
  C58      1.0000 0.22290  0.69370  0.18830  Biso   1.000  C
  C59      1.0000 0.22290  0.80630  0.68830  Biso   1.000  C
  C60      1.0000 0.77710  0.30630  0.81170  Biso   1.000  C
  H73      1.0000 0.79210  0.24900  0.29990  Biso   1.000  H
  H74      1.0000 0.20790  0.74900  0.20010  Biso   1.000  H
  H75      1.0000 0.20790  0.75100  0.70010  Biso   1.000  H
  H76      1.0000 0.79210  0.25100  0.79990  Biso   1.000  H
  H77      1.0000 0.69180  0.18780  0.28840  Biso   1.000  H
  H78      1.0000 0.30820  0.68780  0.21160  Biso   1.000  H
  H79      1.0000 0.30820  0.81220  0.71160  Biso   1.000  H
  H80      1.0000 0.69180  0.31220  0.78840  Biso   1.000  H
  H81      1.0000 0.79800  0.15500  0.28020  Biso   1.000  H
  H82      1.0000 0.20200  0.65500  0.21980  Biso   1.000  H
  H83      1.0000 0.20200  0.84500  0.71980  Biso   1.000  H
  H84      1.0000 0.79800  0.34500  0.78020  Biso   1.000  H
  C61      1.0000 0.44810  0.38420  0.78370  Biso   1.000  C
  C62      1.0000 0.55190  0.88420  0.71630  Biso   1.000  C
  C63      1.0000 0.55190  0.61580  0.21630  Biso   1.000  C
  C64      1.0000 0.44810  0.11580  0.28370  Biso   1.000  C
  H85      1.0000 0.48810  0.34420  0.83340  Biso   1.000  H
  H86      1.0000 0.51190  0.84420  0.66660  Biso   1.000  H
  H87      1.0000 0.51190  0.65580  0.16660  Biso   1.000  H
  H88      1.0000 0.48810  0.15580  0.33340  Biso   1.000  H
  H89      1.0000 0.47030  0.43880  0.80980  Biso   1.000  H
  H90      1.0000 0.52970  0.93880  0.69020  Biso   1.000  H
  H91      1.0000 0.52970  0.56120  0.19020  Biso   1.000  H
  H92      1.0000 0.47030  0.06120  0.30980  Biso   1.000  H
  H93      1.0000 0.47350  0.37630  0.74140  Biso   1.000  H
  H94      1.0000 0.52650  0.87630  0.75860  Biso   1.000  H
  H95      1.0000 0.52650  0.62370  0.25860  Biso   1.000  H
  H96      1.0000 0.47350  0.12370  0.24140  Biso   1.000  H
  Mo1      1.0000 0.44245  0.62124  0.63474  Biso   1.000  Mo
  Mo2      1.0000 0.55755  0.12124  0.86526  Biso   1.000  Mo
  Mo3      1.0000 0.55755  0.37876  0.36526  Biso   1.000  Mo
  Mo4      1.0000 0.44245  0.87876  0.13474  Biso   1.000  Mo
  Mo5      1.0000 0.49568  0.40755  0.55931  Biso   1.000  Mo
  Mo6      1.0000 0.50432  0.90755  0.94069  Biso   1.000  Mo
  Mo7      1.0000 0.50432  0.59245  0.44069  Biso   1.000  Mo
  Mo8      1.0000 0.49568  0.09245  0.05931  Biso   1.000  Mo
  Mo9      1.0000 0.78862  0.45786  0.57315  Biso   1.000  Mo
  Mo10     1.0000 0.21138  0.95786  0.92685  Biso   1.000  Mo
  Mo11     1.0000 0.21138  0.54214  0.42685  Biso   1.000  Mo
  Mo12     1.0000 0.78862  0.04214  0.07315  Biso   1.000  Mo
  Mo13     1.0000 0.73174  0.57113  0.70778  Biso   1.000  Mo
  Mo14     1.0000 0.26826  0.07113  0.79222  Biso   1.000  Mo
  Mo15     1.0000 0.26826  0.42887  0.29222  Biso   1.000  Mo
  Mo16     1.0000 0.73174  0.92887  0.20778  Biso   1.000  Mo
  O1       1.0000 0.76090  0.54800  0.81460  Biso   1.000  O
  O2       1.0000 0.23910  0.04800  0.68540  Biso   1.000  O
  O3       1.0000 0.23910  0.45200  0.18540  Biso   1.000  O
  O4       1.0000 0.76090  0.95200  0.31460  Biso   1.000  O
  O5       1.0000 0.60100  0.38700  0.52540  Biso   1.000  O
  O6       1.0000 0.39900  0.88700  0.97460  Biso   1.000  O
  O7       1.0000 0.39900  0.61300  0.47460  Biso   1.000  O
  O8       1.0000 0.60100  0.11300  0.02540  Biso   1.000  O
  O9       1.0000 0.78770  0.47230  0.68280  Biso   1.000  O
  O10      1.0000 0.21230  0.97230  0.81720  Biso   1.000  O
  O11      1.0000 0.21230  0.52770  0.31720  Biso   1.000  O
  O12      1.0000 0.78770  0.02770  0.18280  Biso   1.000  O
  O13      1.0000 0.59820  0.64800  0.65890  Biso   1.000  O
  O14      1.0000 0.40180  0.14800  0.84110  Biso   1.000  O
  O15      1.0000 0.40180  0.35200  0.34110  Biso   1.000  O
  O16      1.0000 0.59820  0.85200  0.15890  Biso   1.000  O
  O17      1.0000 0.86280  0.36650  0.60190  Biso   1.000  O
  O18      1.0000 0.13720  0.86650  0.89810  Biso   1.000  O
  O19      1.0000 0.13720  0.63350  0.39810  Biso   1.000  O
  O20      1.0000 0.86280  0.13350  0.10190  Biso   1.000  O
  O21      1.0000 0.84360  0.63850  0.72840  Biso   1.000  O
  O22      1.0000 0.15640  0.13850  0.77160  Biso   1.000  O
  O23      1.0000 0.15640  0.36150  0.27160  Biso   1.000  O
  O24      1.0000 0.84360  0.86150  0.22840  Biso   1.000  O
  O25      1.0000 0.31070  0.54780  0.56190  Biso   1.000  O
  O26      1.0000 0.68930  0.04780  0.93810  Biso   1.000  O
  O27      1.0000 0.68930  0.45220  0.43810  Biso   1.000  O
  O28      1.0000 0.31070  0.95220  0.06190  Biso   1.000  O
  O29      1.0000 0.89250  0.52900  0.58640  Biso   1.000  O
  O30      1.0000 0.10750  0.02900  0.91360  Biso   1.000  O
  O31      1.0000 0.10750  0.47100  0.41360  Biso   1.000  O
  O32      1.0000 0.89250  0.97100  0.08640  Biso   1.000  O
  O33      1.0000 0.47310  0.60110  0.74160  Biso   1.000  O
  O34      1.0000 0.52690  0.10110  0.75840  Biso   1.000  O
  O35      1.0000 0.52690  0.39890  0.25840  Biso   1.000  O
  O36      1.0000 0.47310  0.89890  0.24160  Biso   1.000  O
  O37      1.0000 0.34660  0.43210  0.45650  Biso   1.000  O
  O38      1.0000 0.65340  0.93210  0.04350  Biso   1.000  O
  O39      1.0000 0.65340  0.56790  0.54350  Biso   1.000  O
  O40      1.0000 0.34660  0.06790  0.95650  Biso   1.000  O
  O41      1.0000 0.54920  0.49230  0.63860  Biso   1.000  O
  O42      1.0000 0.45080  0.99230  0.86140  Biso   1.000  O
  O43      1.0000 0.45080  0.50770  0.36140  Biso   1.000  O
  O44      1.0000 0.54920  0.00770  0.13860  Biso   1.000  O
  O45      1.0000 0.37510  0.71620  0.60490  Biso   1.000  O
  O46      1.0000 0.62490  0.21620  0.89510  Biso   1.000  O
  O47      1.0000 0.62490  0.28380  0.39510  Biso   1.000  O
  O48      1.0000 0.37510  0.78380  0.10490  Biso   1.000  O
  O49      1.0000 0.48650  0.32290  0.61290  Biso   1.000  O
  O50      1.0000 0.51350  0.82290  0.88710  Biso   1.000  O
  O51      1.0000 0.51350  0.67710  0.38710  Biso   1.000  O
  O52      1.0000 0.48650  0.17710  0.11290  Biso   1.000  O
