data_image0
_cell_length_a       7.0452
_cell_length_b       8.907
_cell_length_c       9.059
_cell_angle_alpha    90
_cell_angle_beta     107.8
_cell_angle_gamma    90

_symmetry_space_group_name_H-M    "P 1"
_symmetry_int_tables_number       1

loop_
  _symmetry_equiv_pos_as_xyz
  'x, y, z'

loop_
  _atom_site_label
  _atom_site_occupancy
  _atom_site_fract_x
  _atom_site_fract_y
  _atom_site_fract_z
  _atom_site_thermal_displace_type
  _atom_site_B_iso_or_equiv
  _atom_site_type_symbol
  Cu1      1.0000 0.00000  0.00000  0.00000  Biso   1.000  Cu
  Cu2      1.0000 0.00000  0.50000  0.50000  Biso   1.000  Cu
  N1       1.0000 0.88906  0.10998  0.79851  Biso   1.000  N
  N2       1.0000 0.11094  0.60998  0.70149  Biso   1.000  N
  N3       1.0000 0.11094  0.89002  0.20149  Biso   1.000  N
  N4       1.0000 0.88906  0.39002  0.29851  Biso   1.000  N
  N5       1.0000 0.72570  0.11299  0.67422  Biso   1.000  N
  N6       1.0000 0.27430  0.61299  0.82578  Biso   1.000  N
  N7       1.0000 0.27430  0.88701  0.32578  Biso   1.000  N
  N8       1.0000 0.72570  0.38701  0.17422  Biso   1.000  N
  N9       1.0000 0.75510  0.20914  0.57445  Biso   1.000  N
  N10      1.0000 0.24490  0.70914  0.92555  Biso   1.000  N
  N11      1.0000 0.24490  0.79086  0.42555  Biso   1.000  N
  N12      1.0000 0.75510  0.29086  0.07445  Biso   1.000  N
  N13      1.0000 0.93860  0.27161  0.63130  Biso   1.000  N
  N14      1.0000 0.06140  0.77161  0.86870  Biso   1.000  N
  N15      1.0000 0.06140  0.72839  0.36870  Biso   1.000  N
  N16      1.0000 0.93860  0.22839  0.13130  Biso   1.000  N
  C1       1.0000 0.01540  0.20769  0.76923  Biso   1.000  C
  C2       1.0000 0.98460  0.70769  0.73077  Biso   1.000  C
  C3       1.0000 0.98460  0.79231  0.23077  Biso   1.000  C
  C4       1.0000 0.01540  0.29231  0.26923  Biso   1.000  C
  C5       1.0000 0.21510  0.22943  0.88657  Biso   1.000  C
  C6       1.0000 0.78490  0.72943  0.61343  Biso   1.000  C
  C7       1.0000 0.78490  0.77057  0.11343  Biso   1.000  C
  C8       1.0000 0.21510  0.27057  0.38657  Biso   1.000  C
  H1       1.0000 0.31600  0.24670  0.83570  Biso   1.000  H
  H2       1.0000 0.68400  0.74670  0.66430  Biso   1.000  H
  H3       1.0000 0.68400  0.75330  0.16430  Biso   1.000  H
  H4       1.0000 0.31600  0.25330  0.33570  Biso   1.000  H
  H5       1.0000 0.21280  0.31490  0.95240  Biso   1.000  H
  H6       1.0000 0.78720  0.81490  0.54760  Biso   1.000  H
  H7       1.0000 0.78720  0.68510  0.04760  Biso   1.000  H
  H8       1.0000 0.21280  0.18510  0.45240  Biso   1.000  H
  N17      1.0000 0.25832  0.08992  0.97929  Biso   1.000  N
  N18      1.0000 0.74168  0.58992  0.52071  Biso   1.000  N
  N19      1.0000 0.74168  0.91008  0.02071  Biso   1.000  N
  N20      1.0000 0.25832  0.41008  0.47929  Biso   1.000  N
  H9       1.0000 0.34250  0.11010  0.07410  Biso   1.000  H
  H10      1.0000 0.65750  0.61010  0.42590  Biso   1.000  H
  H11      1.0000 0.65750  0.88990  0.92590  Biso   1.000  H
  H12      1.0000 0.34250  0.38990  0.57410  Biso   1.000  H
  H13      1.0000 0.31760  0.02310  0.93310  Biso   1.000  H
  H14      1.0000 0.68240  0.52310  0.56690  Biso   1.000  H
  H15      1.0000 0.68240  0.97690  0.06690  Biso   1.000  H
  H16      1.0000 0.31760  0.47690  0.43310  Biso   1.000  H
  O1       1.0000 0.59980  0.04540  0.27623  Biso   1.000  O
  O2       1.0000 0.40020  0.54540  0.22377  Biso   1.000  O
  O3       1.0000 0.40020  0.95460  0.72377  Biso   1.000  O
  O4       1.0000 0.59980  0.45460  0.77623  Biso   1.000  O
  H17      1.0000 0.51600  0.99000  0.30200  Biso   1.000  H
  H18      1.0000 0.48400  0.49000  0.19800  Biso   1.000  H
  H19      1.0000 0.48400  0.01000  0.69800  Biso   1.000  H
  H20      1.0000 0.51600  0.51000  0.80200  Biso   1.000  H
  H21      1.0000 0.64900  0.10800  0.35000  Biso   1.000  H
  H22      1.0000 0.35100  0.60800  0.15000  Biso   1.000  H
  H23      1.0000 0.35100  0.89200  0.65000  Biso   1.000  H
  H24      1.0000 0.64900  0.39200  0.85000  Biso   1.000  H
