data_image0
_cell_length_a       5.22187
_cell_length_b       6.5081
_cell_length_c       9.1165
_cell_angle_alpha    99.0064
_cell_angle_beta     102.448
_cell_angle_gamma    90.2997

_symmetry_space_group_name_H-M    "P 1"
_symmetry_int_tables_number       1

loop_
  _symmetry_equiv_pos_as_xyz
  'x, y, z'

loop_
  _atom_site_label
  _atom_site_occupancy
  _atom_site_fract_x
  _atom_site_fract_y
  _atom_site_fract_z
  _atom_site_thermal_displace_type
  _atom_site_B_iso_or_equiv
  _atom_site_type_symbol
  Cu1      1.0000 0.00000  0.00000  0.00000  Biso   1.000  Cu
  Br1      1.0000 0.01130  0.67410  0.82721  Biso   1.000  Br
  Br2      1.0000 0.98870  0.32590  0.17279  Biso   1.000  Br
  N1       1.0000 0.47010  0.27430  0.68530  Biso   1.000  N
  N2       1.0000 0.52990  0.72570  0.31470  Biso   1.000  N
  N3       1.0000 0.66710  0.20610  0.62140  Biso   1.000  N
  N4       1.0000 0.33290  0.79390  0.37860  Biso   1.000  N
  N5       1.0000 0.85510  0.11260  0.70190  Biso   1.000  N
  N6       1.0000 0.14490  0.88740  0.29810  Biso   1.000  N
  N7       1.0000 0.77470  0.11650  0.82760  Biso   1.000  N
  N8       1.0000 0.22530  0.88350  0.17240  Biso   1.000  N
  C1       1.0000 0.55000  0.21500  0.82020  Biso   1.000  C
  C2       1.0000 0.45000  0.78500  0.17980  Biso   1.000  C
  N9       1.0000 0.38770  0.22560  0.91930  Biso   1.000  N
  N10      1.0000 0.61230  0.77440  0.08070  Biso   1.000  N
  C3       1.0000 0.69000  0.25690  0.47290  Biso   1.000  C
  C4       1.0000 0.31000  0.74310  0.52710  Biso   1.000  C
  H1       1.0000 0.30700  0.34482  0.90462  Biso   1.000  H
  H2       1.0000 0.69300  0.65518  0.09538  Biso   1.000  H
  H3       1.0000 0.50276  0.25817  0.00926  Biso   1.000  H
  H4       1.0000 0.49724  0.74183  0.99074  Biso   1.000  H
  H5       1.0000 0.53613  0.32483  0.42971  Biso   1.000  H
  H6       1.0000 0.46387  0.67517  0.57029  Biso   1.000  H
  H7       1.0000 0.70900  0.13140  0.40589  Biso   1.000  H
  H8       1.0000 0.29100  0.86860  0.59411  Biso   1.000  H
  H9       1.0000 0.84193  0.34817  0.48653  Biso   1.000  H
  H10      1.0000 0.15807  0.65183  0.51347  Biso   1.000  H
