data_image0
_cell_length_a       5.16248
_cell_length_b       6.32103
_cell_length_c       8.9925
_cell_angle_alpha    100.165
_cell_angle_beta     101.454
_cell_angle_gamma    90.4234

_symmetry_space_group_name_H-M    "P 1"
_symmetry_int_tables_number       1

loop_
  _symmetry_equiv_pos_as_xyz
  'x, y, z'

loop_
  _atom_site_label
  _atom_site_occupancy
  _atom_site_fract_x
  _atom_site_fract_y
  _atom_site_fract_z
  _atom_site_thermal_displace_type
  _atom_site_B_iso_or_equiv
  _atom_site_type_symbol
  Cu1      1.0000 0.00000  0.00000  0.00000  Biso   1.000  Cu
  Cl1      1.0000 0.02530  0.68120  0.83460  Biso   1.000  Cl
  Cl2      1.0000 0.97470  0.31880  0.16540  Biso   1.000  Cl
  N1       1.0000 0.46090  0.27890  0.67880  Biso   1.000  N
  N2       1.0000 0.53910  0.72110  0.32120  Biso   1.000  N
  N3       1.0000 0.66530  0.21140  0.61920  Biso   1.000  N
  N4       1.0000 0.33470  0.78860  0.38080  Biso   1.000  N
  N5       1.0000 0.85890  0.12070  0.69380  Biso   1.000  N
  N6       1.0000 0.14110  0.87930  0.30620  Biso   1.000  N
  N7       1.0000 0.75620  0.11940  0.81980  Biso   1.000  N
  N8       1.0000 0.24380  0.88060  0.18020  Biso   1.000  N
  C1       1.0000 0.53170  0.21830  0.81520  Biso   1.000  C
  C2       1.0000 0.46830  0.78170  0.18480  Biso   1.000  C
  N9       1.0000 0.38710  0.22430  0.92890  Biso   1.000  N
  N10      1.0000 0.61290  0.77570  0.07110  Biso   1.000  N
  C3       1.0000 0.70910  0.25760  0.47190  Biso   1.000  C
  C4       1.0000 0.29090  0.74240  0.52810  Biso   1.000  C
  H1       1.0000 0.32285  0.35726  0.93370  Biso   1.000  H
  H2       1.0000 0.67715  0.64274  0.06630  Biso   1.000  H
  H3       1.0000 0.51557  0.23496  0.01409  Biso   1.000  H
  H4       1.0000 0.48443  0.76504  0.98591  Biso   1.000  H
  H5       1.0000 0.55753  0.32454  0.42251  Biso   1.000  H
  H6       1.0000 0.44247  0.67546  0.57749  Biso   1.000  H
  H7       1.0000 0.73579  0.12546  0.40610  Biso   1.000  H
  H8       1.0000 0.26421  0.87454  0.59390  Biso   1.000  H
  H9       1.0000 0.86268  0.35217  0.48962  Biso   1.000  H
  H10      1.0000 0.13732  0.64783  0.51038  Biso   1.000  H
