data_image0
_cell_length_a       6.3704
_cell_length_b       8.4382
_cell_length_c       10.0412
_cell_angle_alpha    90
_cell_angle_beta     104.492
_cell_angle_gamma    90

_symmetry_space_group_name_H-M    "P 1"
_symmetry_int_tables_number       1

loop_
  _symmetry_equiv_pos_as_xyz
  'x, y, z'

loop_
  _atom_site_label
  _atom_site_occupancy
  _atom_site_fract_x
  _atom_site_fract_y
  _atom_site_fract_z
  _atom_site_thermal_displace_type
  _atom_site_B_iso_or_equiv
  _atom_site_type_symbol
  Cu1      1.0000 0.50000  0.00000  0.00000  Biso   1.000  Cu
  Cu2      1.0000 0.50000  0.50000  0.50000  Biso   1.000  Cu
  N1       1.0000 0.19800  0.15580  0.06460  Biso   1.000  N
  N2       1.0000 0.80200  0.65580  0.43540  Biso   1.000  N
  N3       1.0000 0.80200  0.84420  0.93540  Biso   1.000  N
  N4       1.0000 0.19800  0.34420  0.56460  Biso   1.000  N
  O1       1.0000 0.69000  0.11889  0.15024  Biso   1.000  O
  O2       1.0000 0.31000  0.61889  0.34976  Biso   1.000  O
  O3       1.0000 0.31000  0.88111  0.84976  Biso   1.000  O
  O4       1.0000 0.69000  0.38111  0.65024  Biso   1.000  O
  H1       1.0000 0.67100  0.11700  0.22920  Biso   1.000  H
  H2       1.0000 0.32900  0.61700  0.27080  Biso   1.000  H
  H3       1.0000 0.32900  0.88300  0.77080  Biso   1.000  H
  H4       1.0000 0.67100  0.38300  0.72920  Biso   1.000  H
  O5       1.0000 0.54440  0.17730  0.89102  Biso   1.000  O
  O6       1.0000 0.45560  0.67730  0.60898  Biso   1.000  O
  O7       1.0000 0.45560  0.82270  0.10898  Biso   1.000  O
  O8       1.0000 0.54440  0.32270  0.39102  Biso   1.000  O
  O9       1.0000 0.69080  0.41604  0.90365  Biso   1.000  O
  O10      1.0000 0.30920  0.91604  0.59635  Biso   1.000  O
  O11      1.0000 0.30920  0.58396  0.09635  Biso   1.000  O
  O12      1.0000 0.69080  0.08396  0.40365  Biso   1.000  O
  C1       1.0000 0.71400  0.28079  0.11473  Biso   1.000  C
  C2       1.0000 0.28600  0.78079  0.38527  Biso   1.000  C
  C3       1.0000 0.28600  0.71921  0.88527  Biso   1.000  C
  C4       1.0000 0.71400  0.21921  0.61473  Biso   1.000  C
  H5       1.0000 0.61920  0.34730  0.15450  Biso   1.000  H
  H6       1.0000 0.38080  0.84730  0.34550  Biso   1.000  H
  H7       1.0000 0.38080  0.65270  0.84550  Biso   1.000  H
  H8       1.0000 0.61920  0.15270  0.65450  Biso   1.000  H
  C5       1.0000 0.64410  0.29340  0.95748  Biso   1.000  C
  C6       1.0000 0.35590  0.79340  0.54252  Biso   1.000  C
  C7       1.0000 0.35590  0.70660  0.04252  Biso   1.000  C
  C8       1.0000 0.64410  0.20660  0.45748  Biso   1.000  C
  C9       1.0000 0.94910  0.33360  0.17056  Biso   1.000  C
  C10      1.0000 0.05090  0.83360  0.32944  Biso   1.000  C
  C11      1.0000 0.05090  0.66640  0.82944  Biso   1.000  C
  C12      1.0000 0.94910  0.16640  0.67056  Biso   1.000  C
  H9       1.0000 0.96410  0.44330  0.14540  Biso   1.000  H
  H10      1.0000 0.03590  0.94330  0.35460  Biso   1.000  H
  H11      1.0000 0.03590  0.55670  0.85460  Biso   1.000  H
  H12      1.0000 0.96410  0.05670  0.64540  Biso   1.000  H
  H13      1.0000 0.98800  0.32660  0.27010  Biso   1.000  H
  H14      1.0000 0.01200  0.82660  0.22990  Biso   1.000  H
  H15      1.0000 0.01200  0.67340  0.72990  Biso   1.000  H
  H16      1.0000 0.98800  0.17340  0.77010  Biso   1.000  H
  C13      1.0000 0.09500  0.23400  0.11500  Biso   1.000  C
  C14      1.0000 0.90500  0.73400  0.38500  Biso   1.000  C
  C15      1.0000 0.90500  0.76600  0.88500  Biso   1.000  C
  C16      1.0000 0.09500  0.26600  0.61500  Biso   1.000  C
