data_image0
_cell_length_a       11.332
_cell_length_b       13.229
_cell_length_c       18.786
_cell_angle_alpha    90
_cell_angle_beta     92.45
_cell_angle_gamma    90

_symmetry_space_group_name_H-M    "P 1"
_symmetry_int_tables_number       1

loop_
  _symmetry_equiv_pos_as_xyz
  'x, y, z'

loop_
  _atom_site_label
  _atom_site_occupancy
  _atom_site_fract_x
  _atom_site_fract_y
  _atom_site_fract_z
  _atom_site_thermal_displace_type
  _atom_site_B_iso_or_equiv
  _atom_site_type_symbol
  C1       1.0000 0.04700  0.14610  0.58377  Biso   1.000  C
  C2       1.0000 0.95300  0.14610  0.91623  Biso   1.000  C
  C3       1.0000 0.54700  0.64610  0.58377  Biso   1.000  C
  C4       1.0000 0.45300  0.64610  0.91623  Biso   1.000  C
  C5       1.0000 0.95300  0.85390  0.41623  Biso   1.000  C
  C6       1.0000 0.04700  0.85390  0.08377  Biso   1.000  C
  C7       1.0000 0.45300  0.35390  0.41623  Biso   1.000  C
  C8       1.0000 0.54700  0.35390  0.08377  Biso   1.000  C
  H1       1.0000 0.98890  0.11050  0.55290  Biso   1.000  H
  H2       1.0000 0.01110  0.11050  0.94710  Biso   1.000  H
  H3       1.0000 0.48890  0.61050  0.55290  Biso   1.000  H
  H4       1.0000 0.51110  0.61050  0.94710  Biso   1.000  H
  H5       1.0000 0.01110  0.88950  0.44710  Biso   1.000  H
  H6       1.0000 0.98890  0.88950  0.05290  Biso   1.000  H
  H7       1.0000 0.51110  0.38950  0.44710  Biso   1.000  H
  H8       1.0000 0.48890  0.38950  0.05290  Biso   1.000  H
  H9       1.0000 0.00680  0.17900  0.62270  Biso   1.000  H
  H10      1.0000 0.99320  0.17900  0.87730  Biso   1.000  H
  H11      1.0000 0.50680  0.67900  0.62270  Biso   1.000  H
  H12      1.0000 0.49320  0.67900  0.87730  Biso   1.000  H
  H13      1.0000 0.99320  0.82100  0.37730  Biso   1.000  H
  H14      1.0000 0.00680  0.82100  0.12270  Biso   1.000  H
  H15      1.0000 0.49320  0.32100  0.37730  Biso   1.000  H
  H16      1.0000 0.50680  0.32100  0.12270  Biso   1.000  H
  H17      1.0000 0.08730  0.19740  0.55600  Biso   1.000  H
  H18      1.0000 0.91270  0.19740  0.94400  Biso   1.000  H
  H19      1.0000 0.58730  0.69740  0.55600  Biso   1.000  H
  H20      1.0000 0.41270  0.69740  0.94400  Biso   1.000  H
  H21      1.0000 0.91270  0.80260  0.44400  Biso   1.000  H
  H22      1.0000 0.08730  0.80260  0.05600  Biso   1.000  H
  H23      1.0000 0.41270  0.30260  0.44400  Biso   1.000  H
  H24      1.0000 0.58730  0.30260  0.05600  Biso   1.000  H
  C9       1.0000 0.13500  0.07273  0.61369  Biso   1.000  C
  C10      1.0000 0.86500  0.07273  0.88631  Biso   1.000  C
  C11      1.0000 0.63500  0.57273  0.61369  Biso   1.000  C
  C12      1.0000 0.36500  0.57273  0.88631  Biso   1.000  C
  C13      1.0000 0.86500  0.92727  0.38631  Biso   1.000  C
  C14      1.0000 0.13500  0.92727  0.11369  Biso   1.000  C
  C15      1.0000 0.36500  0.42727  0.38631  Biso   1.000  C
  C16      1.0000 0.63500  0.42727  0.11369  Biso   1.000  C
  C17      1.0000 0.24140  0.04235  0.58358  Biso   1.000  C
  C18      1.0000 0.75860  0.04235  0.91642  Biso   1.000  C
  C19      1.0000 0.74140  0.54235  0.58358  Biso   1.000  C
  C20      1.0000 0.25860  0.54235  0.91642  Biso   1.000  C
  C21      1.0000 0.75860  0.95765  0.41642  Biso   1.000  C
  C22      1.0000 0.24140  0.95765  0.08358  Biso   1.000  C
  C23      1.0000 0.25860  0.45765  0.41642  Biso   1.000  C
  C24      1.0000 0.74140  0.45765  0.08358  Biso   1.000  C
  C25      1.0000 0.29390  0.97376  0.63128  Biso   1.000  C
  C26      1.0000 0.70610  0.97376  0.86872  Biso   1.000  C
  C27      1.0000 0.79390  0.47376  0.63128  Biso   1.000  C
  C28      1.0000 0.20610  0.47376  0.86872  Biso   1.000  C
  C29      1.0000 0.70610  0.02624  0.36872  Biso   1.000  C
  C30      1.0000 0.29390  0.02624  0.13128  Biso   1.000  C
  C31      1.0000 0.20610  0.52624  0.36872  Biso   1.000  C
  C32      1.0000 0.79390  0.52624  0.13128  Biso   1.000  C
  C33      1.0000 0.40860  0.91780  0.63074  Biso   1.000  C
  C34      1.0000 0.59140  0.91780  0.86926  Biso   1.000  C
  C35      1.0000 0.90860  0.41780  0.63074  Biso   1.000  C
  C36      1.0000 0.09140  0.41780  0.86926  Biso   1.000  C
  C37      1.0000 0.59140  0.08220  0.36926  Biso   1.000  C
  C38      1.0000 0.40860  0.08220  0.13074  Biso   1.000  C
  C39      1.0000 0.09140  0.58220  0.36926  Biso   1.000  C
  C40      1.0000 0.90860  0.58220  0.13074  Biso   1.000  C
  H25      1.0000 0.46370  0.94620  0.66700  Biso   1.000  H
  H26      1.0000 0.53630  0.94620  0.83300  Biso   1.000  H
  H27      1.0000 0.96370  0.44620  0.66700  Biso   1.000  H
  H28      1.0000 0.03630  0.44620  0.83300  Biso   1.000  H
  H29      1.0000 0.53630  0.05380  0.33300  Biso   1.000  H
  H30      1.0000 0.46370  0.05380  0.16700  Biso   1.000  H
  H31      1.0000 0.03630  0.55380  0.33300  Biso   1.000  H
  H32      1.0000 0.96370  0.55380  0.16700  Biso   1.000  H
  H33      1.0000 0.39500  0.84620  0.64110  Biso   1.000  H
  H34      1.0000 0.60500  0.84620  0.85890  Biso   1.000  H
  H35      1.0000 0.89500  0.34620  0.64110  Biso   1.000  H
  H36      1.0000 0.10500  0.34620  0.85890  Biso   1.000  H
  H37      1.0000 0.60500  0.15380  0.35890  Biso   1.000  H
  H38      1.0000 0.39500  0.15380  0.14110  Biso   1.000  H
  H39      1.0000 0.10500  0.65380  0.35890  Biso   1.000  H
  H40      1.0000 0.89500  0.65380  0.14110  Biso   1.000  H
  H41      1.0000 0.44210  0.92420  0.58370  Biso   1.000  H
  H42      1.0000 0.55790  0.92420  0.91630  Biso   1.000  H
  H43      1.0000 0.94210  0.42420  0.58370  Biso   1.000  H
  H44      1.0000 0.05790  0.42420  0.91630  Biso   1.000  H
  H45      1.0000 0.55790  0.07580  0.41630  Biso   1.000  H
  H46      1.0000 0.44210  0.07580  0.08370  Biso   1.000  H
  H47      1.0000 0.05790  0.57580  0.41630  Biso   1.000  H
  H48      1.0000 0.94210  0.57580  0.08370  Biso   1.000  H
  C41      1.0000 0.05870  0.14112  0.38756  Biso   1.000  C
  C42      1.0000 0.94130  0.14112  0.11244  Biso   1.000  C
  C43      1.0000 0.55870  0.64112  0.38756  Biso   1.000  C
  C44      1.0000 0.44130  0.64112  0.11244  Biso   1.000  C
  C45      1.0000 0.94130  0.85888  0.61244  Biso   1.000  C
  C46      1.0000 0.05870  0.85888  0.88756  Biso   1.000  C
  C47      1.0000 0.44130  0.35888  0.61244  Biso   1.000  C
  C48      1.0000 0.55870  0.35888  0.88756  Biso   1.000  C
  H49      1.0000 0.02360  0.15930  0.34070  Biso   1.000  H
  H50      1.0000 0.97640  0.15930  0.15930  Biso   1.000  H
  H51      1.0000 0.52360  0.65930  0.34070  Biso   1.000  H
  H52      1.0000 0.47640  0.65930  0.15930  Biso   1.000  H
  H53      1.0000 0.97640  0.84070  0.65930  Biso   1.000  H
  H54      1.0000 0.02360  0.84070  0.84070  Biso   1.000  H
  H55      1.0000 0.47640  0.34070  0.65930  Biso   1.000  H
  H56      1.0000 0.52360  0.34070  0.84070  Biso   1.000  H
  H57      1.0000 0.10330  0.19880  0.40740  Biso   1.000  H
  H58      1.0000 0.89670  0.19880  0.09260  Biso   1.000  H
  H59      1.0000 0.60330  0.69880  0.40740  Biso   1.000  H
  H60      1.0000 0.39670  0.69880  0.09260  Biso   1.000  H
  H61      1.0000 0.89670  0.80120  0.59260  Biso   1.000  H
  H62      1.0000 0.10330  0.80120  0.90740  Biso   1.000  H
  H63      1.0000 0.39670  0.30120  0.59260  Biso   1.000  H
  H64      1.0000 0.60330  0.30120  0.90740  Biso   1.000  H
  H65      1.0000 0.99600  0.12300  0.41960  Biso   1.000  H
  H66      1.0000 0.00400  0.12300  0.08040  Biso   1.000  H
  H67      1.0000 0.49600  0.62300  0.41960  Biso   1.000  H
  H68      1.0000 0.50400  0.62300  0.08040  Biso   1.000  H
  H69      1.0000 0.00400  0.87700  0.58040  Biso   1.000  H
  H70      1.0000 0.99600  0.87700  0.91960  Biso   1.000  H
  H71      1.0000 0.50400  0.37700  0.58040  Biso   1.000  H
  H72      1.0000 0.49600  0.37700  0.91960  Biso   1.000  H
  C49      1.0000 0.14010  0.05297  0.37995  Biso   1.000  C
  C50      1.0000 0.85990  0.05297  0.12005  Biso   1.000  C
  C51      1.0000 0.64010  0.55297  0.37995  Biso   1.000  C
  C52      1.0000 0.35990  0.55297  0.12005  Biso   1.000  C
  C53      1.0000 0.85990  0.94703  0.62005  Biso   1.000  C
  C54      1.0000 0.14010  0.94703  0.87995  Biso   1.000  C
  C55      1.0000 0.35990  0.44703  0.62005  Biso   1.000  C
  C56      1.0000 0.64010  0.44703  0.87995  Biso   1.000  C
  C57      1.0000 0.23650  0.02232  0.42508  Biso   1.000  C
  C58      1.0000 0.76350  0.02232  0.07492  Biso   1.000  C
  C59      1.0000 0.73650  0.52232  0.42508  Biso   1.000  C
  C60      1.0000 0.26350  0.52232  0.07492  Biso   1.000  C
  C61      1.0000 0.76350  0.97768  0.57492  Biso   1.000  C
  C62      1.0000 0.23650  0.97768  0.92508  Biso   1.000  C
  C63      1.0000 0.26350  0.47768  0.57492  Biso   1.000  C
  C64      1.0000 0.73650  0.47768  0.92508  Biso   1.000  C
  C65      1.0000 0.27960  0.93500  0.39493  Biso   1.000  C
  C66      1.0000 0.72040  0.93500  0.10507  Biso   1.000  C
  C67      1.0000 0.77960  0.43500  0.39493  Biso   1.000  C
  C68      1.0000 0.22040  0.43500  0.10507  Biso   1.000  C
  C69      1.0000 0.72040  0.06500  0.60507  Biso   1.000  C
  C70      1.0000 0.27960  0.06500  0.89493  Biso   1.000  C
  C71      1.0000 0.22040  0.56500  0.60507  Biso   1.000  C
  C72      1.0000 0.77960  0.56500  0.89493  Biso   1.000  C
  C73      1.0000 0.37870  0.86560  0.41780  Biso   1.000  C
  C74      1.0000 0.62130  0.86560  0.08220  Biso   1.000  C
  C75      1.0000 0.87870  0.36560  0.41780  Biso   1.000  C
  C76      1.0000 0.12130  0.36560  0.08220  Biso   1.000  C
  C77      1.0000 0.62130  0.13440  0.58220  Biso   1.000  C
  C78      1.0000 0.37870  0.13440  0.91780  Biso   1.000  C
  C79      1.0000 0.12130  0.63440  0.58220  Biso   1.000  C
  C80      1.0000 0.87870  0.63440  0.91780  Biso   1.000  C
  H73      1.0000 0.34630  0.80450  0.43920  Biso   1.000  H
  H74      1.0000 0.65370  0.80450  0.06080  Biso   1.000  H
  H75      1.0000 0.84630  0.30450  0.43920  Biso   1.000  H
  H76      1.0000 0.15370  0.30450  0.06080  Biso   1.000  H
  H77      1.0000 0.65370  0.19550  0.56080  Biso   1.000  H
  H78      1.0000 0.34630  0.19550  0.93920  Biso   1.000  H
  H79      1.0000 0.15370  0.69550  0.56080  Biso   1.000  H
  H80      1.0000 0.84630  0.69550  0.93920  Biso   1.000  H
  H81      1.0000 0.43110  0.89990  0.45290  Biso   1.000  H
  H82      1.0000 0.56890  0.89990  0.04710  Biso   1.000  H
  H83      1.0000 0.93110  0.39990  0.45290  Biso   1.000  H
  H84      1.0000 0.06890  0.39990  0.04710  Biso   1.000  H
  H85      1.0000 0.56890  0.10010  0.54710  Biso   1.000  H
  H86      1.0000 0.43110  0.10010  0.95290  Biso   1.000  H
  H87      1.0000 0.06890  0.60010  0.54710  Biso   1.000  H
  H88      1.0000 0.93110  0.60010  0.95290  Biso   1.000  H
  H89      1.0000 0.42340  0.84680  0.37630  Biso   1.000  H
  H90      1.0000 0.57660  0.84680  0.12370  Biso   1.000  H
  H91      1.0000 0.92340  0.34680  0.37630  Biso   1.000  H
  H92      1.0000 0.07660  0.34680  0.12370  Biso   1.000  H
  H93      1.0000 0.57660  0.15320  0.62370  Biso   1.000  H
  H94      1.0000 0.42340  0.15320  0.87630  Biso   1.000  H
  H95      1.0000 0.07660  0.65320  0.62370  Biso   1.000  H
  H96      1.0000 0.92340  0.65320  0.87630  Biso   1.000  H
  N1       1.0000 0.12324  0.02426  0.67573  Biso   1.000  N
  N2       1.0000 0.87676  0.02426  0.82427  Biso   1.000  N
  N3       1.0000 0.62324  0.52426  0.67573  Biso   1.000  N
  N4       1.0000 0.37676  0.52426  0.82427  Biso   1.000  N
  N5       1.0000 0.87676  0.97574  0.32427  Biso   1.000  N
  N6       1.0000 0.12324  0.97574  0.17573  Biso   1.000  N
  N7       1.0000 0.37676  0.47574  0.32427  Biso   1.000  N
  N8       1.0000 0.62324  0.47574  0.17573  Biso   1.000  N
  N9       1.0000 0.22165  0.96508  0.68498  Biso   1.000  N
  N10      1.0000 0.77835  0.96508  0.81502  Biso   1.000  N
  N11      1.0000 0.72165  0.46508  0.68498  Biso   1.000  N
  N12      1.0000 0.27835  0.46508  0.81502  Biso   1.000  N
  N13      1.0000 0.77835  0.03492  0.31502  Biso   1.000  N
  N14      1.0000 0.22165  0.03492  0.18498  Biso   1.000  N
  N15      1.0000 0.27835  0.53492  0.31502  Biso   1.000  N
  N16      1.0000 0.72165  0.53492  0.18498  Biso   1.000  N
  H97      1.0000 0.23560  0.92580  0.72220  Biso   1.000  H
  H98      1.0000 0.76440  0.92580  0.77780  Biso   1.000  H
  H99      1.0000 0.73560  0.42580  0.72220  Biso   1.000  H
  H100     1.0000 0.26440  0.42580  0.77780  Biso   1.000  H
  H101     1.0000 0.76440  0.07420  0.27780  Biso   1.000  H
  H102     1.0000 0.23560  0.07420  0.22220  Biso   1.000  H
  H103     1.0000 0.26440  0.57420  0.27780  Biso   1.000  H
  H104     1.0000 0.73560  0.57420  0.22220  Biso   1.000  H
  N17      1.0000 0.12555  0.98756  0.32624  Biso   1.000  N
  N18      1.0000 0.87445  0.98756  0.17376  Biso   1.000  N
  N19      1.0000 0.62555  0.48756  0.32624  Biso   1.000  N
  N20      1.0000 0.37445  0.48756  0.17376  Biso   1.000  N
  N21      1.0000 0.87445  0.01244  0.67376  Biso   1.000  N
  N22      1.0000 0.12555  0.01244  0.82624  Biso   1.000  N
  N23      1.0000 0.37445  0.51244  0.67376  Biso   1.000  N
  N24      1.0000 0.62555  0.51244  0.82624  Biso   1.000  N
  N25      1.0000 0.21226  0.91640  0.33652  Biso   1.000  N
  N26      1.0000 0.78774  0.91640  0.16348  Biso   1.000  N
  N27      1.0000 0.71226  0.41640  0.33652  Biso   1.000  N
  N28      1.0000 0.28774  0.41640  0.16348  Biso   1.000  N
  N29      1.0000 0.78774  0.08360  0.66348  Biso   1.000  N
  N30      1.0000 0.21226  0.08360  0.83652  Biso   1.000  N
  N31      1.0000 0.28774  0.58360  0.66348  Biso   1.000  N
  N32      1.0000 0.71226  0.58360  0.83652  Biso   1.000  N
  H105     1.0000 0.22230  0.86460  0.30800  Biso   1.000  H
  H106     1.0000 0.77770  0.86460  0.19200  Biso   1.000  H
  H107     1.0000 0.72230  0.36460  0.30800  Biso   1.000  H
  H108     1.0000 0.27770  0.36460  0.19200  Biso   1.000  H
  H109     1.0000 0.77770  0.13540  0.69200  Biso   1.000  H
  H110     1.0000 0.22230  0.13540  0.80800  Biso   1.000  H
  H111     1.0000 0.27770  0.63540  0.69200  Biso   1.000  H
  H112     1.0000 0.72230  0.63540  0.80800  Biso   1.000  H
  O1       1.0000 0.00000  0.80346  0.25000  Biso   1.000  O
  O2       1.0000 0.50000  0.30346  0.25000  Biso   1.000  O
  O3       1.0000 0.00000  0.19654  0.75000  Biso   1.000  O
  O4       1.0000 0.50000  0.69654  0.75000  Biso   1.000  O
  H113     1.0000 0.93750  0.76830  0.26060  Biso   1.000  H
  H114     1.0000 0.06250  0.76830  0.23940  Biso   1.000  H
  H115     1.0000 0.43750  0.26830  0.26060  Biso   1.000  H
  H116     1.0000 0.56250  0.26830  0.23940  Biso   1.000  H
  H117     1.0000 0.06250  0.23170  0.73940  Biso   1.000  H
  H118     1.0000 0.93750  0.23170  0.76060  Biso   1.000  H
  H119     1.0000 0.56250  0.73170  0.73940  Biso   1.000  H
  H120     1.0000 0.43750  0.73170  0.76060  Biso   1.000  H
  Cu1      1.0000 0.00000  0.97038  0.25000  Biso   1.000  Cu
  Cu2      1.0000 0.50000  0.47038  0.25000  Biso   1.000  Cu
  Cu3      1.0000 0.00000  0.02962  0.75000  Biso   1.000  Cu
  Cu4      1.0000 0.50000  0.52962  0.75000  Biso   1.000  Cu
  Se1      1.0000 0.30884  0.09728  0.50139  Biso   1.000  Se
  Se2      1.0000 0.69116  0.09728  0.99861  Biso   1.000  Se
  Se3      1.0000 0.80884  0.59728  0.50139  Biso   1.000  Se
  Se4      1.0000 0.19116  0.59728  0.99861  Biso   1.000  Se
  Se5      1.0000 0.69116  0.90272  0.49861  Biso   1.000  Se
  Se6      1.0000 0.30884  0.90272  0.00139  Biso   1.000  Se
  Se7      1.0000 0.19116  0.40272  0.49861  Biso   1.000  Se
  Se8      1.0000 0.80884  0.40272  0.00139  Biso   1.000  Se
  O5       1.0000 0.50000  0.88070  0.25000  Biso   1.000  O
  O6       1.0000 0.00000  0.38070  0.25000  Biso   1.000  O
  O7       1.0000 0.50000  0.11930  0.75000  Biso   1.000  O
  O8       1.0000 0.00000  0.61930  0.75000  Biso   1.000  O
  H121     1.0000 0.56620  0.84110  0.26190  Biso   1.000  H
  H122     1.0000 0.43380  0.84110  0.23810  Biso   1.000  H
  H123     1.0000 0.06620  0.34110  0.26190  Biso   1.000  H
  H124     1.0000 0.93380  0.34110  0.23810  Biso   1.000  H
  H125     1.0000 0.43380  0.15890  0.73810  Biso   1.000  H
  H126     1.0000 0.56620  0.15890  0.76190  Biso   1.000  H
  H127     1.0000 0.93380  0.65890  0.73810  Biso   1.000  H
  H128     1.0000 0.06620  0.65890  0.76190  Biso   1.000  H
  Cl1      1.0000 0.74358  0.73747  0.26925  Biso   1.000  Cl
  Cl2      1.0000 0.25642  0.73747  0.23075  Biso   1.000  Cl
  Cl3      1.0000 0.24358  0.23747  0.26925  Biso   1.000  Cl
  Cl4      1.0000 0.75642  0.23747  0.23075  Biso   1.000  Cl
  Cl5      1.0000 0.25642  0.26253  0.73075  Biso   1.000  Cl
  Cl6      1.0000 0.74358  0.26253  0.76925  Biso   1.000  Cl
  Cl7      1.0000 0.75642  0.76253  0.73075  Biso   1.000  Cl
  Cl8      1.0000 0.24358  0.76253  0.76925  Biso   1.000  Cl
