data_image0
_cell_length_a       32.0103
_cell_length_b       10.2389
_cell_length_c       19.5533
_cell_angle_alpha    90
_cell_angle_beta     93.8269
_cell_angle_gamma    90

_symmetry_space_group_name_H-M    "P 1"
_symmetry_int_tables_number       1

loop_
  _symmetry_equiv_pos_as_xyz
  'x, y, z'

loop_
  _atom_site_label
  _atom_site_occupancy
  _atom_site_fract_x
  _atom_site_fract_y
  _atom_site_fract_z
  _atom_site_thermal_displace_type
  _atom_site_B_iso_or_equiv
  _atom_site_type_symbol
  W1       1.0000 0.14591  0.67768  0.19749  Biso   1.000  W
  W2       1.0000 0.85409  0.67768  0.30251  Biso   1.000  W
  W3       1.0000 0.64591  0.17768  0.19749  Biso   1.000  W
  W4       1.0000 0.35409  0.17768  0.30251  Biso   1.000  W
  W5       1.0000 0.85409  0.32232  0.80251  Biso   1.000  W
  W6       1.0000 0.14591  0.32232  0.69749  Biso   1.000  W
  W7       1.0000 0.35409  0.82232  0.80251  Biso   1.000  W
  W8       1.0000 0.64591  0.82232  0.69749  Biso   1.000  W
  Cu1      1.0000 0.00000  0.49203  0.25000  Biso   1.000  Cu
  Cu2      1.0000 0.50000  0.99203  0.25000  Biso   1.000  Cu
  Cu3      1.0000 0.00000  0.50797  0.75000  Biso   1.000  Cu
  Cu4      1.0000 0.50000  0.00797  0.75000  Biso   1.000  Cu
  Cu5      1.0000 0.18861  0.17685  0.21356  Biso   1.000  Cu
  Cu6      1.0000 0.81139  0.17685  0.28644  Biso   1.000  Cu
  Cu7      1.0000 0.68861  0.67685  0.21356  Biso   1.000  Cu
  Cu8      1.0000 0.31139  0.67685  0.28644  Biso   1.000  Cu
  Cu9      1.0000 0.81139  0.82315  0.78644  Biso   1.000  Cu
  Cu10     1.0000 0.18861  0.82315  0.71356  Biso   1.000  Cu
  Cu11     1.0000 0.31139  0.32315  0.78644  Biso   1.000  Cu
  Cu12     1.0000 0.68861  0.32315  0.71356  Biso   1.000  Cu
  O1       1.0000 0.00000  0.72930  0.25000  Biso   1.000  O
  O2       1.0000 0.50000  0.22930  0.25000  Biso   1.000  O
  O3       1.0000 0.00000  0.27070  0.75000  Biso   1.000  O
  O4       1.0000 0.50000  0.77070  0.75000  Biso   1.000  O
  N1       1.0000 0.05975  0.51930  0.23372  Biso   1.000  N
  N2       1.0000 0.94025  0.51930  0.26628  Biso   1.000  N
  N3       1.0000 0.55975  0.01930  0.23372  Biso   1.000  N
  N4       1.0000 0.44025  0.01930  0.26628  Biso   1.000  N
  N5       1.0000 0.94025  0.48070  0.76628  Biso   1.000  N
  N6       1.0000 0.05975  0.48070  0.73372  Biso   1.000  N
  N7       1.0000 0.44025  0.98070  0.76628  Biso   1.000  N
  N8       1.0000 0.55975  0.98070  0.73372  Biso   1.000  N
  N9       1.0000 0.17619  0.98530  0.21299  Biso   1.000  N
  N10      1.0000 0.82381  0.98530  0.28701  Biso   1.000  N
  N11      1.0000 0.67619  0.48530  0.21299  Biso   1.000  N
  N12      1.0000 0.32381  0.48530  0.28701  Biso   1.000  N
  N13      1.0000 0.82381  0.01470  0.78701  Biso   1.000  N
  N14      1.0000 0.17619  0.01470  0.71299  Biso   1.000  N
  N15      1.0000 0.32381  0.51470  0.78701  Biso   1.000  N
  N16      1.0000 0.67619  0.51470  0.71299  Biso   1.000  N
  N17      1.0000 0.17679  0.37080  0.21001  Biso   1.000  N
  N18      1.0000 0.82321  0.37080  0.28999  Biso   1.000  N
  N19      1.0000 0.67679  0.87080  0.21001  Biso   1.000  N
  N20      1.0000 0.32321  0.87080  0.28999  Biso   1.000  N
  N21      1.0000 0.82321  0.62920  0.78999  Biso   1.000  N
  N22      1.0000 0.17679  0.62920  0.71001  Biso   1.000  N
  N23      1.0000 0.32321  0.12920  0.78999  Biso   1.000  N
  N24      1.0000 0.67679  0.12920  0.71001  Biso   1.000  N
  N25      1.0000 0.24430  0.68110  0.26064  Biso   1.000  N
  N26      1.0000 0.75570  0.68110  0.23936  Biso   1.000  N
  N27      1.0000 0.74430  0.18110  0.26064  Biso   1.000  N
  N28      1.0000 0.25570  0.18110  0.23936  Biso   1.000  N
  N29      1.0000 0.75570  0.31890  0.73936  Biso   1.000  N
  N30      1.0000 0.24430  0.31890  0.76064  Biso   1.000  N
  N31      1.0000 0.25570  0.81890  0.73936  Biso   1.000  N
  N32      1.0000 0.74430  0.81890  0.76064  Biso   1.000  N
  N33      1.0000 0.10782  0.52210  0.05920  Biso   1.000  N
  N34      1.0000 0.89218  0.52210  0.44080  Biso   1.000  N
  N35      1.0000 0.60782  0.02210  0.05920  Biso   1.000  N
  N36      1.0000 0.39218  0.02210  0.44080  Biso   1.000  N
  N37      1.0000 0.89218  0.47790  0.94080  Biso   1.000  N
  N38      1.0000 0.10782  0.47790  0.55920  Biso   1.000  N
  N39      1.0000 0.39218  0.97790  0.94080  Biso   1.000  N
  N40      1.0000 0.60782  0.97790  0.55920  Biso   1.000  N
  N41      1.0000 0.06447  0.86320  0.15500  Biso   1.000  N
  N42      1.0000 0.93553  0.86320  0.34500  Biso   1.000  N
  N43      1.0000 0.56447  0.36320  0.15500  Biso   1.000  N
  N44      1.0000 0.43553  0.36320  0.34500  Biso   1.000  N
  N45      1.0000 0.93553  0.13680  0.84500  Biso   1.000  N
  N46      1.0000 0.06447  0.13680  0.65500  Biso   1.000  N
  N47      1.0000 0.43553  0.63680  0.84500  Biso   1.000  N
  N48      1.0000 0.56447  0.63680  0.65500  Biso   1.000  N
  N49      1.0000 0.13445  0.71070  0.36327  Biso   1.000  N
  N50      1.0000 0.86555  0.71070  0.13673  Biso   1.000  N
  N51      1.0000 0.63445  0.21070  0.36327  Biso   1.000  N
  N52      1.0000 0.36555  0.21070  0.13673  Biso   1.000  N
  N53      1.0000 0.86555  0.28930  0.63673  Biso   1.000  N
  N54      1.0000 0.13445  0.28930  0.86327  Biso   1.000  N
  N55      1.0000 0.36555  0.78930  0.63673  Biso   1.000  N
  N56      1.0000 0.63445  0.78930  0.86327  Biso   1.000  N
  N57      1.0000 0.19927  0.75900  0.06671  Biso   1.000  N
  N58      1.0000 0.80073  0.75900  0.43329  Biso   1.000  N
  N59      1.0000 0.69927  0.25900  0.06671  Biso   1.000  N
  N60      1.0000 0.30073  0.25900  0.43329  Biso   1.000  N
  N61      1.0000 0.80073  0.24100  0.93329  Biso   1.000  N
  N62      1.0000 0.19927  0.24100  0.56671  Biso   1.000  N
  N63      1.0000 0.30073  0.74100  0.93329  Biso   1.000  N
  N64      1.0000 0.69927  0.74100  0.56671  Biso   1.000  N
  N65      1.0000 0.01423  0.45240  0.34652  Biso   1.000  N
  N66      1.0000 0.98577  0.45240  0.15348  Biso   1.000  N
  N67      1.0000 0.51423  0.95240  0.34652  Biso   1.000  N
  N68      1.0000 0.48577  0.95240  0.15348  Biso   1.000  N
  N69      1.0000 0.98577  0.54760  0.65348  Biso   1.000  N
  N70      1.0000 0.01423  0.54760  0.84652  Biso   1.000  N
  N71      1.0000 0.48577  0.04760  0.65348  Biso   1.000  N
  N72      1.0000 0.51423  0.04760  0.84652  Biso   1.000  N
  N73      1.0000 0.04890  0.45830  0.44710  Biso   1.000  N
  N74      1.0000 0.95110  0.45830  0.05290  Biso   1.000  N
  N75      1.0000 0.54890  0.95830  0.44710  Biso   1.000  N
  N76      1.0000 0.45110  0.95830  0.05290  Biso   1.000  N
  N77      1.0000 0.95110  0.54170  0.55290  Biso   1.000  N
  N78      1.0000 0.04890  0.54170  0.94710  Biso   1.000  N
  N79      1.0000 0.45110  0.04170  0.55290  Biso   1.000  N
  N80      1.0000 0.54890  0.04170  0.94710  Biso   1.000  N
  N81      1.0000 0.17406  0.17760  0.31062  Biso   1.000  N
  N82      1.0000 0.82594  0.17760  0.18938  Biso   1.000  N
  N83      1.0000 0.67406  0.67760  0.31062  Biso   1.000  N
  N84      1.0000 0.32594  0.67760  0.18938  Biso   1.000  N
  N85      1.0000 0.82594  0.82240  0.68938  Biso   1.000  N
  N86      1.0000 0.17406  0.82240  0.81062  Biso   1.000  N
  N87      1.0000 0.32594  0.32240  0.68938  Biso   1.000  N
  N88      1.0000 0.67406  0.32240  0.81062  Biso   1.000  N
  N89      1.0000 0.17738  0.19690  0.42290  Biso   1.000  N
  N90      1.0000 0.82262  0.19690  0.07710  Biso   1.000  N
  N91      1.0000 0.67738  0.69690  0.42290  Biso   1.000  N
  N92      1.0000 0.32262  0.69690  0.07710  Biso   1.000  N
  N93      1.0000 0.82262  0.80310  0.57710  Biso   1.000  N
  N94      1.0000 0.17738  0.80310  0.92290  Biso   1.000  N
  N95      1.0000 0.32262  0.30310  0.57710  Biso   1.000  N
  N96      1.0000 0.67738  0.30310  0.92290  Biso   1.000  N
  N97      1.0000 0.18846  0.17560  0.11163  Biso   1.000  N
  N98      1.0000 0.81154  0.17560  0.38837  Biso   1.000  N
  N99      1.0000 0.68846  0.67560  0.11163  Biso   1.000  N
  N100     1.0000 0.31154  0.67560  0.38837  Biso   1.000  N
  N101     1.0000 0.81154  0.82440  0.88837  Biso   1.000  N
  N102     1.0000 0.18846  0.82440  0.61163  Biso   1.000  N
  N103     1.0000 0.31154  0.32440  0.88837  Biso   1.000  N
  N104     1.0000 0.68846  0.32440  0.61163  Biso   1.000  N
  N105     1.0000 0.16506  0.21260  0.00448  Biso   1.000  N
  N106     1.0000 0.83494  0.21260  0.49552  Biso   1.000  N
  N107     1.0000 0.66506  0.71260  0.00448  Biso   1.000  N
  N108     1.0000 0.33494  0.71260  0.49552  Biso   1.000  N
  N109     1.0000 0.83494  0.78740  0.99552  Biso   1.000  N
  N110     1.0000 0.16506  0.78740  0.50448  Biso   1.000  N
  N111     1.0000 0.33494  0.28740  0.99552  Biso   1.000  N
  N112     1.0000 0.66506  0.28740  0.50448  Biso   1.000  N
  C1       1.0000 0.09067  0.57040  0.22258  Biso   1.000  C
  C2       1.0000 0.90933  0.57040  0.27742  Biso   1.000  C
  C3       1.0000 0.59067  0.07040  0.22258  Biso   1.000  C
  C4       1.0000 0.40933  0.07040  0.27742  Biso   1.000  C
  C5       1.0000 0.90933  0.42960  0.77742  Biso   1.000  C
  C6       1.0000 0.09067  0.42960  0.72258  Biso   1.000  C
  C7       1.0000 0.40933  0.92960  0.77742  Biso   1.000  C
  C8       1.0000 0.59067  0.92960  0.72258  Biso   1.000  C
  C9       1.0000 0.16532  0.88010  0.21138  Biso   1.000  C
  C10      1.0000 0.83468  0.88010  0.28862  Biso   1.000  C
  C11      1.0000 0.66532  0.38010  0.21138  Biso   1.000  C
  C12      1.0000 0.33468  0.38010  0.28862  Biso   1.000  C
  C13      1.0000 0.83468  0.11990  0.78862  Biso   1.000  C
  C14      1.0000 0.16532  0.11990  0.71138  Biso   1.000  C
  C15      1.0000 0.33468  0.61990  0.78862  Biso   1.000  C
  C16      1.0000 0.66532  0.61990  0.71138  Biso   1.000  C
  C17      1.0000 0.16736  0.47790  0.20814  Biso   1.000  C
  C18      1.0000 0.83264  0.47790  0.29186  Biso   1.000  C
  C19      1.0000 0.66736  0.97790  0.20814  Biso   1.000  C
  C20      1.0000 0.33264  0.97790  0.29186  Biso   1.000  C
  C21      1.0000 0.83264  0.52210  0.79186  Biso   1.000  C
  C22      1.0000 0.16736  0.52210  0.70814  Biso   1.000  C
  C23      1.0000 0.33264  0.02210  0.79186  Biso   1.000  C
  C24      1.0000 0.66736  0.02210  0.70814  Biso   1.000  C
  C25      1.0000 0.21022  0.68050  0.23960  Biso   1.000  C
  C26      1.0000 0.78978  0.68050  0.26040  Biso   1.000  C
  C27      1.0000 0.71022  0.18050  0.23960  Biso   1.000  C
  C28      1.0000 0.28978  0.18050  0.26040  Biso   1.000  C
  C29      1.0000 0.78978  0.31950  0.76040  Biso   1.000  C
  C30      1.0000 0.21022  0.31950  0.73960  Biso   1.000  C
  C31      1.0000 0.28978  0.81950  0.76040  Biso   1.000  C
  C32      1.0000 0.71022  0.81950  0.73960  Biso   1.000  C
  C33      1.0000 0.12014  0.57900  0.10620  Biso   1.000  C
  C34      1.0000 0.87986  0.57900  0.39380  Biso   1.000  C
  C35      1.0000 0.62014  0.07900  0.10620  Biso   1.000  C
  C36      1.0000 0.37986  0.07900  0.39380  Biso   1.000  C
  C37      1.0000 0.87986  0.42100  0.89380  Biso   1.000  C
  C38      1.0000 0.12014  0.42100  0.60620  Biso   1.000  C
  C39      1.0000 0.37986  0.92100  0.89380  Biso   1.000  C
  C40      1.0000 0.62014  0.92100  0.60620  Biso   1.000  C
  C41      1.0000 0.09391  0.80200  0.16760  Biso   1.000  C
  C42      1.0000 0.90609  0.80200  0.33240  Biso   1.000  C
  C43      1.0000 0.59391  0.30200  0.16760  Biso   1.000  C
  C44      1.0000 0.40609  0.30200  0.33240  Biso   1.000  C
  C45      1.0000 0.90609  0.19800  0.83240  Biso   1.000  C
  C46      1.0000 0.09391  0.19800  0.66760  Biso   1.000  C
  C47      1.0000 0.40609  0.69800  0.83240  Biso   1.000  C
  C48      1.0000 0.59391  0.69800  0.66760  Biso   1.000  C
  C49      1.0000 0.13846  0.70190  0.30600  Biso   1.000  C
  C50      1.0000 0.86154  0.70190  0.19400  Biso   1.000  C
  C51      1.0000 0.63846  0.20190  0.30600  Biso   1.000  C
  C52      1.0000 0.36154  0.20190  0.19400  Biso   1.000  C
  C53      1.0000 0.86154  0.29810  0.69400  Biso   1.000  C
  C54      1.0000 0.13846  0.29810  0.80600  Biso   1.000  C
  C55      1.0000 0.36154  0.79810  0.69400  Biso   1.000  C
  C56      1.0000 0.63846  0.79810  0.80600  Biso   1.000  C
  C57      1.0000 0.18115  0.72920  0.11189  Biso   1.000  C
  C58      1.0000 0.81885  0.72920  0.38811  Biso   1.000  C
  C59      1.0000 0.68115  0.22920  0.11189  Biso   1.000  C
  C60      1.0000 0.31885  0.22920  0.38811  Biso   1.000  C
  C61      1.0000 0.81885  0.27080  0.88811  Biso   1.000  C
  C62      1.0000 0.18115  0.27080  0.61189  Biso   1.000  C
  C63      1.0000 0.31885  0.77080  0.88811  Biso   1.000  C
  C64      1.0000 0.68115  0.77080  0.61189  Biso   1.000  C
  C65      1.0000 0.04547  0.50480  0.38370  Biso   1.000  C
  C66      1.0000 0.95453  0.50480  0.11630  Biso   1.000  C
  C67      1.0000 0.54547  0.00480  0.38370  Biso   1.000  C
  C68      1.0000 0.45453  0.00480  0.11630  Biso   1.000  C
  C69      1.0000 0.95453  0.49520  0.61630  Biso   1.000  C
  C70      1.0000 0.04547  0.49520  0.88370  Biso   1.000  C
  C71      1.0000 0.45453  0.99520  0.61630  Biso   1.000  C
  C72      1.0000 0.54547  0.99520  0.88370  Biso   1.000  C
  C73      1.0000 0.99579  0.36190  0.38830  Biso   1.000  C
  C74      1.0000 0.00421  0.36190  0.11170  Biso   1.000  C
  C75      1.0000 0.49579  0.86190  0.38830  Biso   1.000  C
  C76      1.0000 0.50421  0.86190  0.11170  Biso   1.000  C
  C77      1.0000 0.00421  0.63810  0.61170  Biso   1.000  C
  C78      1.0000 0.99579  0.63810  0.88830  Biso   1.000  C
  C79      1.0000 0.50421  0.13810  0.61170  Biso   1.000  C
  C80      1.0000 0.49579  0.13810  0.88830  Biso   1.000  C
  C81      1.0000 0.96399  0.27330  0.37410  Biso   1.000  C
  C82      1.0000 0.03601  0.27330  0.12590  Biso   1.000  C
  C83      1.0000 0.46399  0.77330  0.37410  Biso   1.000  C
  C84      1.0000 0.53601  0.77330  0.12590  Biso   1.000  C
  C85      1.0000 0.03601  0.72670  0.62590  Biso   1.000  C
  C86      1.0000 0.96399  0.72670  0.87410  Biso   1.000  C
  C87      1.0000 0.53601  0.22670  0.62590  Biso   1.000  C
  C88      1.0000 0.46399  0.22670  0.87410  Biso   1.000  C
  C89      1.0000 0.95380  0.19360  0.42810  Biso   1.000  C
  C90      1.0000 0.04620  0.19360  0.07190  Biso   1.000  C
  C91      1.0000 0.45380  0.69360  0.42810  Biso   1.000  C
  C92      1.0000 0.54620  0.69360  0.07190  Biso   1.000  C
  C93      1.0000 0.04620  0.80640  0.57190  Biso   1.000  C
  C94      1.0000 0.95380  0.80640  0.92810  Biso   1.000  C
  C95      1.0000 0.54620  0.30640  0.57190  Biso   1.000  C
  C96      1.0000 0.45380  0.30640  0.92810  Biso   1.000  C
  C97      1.0000 0.97630  0.20260  0.49400  Biso   1.000  C
  C98      1.0000 0.02370  0.20260  0.00600  Biso   1.000  C
  C99      1.0000 0.47630  0.70260  0.49400  Biso   1.000  C
  C100     1.0000 0.52370  0.70260  0.00600  Biso   1.000  C
  C101     1.0000 0.02370  0.79740  0.50600  Biso   1.000  C
  C102     1.0000 0.97630  0.79740  0.99400  Biso   1.000  C
  C103     1.0000 0.52370  0.29740  0.50600  Biso   1.000  C
  C104     1.0000 0.47630  0.29740  0.99400  Biso   1.000  C
  C105     1.0000 0.00730  0.28740  0.50650  Biso   1.000  C
  C106     1.0000 0.99270  0.28740  0.99350  Biso   1.000  C
  C107     1.0000 0.50730  0.78740  0.50650  Biso   1.000  C
  C108     1.0000 0.49270  0.78740  0.99350  Biso   1.000  C
  C109     1.0000 0.99270  0.71260  0.49350  Biso   1.000  C
  C110     1.0000 0.00730  0.71260  0.00650  Biso   1.000  C
  C111     1.0000 0.49270  0.21260  0.49350  Biso   1.000  C
  C112     1.0000 0.50730  0.21260  0.00650  Biso   1.000  C
  C113     1.0000 0.01723  0.36570  0.45230  Biso   1.000  C
  C114     1.0000 0.98277  0.36570  0.04770  Biso   1.000  C
  C115     1.0000 0.51723  0.86570  0.45230  Biso   1.000  C
  C116     1.0000 0.48277  0.86570  0.04770  Biso   1.000  C
  C117     1.0000 0.98277  0.63430  0.54770  Biso   1.000  C
  C118     1.0000 0.01723  0.63430  0.95230  Biso   1.000  C
  C119     1.0000 0.48277  0.13430  0.54770  Biso   1.000  C
  C120     1.0000 0.51723  0.13430  0.95230  Biso   1.000  C
  C121     1.0000 0.19871  0.21020  0.36530  Biso   1.000  C
  C122     1.0000 0.80129  0.21020  0.13470  Biso   1.000  C
  C123     1.0000 0.69871  0.71020  0.36530  Biso   1.000  C
  C124     1.0000 0.30129  0.71020  0.13470  Biso   1.000  C
  C125     1.0000 0.80129  0.78980  0.63470  Biso   1.000  C
  C126     1.0000 0.19871  0.78980  0.86530  Biso   1.000  C
  C127     1.0000 0.30129  0.28980  0.63470  Biso   1.000  C
  C128     1.0000 0.69871  0.28980  0.86530  Biso   1.000  C
  C129     1.0000 0.13574  0.14280  0.33410  Biso   1.000  C
  C130     1.0000 0.86426  0.14280  0.16590  Biso   1.000  C
  C131     1.0000 0.63574  0.64280  0.33410  Biso   1.000  C
  C132     1.0000 0.36426  0.64280  0.16590  Biso   1.000  C
  C133     1.0000 0.86426  0.85720  0.66590  Biso   1.000  C
  C134     1.0000 0.13574  0.85720  0.83410  Biso   1.000  C
  C135     1.0000 0.36426  0.35720  0.66590  Biso   1.000  C
  C136     1.0000 0.63574  0.35720  0.83410  Biso   1.000  C
  C137     1.0000 0.09927  0.10100  0.29880  Biso   1.000  C
  C138     1.0000 0.90073  0.10100  0.20120  Biso   1.000  C
  C139     1.0000 0.59927  0.60100  0.29880  Biso   1.000  C
  C140     1.0000 0.40073  0.60100  0.20120  Biso   1.000  C
  C141     1.0000 0.90073  0.89900  0.70120  Biso   1.000  C
  C142     1.0000 0.09927  0.89900  0.79880  Biso   1.000  C
  C143     1.0000 0.40073  0.39900  0.70120  Biso   1.000  C
  C144     1.0000 0.59927  0.39900  0.79880  Biso   1.000  C
  C145     1.0000 0.06500  0.07300  0.33750  Biso   1.000  C
  C146     1.0000 0.93500  0.07300  0.16250  Biso   1.000  C
  C147     1.0000 0.56500  0.57300  0.33750  Biso   1.000  C
  C148     1.0000 0.43500  0.57300  0.16250  Biso   1.000  C
  C149     1.0000 0.93500  0.92700  0.66250  Biso   1.000  C
  C150     1.0000 0.06500  0.92700  0.83750  Biso   1.000  C
  C151     1.0000 0.43500  0.42700  0.66250  Biso   1.000  C
  C152     1.0000 0.56500  0.42700  0.83750  Biso   1.000  C
  C153     1.0000 0.06800  0.08580  0.40670  Biso   1.000  C
  C154     1.0000 0.93200  0.08580  0.09330  Biso   1.000  C
  C155     1.0000 0.56800  0.58580  0.40670  Biso   1.000  C
  C156     1.0000 0.43200  0.58580  0.09330  Biso   1.000  C
  C157     1.0000 0.93200  0.91420  0.59330  Biso   1.000  C
  C158     1.0000 0.06800  0.91420  0.90670  Biso   1.000  C
  C159     1.0000 0.43200  0.41420  0.59330  Biso   1.000  C
  C160     1.0000 0.56800  0.41420  0.90670  Biso   1.000  C
  C161     1.0000 0.10330  0.12430  0.44330  Biso   1.000  C
  C162     1.0000 0.89670  0.12430  0.05670  Biso   1.000  C
  C163     1.0000 0.60330  0.62430  0.44330  Biso   1.000  C
  C164     1.0000 0.39670  0.62430  0.05670  Biso   1.000  C
  C165     1.0000 0.89670  0.87570  0.55670  Biso   1.000  C
  C166     1.0000 0.10330  0.87570  0.94330  Biso   1.000  C
  C167     1.0000 0.39670  0.37570  0.55670  Biso   1.000  C
  C168     1.0000 0.60330  0.37570  0.94330  Biso   1.000  C
  C169     1.0000 0.13850  0.15370  0.40530  Biso   1.000  C
  C170     1.0000 0.86150  0.15370  0.09470  Biso   1.000  C
  C171     1.0000 0.63850  0.65370  0.40530  Biso   1.000  C
  C172     1.0000 0.36150  0.65370  0.09470  Biso   1.000  C
  C173     1.0000 0.86150  0.84630  0.59470  Biso   1.000  C
  C174     1.0000 0.13850  0.84630  0.90530  Biso   1.000  C
  C175     1.0000 0.36150  0.34630  0.59470  Biso   1.000  C
  C176     1.0000 0.63850  0.34630  0.90530  Biso   1.000  C
  C177     1.0000 0.15930  0.23070  0.07040  Biso   1.000  C
  C178     1.0000 0.84070  0.23070  0.42960  Biso   1.000  C
  C179     1.0000 0.65930  0.73070  0.07040  Biso   1.000  C
  C180     1.0000 0.34070  0.73070  0.42960  Biso   1.000  C
  C181     1.0000 0.84070  0.76930  0.92960  Biso   1.000  C
  C182     1.0000 0.15930  0.76930  0.57040  Biso   1.000  C
  C183     1.0000 0.34070  0.26930  0.92960  Biso   1.000  C
  C184     1.0000 0.65930  0.26930  0.57040  Biso   1.000  C
  C185     1.0000 0.21615  0.11840  0.06830  Biso   1.000  C
  C186     1.0000 0.78385  0.11840  0.43170  Biso   1.000  C
  C187     1.0000 0.71615  0.61840  0.06830  Biso   1.000  C
  C188     1.0000 0.28385  0.61840  0.43170  Biso   1.000  C
  C189     1.0000 0.78385  0.88160  0.93170  Biso   1.000  C
  C190     1.0000 0.21615  0.88160  0.56830  Biso   1.000  C
  C191     1.0000 0.28385  0.38160  0.93170  Biso   1.000  C
  C192     1.0000 0.71615  0.38160  0.56830  Biso   1.000  C
  C193     1.0000 0.25409  0.05240  0.08200  Biso   1.000  C
  C194     1.0000 0.74591  0.05240  0.41800  Biso   1.000  C
  C195     1.0000 0.75409  0.55240  0.08200  Biso   1.000  C
  C196     1.0000 0.24591  0.55240  0.41800  Biso   1.000  C
  C197     1.0000 0.74591  0.94760  0.91800  Biso   1.000  C
  C198     1.0000 0.25409  0.94760  0.58200  Biso   1.000  C
  C199     1.0000 0.24591  0.44760  0.91800  Biso   1.000  C
  C200     1.0000 0.75409  0.44760  0.58200  Biso   1.000  C
  C201     1.0000 0.27512  0.01590  0.02660  Biso   1.000  C
  C202     1.0000 0.72488  0.01590  0.47340  Biso   1.000  C
  C203     1.0000 0.77512  0.51590  0.02660  Biso   1.000  C
  C204     1.0000 0.22488  0.51590  0.47340  Biso   1.000  C
  C205     1.0000 0.72488  0.98410  0.97340  Biso   1.000  C
  C206     1.0000 0.27512  0.98410  0.52660  Biso   1.000  C
  C207     1.0000 0.22488  0.48410  0.97340  Biso   1.000  C
  C208     1.0000 0.77512  0.48410  0.52660  Biso   1.000  C
  C209     1.0000 0.26010  0.04140  0.95930  Biso   1.000  C
  C210     1.0000 0.73990  0.04140  0.54070  Biso   1.000  C
  C211     1.0000 0.76010  0.54140  0.95930  Biso   1.000  C
  C212     1.0000 0.23990  0.54140  0.54070  Biso   1.000  C
  C213     1.0000 0.73990  0.95860  0.04070  Biso   1.000  C
  C214     1.0000 0.26010  0.95860  0.45930  Biso   1.000  C
  C215     1.0000 0.23990  0.45860  0.04070  Biso   1.000  C
  C216     1.0000 0.76010  0.45860  0.45930  Biso   1.000  C
  C217     1.0000 0.22420  0.10520  0.94470  Biso   1.000  C
  C218     1.0000 0.77580  0.10520  0.55530  Biso   1.000  C
  C219     1.0000 0.72420  0.60520  0.94470  Biso   1.000  C
  C220     1.0000 0.27580  0.60520  0.55530  Biso   1.000  C
  C221     1.0000 0.77580  0.89480  0.05530  Biso   1.000  C
  C222     1.0000 0.22420  0.89480  0.44470  Biso   1.000  C
  C223     1.0000 0.27580  0.39480  0.05530  Biso   1.000  C
  C224     1.0000 0.72420  0.39480  0.44470  Biso   1.000  C
  C225     1.0000 0.20135  0.14350  0.00040  Biso   1.000  C
  C226     1.0000 0.79865  0.14350  0.49960  Biso   1.000  C
  C227     1.0000 0.70135  0.64350  0.00040  Biso   1.000  C
  C228     1.0000 0.29865  0.64350  0.49960  Biso   1.000  C
  C229     1.0000 0.79865  0.85650  0.99960  Biso   1.000  C
  C230     1.0000 0.20135  0.85650  0.50040  Biso   1.000  C
  C231     1.0000 0.29865  0.35650  0.99960  Biso   1.000  C
  C232     1.0000 0.70135  0.35650  0.50040  Biso   1.000  C
  H1       1.0000 0.02500  0.78400  0.23300  Biso   1.000  H
  H2       1.0000 0.97500  0.78400  0.26700  Biso   1.000  H
  H3       1.0000 0.52500  0.28400  0.23300  Biso   1.000  H
  H4       1.0000 0.47500  0.28400  0.26700  Biso   1.000  H
  H5       1.0000 0.97500  0.21600  0.76700  Biso   1.000  H
  H6       1.0000 0.02500  0.21600  0.73300  Biso   1.000  H
  H7       1.0000 0.47500  0.71600  0.76700  Biso   1.000  H
  H8       1.0000 0.52500  0.71600  0.73300  Biso   1.000  H
  H9       1.0000 0.06330  0.56770  0.36740  Biso   1.000  H
  H10      1.0000 0.93670  0.56770  0.13260  Biso   1.000  H
  H11      1.0000 0.56330  0.06770  0.36740  Biso   1.000  H
  H12      1.0000 0.43670  0.06770  0.13260  Biso   1.000  H
  H13      1.0000 0.93670  0.43230  0.63260  Biso   1.000  H
  H14      1.0000 0.06330  0.43230  0.86740  Biso   1.000  H
  H15      1.0000 0.43670  0.93230  0.63260  Biso   1.000  H
  H16      1.0000 0.56330  0.93230  0.86740  Biso   1.000  H
  H17      1.0000 0.06720  0.48090  0.47910  Biso   1.000  H
  H18      1.0000 0.93280  0.48090  0.02090  Biso   1.000  H
  H19      1.0000 0.56720  0.98090  0.47910  Biso   1.000  H
  H20      1.0000 0.43280  0.98090  0.02090  Biso   1.000  H
  H21      1.0000 0.93280  0.51910  0.52090  Biso   1.000  H
  H22      1.0000 0.06720  0.51910  0.97910  Biso   1.000  H
  H23      1.0000 0.43280  0.01910  0.52090  Biso   1.000  H
  H24      1.0000 0.56720  0.01910  0.97910  Biso   1.000  H
  H25      1.0000 0.95010  0.26710  0.33090  Biso   1.000  H
  H26      1.0000 0.04990  0.26710  0.16910  Biso   1.000  H
  H27      1.0000 0.45010  0.76710  0.33090  Biso   1.000  H
  H28      1.0000 0.54990  0.76710  0.16910  Biso   1.000  H
  H29      1.0000 0.04990  0.73290  0.66910  Biso   1.000  H
  H30      1.0000 0.95010  0.73290  0.83090  Biso   1.000  H
  H31      1.0000 0.54990  0.23290  0.66910  Biso   1.000  H
  H32      1.0000 0.45010  0.23290  0.83090  Biso   1.000  H
  H33      1.0000 0.93210  0.13360  0.42150  Biso   1.000  H
  H34      1.0000 0.06790  0.13360  0.07850  Biso   1.000  H
  H35      1.0000 0.43210  0.63360  0.42150  Biso   1.000  H
  H36      1.0000 0.56790  0.63360  0.07850  Biso   1.000  H
  H37      1.0000 0.06790  0.86640  0.57850  Biso   1.000  H
  H38      1.0000 0.93210  0.86640  0.92150  Biso   1.000  H
  H39      1.0000 0.56790  0.36640  0.57850  Biso   1.000  H
  H40      1.0000 0.43210  0.36640  0.92150  Biso   1.000  H
  H41      1.0000 0.18730  0.21360  0.46390  Biso   1.000  H
  H42      1.0000 0.81270  0.21360  0.03610  Biso   1.000  H
  H43      1.0000 0.68730  0.71360  0.46390  Biso   1.000  H
  H44      1.0000 0.31270  0.71360  0.03610  Biso   1.000  H
  H45      1.0000 0.81270  0.78640  0.53610  Biso   1.000  H
  H46      1.0000 0.18730  0.78640  0.96390  Biso   1.000  H
  H47      1.0000 0.31270  0.28640  0.53610  Biso   1.000  H
  H48      1.0000 0.68730  0.28640  0.96390  Biso   1.000  H
  H49      1.0000 0.96890  0.14750  0.52910  Biso   1.000  H
  H50      1.0000 0.03110  0.14750  0.97090  Biso   1.000  H
  H51      1.0000 0.46890  0.64750  0.52910  Biso   1.000  H
  H52      1.0000 0.53110  0.64750  0.97090  Biso   1.000  H
  H53      1.0000 0.03110  0.85250  0.47090  Biso   1.000  H
  H54      1.0000 0.96890  0.85250  0.02910  Biso   1.000  H
  H55      1.0000 0.53110  0.35250  0.47090  Biso   1.000  H
  H56      1.0000 0.46890  0.35250  0.02910  Biso   1.000  H
  H57      1.0000 0.02150  0.29370  0.54940  Biso   1.000  H
  H58      1.0000 0.97850  0.29370  0.95060  Biso   1.000  H
  H59      1.0000 0.52150  0.79370  0.54940  Biso   1.000  H
  H60      1.0000 0.47850  0.79370  0.95060  Biso   1.000  H
  H61      1.0000 0.97850  0.70630  0.45060  Biso   1.000  H
  H62      1.0000 0.02150  0.70630  0.04940  Biso   1.000  H
  H63      1.0000 0.47850  0.20630  0.45060  Biso   1.000  H
  H64      1.0000 0.52150  0.20630  0.04940  Biso   1.000  H
  H65      1.0000 0.14890  0.23950  0.97050  Biso   1.000  H
  H66      1.0000 0.85110  0.23950  0.52950  Biso   1.000  H
  H67      1.0000 0.64890  0.73950  0.97050  Biso   1.000  H
  H68      1.0000 0.35110  0.73950  0.52950  Biso   1.000  H
  H69      1.0000 0.85110  0.76050  0.02950  Biso   1.000  H
  H70      1.0000 0.14890  0.76050  0.47050  Biso   1.000  H
  H71      1.0000 0.35110  0.26050  0.02950  Biso   1.000  H
  H72      1.0000 0.64890  0.26050  0.47050  Biso   1.000  H
  H73      1.0000 0.22640  0.23780  0.36430  Biso   1.000  H
  H74      1.0000 0.77360  0.23780  0.13570  Biso   1.000  H
  H75      1.0000 0.72640  0.73780  0.36430  Biso   1.000  H
  H76      1.0000 0.27360  0.73780  0.13570  Biso   1.000  H
  H77      1.0000 0.77360  0.76220  0.63570  Biso   1.000  H
  H78      1.0000 0.22640  0.76220  0.86430  Biso   1.000  H
  H79      1.0000 0.27360  0.26220  0.63570  Biso   1.000  H
  H80      1.0000 0.72640  0.26220  0.86430  Biso   1.000  H
  H81      1.0000 0.09750  0.09180  0.25140  Biso   1.000  H
  H82      1.0000 0.90250  0.09180  0.24860  Biso   1.000  H
  H83      1.0000 0.59750  0.59180  0.25140  Biso   1.000  H
  H84      1.0000 0.40250  0.59180  0.24860  Biso   1.000  H
  H85      1.0000 0.90250  0.90820  0.74860  Biso   1.000  H
  H86      1.0000 0.09750  0.90820  0.75140  Biso   1.000  H
  H87      1.0000 0.40250  0.40820  0.74860  Biso   1.000  H
  H88      1.0000 0.59750  0.40820  0.75140  Biso   1.000  H
  H89      1.0000 0.03990  0.04540  0.31550  Biso   1.000  H
  H90      1.0000 0.96010  0.04540  0.18450  Biso   1.000  H
  H91      1.0000 0.53990  0.54540  0.31550  Biso   1.000  H
  H92      1.0000 0.46010  0.54540  0.18450  Biso   1.000  H
  H93      1.0000 0.96010  0.95460  0.68450  Biso   1.000  H
  H94      1.0000 0.03990  0.95460  0.81550  Biso   1.000  H
  H95      1.0000 0.46010  0.45460  0.68450  Biso   1.000  H
  H96      1.0000 0.53990  0.45460  0.81550  Biso   1.000  H
  H97      1.0000 0.04450  0.06710  0.43040  Biso   1.000  H
  H98      1.0000 0.95550  0.06710  0.06960  Biso   1.000  H
  H99      1.0000 0.54450  0.56710  0.43040  Biso   1.000  H
  H100     1.0000 0.45550  0.56710  0.06960  Biso   1.000  H
  H101     1.0000 0.95550  0.93290  0.56960  Biso   1.000  H
  H102     1.0000 0.04450  0.93290  0.93040  Biso   1.000  H
  H103     1.0000 0.45550  0.43290  0.56960  Biso   1.000  H
  H104     1.0000 0.54450  0.43290  0.93040  Biso   1.000  H
  H105     1.0000 0.10450  0.13120  0.49080  Biso   1.000  H
  H106     1.0000 0.89550  0.13120  0.00920  Biso   1.000  H
  H107     1.0000 0.60450  0.63120  0.49080  Biso   1.000  H
  H108     1.0000 0.39550  0.63120  0.00920  Biso   1.000  H
  H109     1.0000 0.89550  0.86880  0.50920  Biso   1.000  H
  H110     1.0000 0.10450  0.86880  0.99080  Biso   1.000  H
  H111     1.0000 0.39550  0.36880  0.50920  Biso   1.000  H
  H112     1.0000 0.60450  0.36880  0.99080  Biso   1.000  H
  H113     1.0000 0.13690  0.27750  0.08600  Biso   1.000  H
  H114     1.0000 0.86310  0.27750  0.41400  Biso   1.000  H
  H115     1.0000 0.63690  0.77750  0.08600  Biso   1.000  H
  H116     1.0000 0.36310  0.77750  0.41400  Biso   1.000  H
  H117     1.0000 0.86310  0.72250  0.91400  Biso   1.000  H
  H118     1.0000 0.13690  0.72250  0.58600  Biso   1.000  H
  H119     1.0000 0.36310  0.22250  0.91400  Biso   1.000  H
  H120     1.0000 0.63690  0.22250  0.58600  Biso   1.000  H
  H121     1.0000 0.26440  0.03430  0.12650  Biso   1.000  H
  H122     1.0000 0.73560  0.03430  0.37350  Biso   1.000  H
  H123     1.0000 0.76440  0.53430  0.12650  Biso   1.000  H
  H124     1.0000 0.23560  0.53430  0.37350  Biso   1.000  H
  H125     1.0000 0.73560  0.96570  0.87350  Biso   1.000  H
  H126     1.0000 0.26440  0.96570  0.62650  Biso   1.000  H
  H127     1.0000 0.23560  0.46570  0.87350  Biso   1.000  H
  H128     1.0000 0.76440  0.46570  0.62650  Biso   1.000  H
  H129     1.0000 0.30050  0.97220  0.03410  Biso   1.000  H
  H130     1.0000 0.69950  0.97220  0.46590  Biso   1.000  H
  H131     1.0000 0.80050  0.47220  0.03410  Biso   1.000  H
  H132     1.0000 0.19950  0.47220  0.46590  Biso   1.000  H
  H133     1.0000 0.69950  0.02780  0.96590  Biso   1.000  H
  H134     1.0000 0.30050  0.02780  0.53410  Biso   1.000  H
  H135     1.0000 0.19950  0.52780  0.96590  Biso   1.000  H
  H136     1.0000 0.80050  0.52780  0.53410  Biso   1.000  H
  H137     1.0000 0.27560  0.01320  0.92350  Biso   1.000  H
  H138     1.0000 0.72440  0.01320  0.57650  Biso   1.000  H
  H139     1.0000 0.77560  0.51320  0.92350  Biso   1.000  H
  H140     1.0000 0.22440  0.51320  0.57650  Biso   1.000  H
  H141     1.0000 0.72440  0.98680  0.07650  Biso   1.000  H
  H142     1.0000 0.27560  0.98680  0.42350  Biso   1.000  H
  H143     1.0000 0.22440  0.48680  0.07650  Biso   1.000  H
  H144     1.0000 0.77560  0.48680  0.42350  Biso   1.000  H
  H145     1.0000 0.21470  0.12340  0.89980  Biso   1.000  H
  H146     1.0000 0.78530  0.12340  0.60020  Biso   1.000  H
  H147     1.0000 0.71470  0.62340  0.89980  Biso   1.000  H
  H148     1.0000 0.28530  0.62340  0.60020  Biso   1.000  H
  H149     1.0000 0.78530  0.87660  0.10020  Biso   1.000  H
  H150     1.0000 0.21470  0.87660  0.39980  Biso   1.000  H
  H151     1.0000 0.28530  0.37660  0.10020  Biso   1.000  H
  H152     1.0000 0.71470  0.37660  0.39980  Biso   1.000  H
