data_image0
_cell_length_a       8.5902
_cell_length_b       9.4932
_cell_length_c       11.8446
_cell_angle_alpha    69.233
_cell_angle_beta     74.652
_cell_angle_gamma    71.602

_symmetry_space_group_name_H-M    "P 1"
_symmetry_int_tables_number       1

loop_
  _symmetry_equiv_pos_as_xyz
  'x, y, z'

loop_
  _atom_site_label
  _atom_site_occupancy
  _atom_site_fract_x
  _atom_site_fract_y
  _atom_site_fract_z
  _atom_site_thermal_displace_type
  _atom_site_B_iso_or_equiv
  _atom_site_type_symbol
  Cu1      1.0000 0.50000  0.50000  0.50000  Biso   1.000  Cu
  N1       1.0000 0.42188  0.17443  0.37722  Biso   1.000  N
  N2       1.0000 0.57812  0.82557  0.62278  Biso   1.000  N
  N3       1.0000 0.58575  0.11927  0.38325  Biso   1.000  N
  N4       1.0000 0.41425  0.88073  0.61675  Biso   1.000  N
  N5       1.0000 0.62835  0.21526  0.41688  Biso   1.000  N
  N6       1.0000 0.37165  0.78474  0.58312  Biso   1.000  N
  N7       1.0000 0.49368  0.33358  0.43272  Biso   1.000  N
  N8       1.0000 0.50632  0.66642  0.56728  Biso   1.000  N
  N9       1.0000 0.23080  0.34128  0.84491  Biso   1.000  N
  N10      1.0000 0.76920  0.65872  0.15509  Biso   1.000  N
  N11      1.0000 0.19378  0.26607  0.78160  Biso   1.000  N
  N12      1.0000 0.80622  0.73393  0.21840  Biso   1.000  N
  N13      1.0000 0.27560  0.30387  0.67165  Biso   1.000  N
  N14      1.0000 0.72440  0.69613  0.32835  Biso   1.000  N
  N15      1.0000 0.36562  0.40410  0.66164  Biso   1.000  N
  N16      1.0000 0.63438  0.59590  0.33836  Biso   1.000  N
  N17      1.0000 0.05800  0.84020  0.33579  Biso   1.000  N
  N18      1.0000 0.94200  0.15980  0.66421  Biso   1.000  N
  N19      1.0000 0.98706  0.79124  0.45440  Biso   1.000  N
  N20      1.0000 0.01294  0.20876  0.54560  Biso   1.000  N
  N21      1.0000 0.09776  0.67659  0.50942  Biso   1.000  N
  N22      1.0000 0.90224  0.32341  0.49058  Biso   1.000  N
  N23      1.0000 0.24167  0.64948  0.42864  Biso   1.000  N
  N24      1.0000 0.75833  0.35052  0.57136  Biso   1.000  N
  N25      1.0000 0.19387  0.11244  0.17899  Biso   1.000  N
  N26      1.0000 0.80613  0.88756  0.82101  Biso   1.000  N
  C1       1.0000 0.36653  0.30591  0.40781  Biso   1.000  C
  C2       1.0000 0.63347  0.69409  0.59219  Biso   1.000  C
  H1       1.0000 0.25570  0.36870  0.41120  Biso   1.000  H
  H2       1.0000 0.74430  0.63130  0.58880  Biso   1.000  H
  C3       1.0000 0.33577  0.09397  0.33747  Biso   1.000  C
  C4       1.0000 0.66423  0.90603  0.66253  Biso   1.000  C
  H3       1.0000 0.24190  0.06500  0.40260  Biso   1.000  H
  H4       1.0000 0.75810  0.93500  0.59740  Biso   1.000  H
  H5       1.0000 0.41360  0.99750  0.32300  Biso   1.000  H
  H6       1.0000 0.58640  0.00250  0.67700  Biso   1.000  H
  C5       1.0000 0.27031  0.19884  0.22024  Biso   1.000  C
  C6       1.0000 0.72969  0.80116  0.77976  Biso   1.000  C
  H7       1.0000 0.18700  0.29250  0.23570  Biso   1.000  H
  H8       1.0000 0.81300  0.70750  0.76430  Biso   1.000  H
  H9       1.0000 0.36290  0.23270  0.15620  Biso   1.000  H
  H10      1.0000 0.63710  0.76730  0.84380  Biso   1.000  H
  C7       1.0000 0.66497  0.57377  0.22978  Biso   1.000  C
  C8       1.0000 0.33503  0.42623  0.77022  Biso   1.000  C
  H11      1.0000 0.62030  0.50860  0.20880  Biso   1.000  H
  H12      1.0000 0.37970  0.49140  0.79120  Biso   1.000  H
  C9       1.0000 0.16668  0.31649  0.97619  Biso   1.000  C
  C10      1.0000 0.83332  0.68351  0.02381  Biso   1.000  C
  H13      1.0000 0.95660  0.65380  0.00950  Biso   1.000  H
  H14      1.0000 0.04340  0.34620  0.99050  Biso   1.000  H
  H15      1.0000 0.79460  0.61770  0.99370  Biso   1.000  H
  H16      1.0000 0.20540  0.38230  0.00630  Biso   1.000  H
  C11      1.0000 0.22876  0.14415  0.04621  Biso   1.000  C
  C12      1.0000 0.77124  0.85585  0.95379  Biso   1.000  C
  H17      1.0000 0.17550  0.08110  0.02430  Biso   1.000  H
  H18      1.0000 0.82450  0.91890  0.97570  Biso   1.000  H
  H19      1.0000 0.35050  0.11110  0.01950  Biso   1.000  H
  H20      1.0000 0.64950  0.88890  0.98050  Biso   1.000  H
  C13      1.0000 0.21343  0.75307  0.32171  Biso   1.000  C
  C14      1.0000 0.78657  0.24693  0.67829  Biso   1.000  C
  H21      1.0000 0.29120  0.76350  0.24720  Biso   1.000  H
  H22      1.0000 0.70880  0.23650  0.75280  Biso   1.000  H
  C15      1.0000 0.97033  0.97405  0.24720  Biso   1.000  C
  C16      1.0000 0.02967  0.02595  0.75280  Biso   1.000  C
  H23      1.0000 0.84860  0.98810  0.27490  Biso   1.000  H
  H24      1.0000 0.15140  0.01190  0.72510  Biso   1.000  H
  H25      1.0000 0.99890  0.95450  0.16650  Biso   1.000  H
  H26      1.0000 0.00110  0.04550  0.83350  Biso   1.000  H
  C17      1.0000 0.01822  0.12133  0.23426  Biso   1.000  C
  C18      1.0000 0.98178  0.87867  0.76574  Biso   1.000  C
  H27      1.0000 0.94750  0.21220  0.18250  Biso   1.000  H
  H28      1.0000 0.05250  0.78780  0.81750  Biso   1.000  H
  H29      1.0000 0.99790  0.13600  0.31610  Biso   1.000  H
  H30      1.0000 0.00210  0.86400  0.68390  Biso   1.000  H
  Cl1      1.0000 0.29526  0.69679  0.01464  Biso   1.000  Cl
  Cl2      1.0000 0.70474  0.30321  0.98536  Biso   1.000  Cl
  O1       1.0000 0.24265  0.56699  0.10773  Biso   1.000  O
  O2       1.0000 0.75735  0.43301  0.89227  Biso   1.000  O
  O3       1.0000 0.35608  0.66142  0.89939  Biso   1.000  O
  O4       1.0000 0.64392  0.33858  0.10061  Biso   1.000  O
  O5       1.0000 0.42605  0.72936  0.04944  Biso   1.000  O
  O6       1.0000 0.57395  0.27064  0.95056  Biso   1.000  O
  O7       1.0000 0.15606  0.83116  0.00141  Biso   1.000  O
  O8       1.0000 0.84394  0.16884  0.99859  Biso   1.000  O
