data_image0
_cell_length_a       8.94
_cell_length_b       10.371
_cell_length_c       8.018
_cell_angle_alpha    95.59
_cell_angle_beta     106.62
_cell_angle_gamma    101.86

_symmetry_space_group_name_H-M    "P 1"
_symmetry_int_tables_number       1

loop_
  _symmetry_equiv_pos_as_xyz
  'x, y, z'

loop_
  _atom_site_label
  _atom_site_occupancy
  _atom_site_fract_x
  _atom_site_fract_y
  _atom_site_fract_z
  _atom_site_thermal_displace_type
  _atom_site_B_iso_or_equiv
  _atom_site_type_symbol
  Cu1      1.0000 0.48210  0.35540  0.41150  Biso   1.000  Cu
  Cu2      1.0000 0.51790  0.64460  0.58850  Biso   1.000  Cu
  Cu3      1.0000 0.15130  0.10350  0.54290  Biso   1.000  Cu
  Cu4      1.0000 0.84870  0.89650  0.45710  Biso   1.000  Cu
  Cl1      1.0000 0.37160  0.25390  0.65680  Biso   1.000  Cl
  Cl2      1.0000 0.62840  0.74610  0.34320  Biso   1.000  Cl
  Cl3      1.0000 0.98520  0.02920  0.71710  Biso   1.000  Cl
  Cl4      1.0000 0.01480  0.97080  0.28290  Biso   1.000  Cl
  O1       1.0000 0.36070  0.49480  0.41570  Biso   1.000  O
  O2       1.0000 0.63930  0.50520  0.58430  Biso   1.000  O
  O3       1.0000 0.40800  0.91900  0.14500  Biso   1.000  O
  O4       1.0000 0.59200  0.08100  0.85500  Biso   1.000  O
  O5       1.0000 0.39000  0.01400  0.34700  Biso   1.000  O
  O6       1.0000 0.61000  0.98600  0.65300  Biso   1.000  O
  N1       1.0000 0.31460  0.24350  0.20600  Biso   1.000  N
  N2       1.0000 0.68540  0.75650  0.79400  Biso   1.000  N
  N3       1.0000 0.64610  0.25200  0.41400  Biso   1.000  N
  N4       1.0000 0.35390  0.74800  0.58600  Biso   1.000  N
  C1       1.0000 0.79200  0.29300  0.51000  Biso   1.000  C
  C2       1.0000 0.20800  0.70700  0.49000  Biso   1.000  C
  C3       1.0000 0.87200  0.41600  0.63000  Biso   1.000  C
  C4       1.0000 0.12800  0.58400  0.37000  Biso   1.000  C
  C5       1.0000 0.20600  0.48260  0.33500  Biso   1.000  C
  C6       1.0000 0.79400  0.51740  0.66500  Biso   1.000  C
  C7       1.0000 0.10900  0.36900  0.21000  Biso   1.000  C
  C8       1.0000 0.89100  0.63100  0.79000  Biso   1.000  C
  C9       1.0000 0.94300  0.35800  0.12600  Biso   1.000  C
  C10      1.0000 0.05700  0.64200  0.87400  Biso   1.000  C
  C11      1.0000 0.86900  0.45600  0.16200  Biso   1.000  C
  C12      1.0000 0.13100  0.54400  0.83800  Biso   1.000  C
  C13      1.0000 0.03700  0.43200  0.71900  Biso   1.000  C
  C14      1.0000 0.96300  0.56800  0.28100  Biso   1.000  C
  C15      1.0000 0.69200  0.44400  0.06900  Biso   1.000  C
  C16      1.0000 0.30800  0.55600  0.93100  Biso   1.000  C
  C17      1.0000 0.17100  0.26000  0.14900  Biso   1.000  C
  C18      1.0000 0.82900  0.74000  0.85100  Biso   1.000  C
  C19      1.0000 0.33700  0.12200  0.10900  Biso   1.000  C
  C20      1.0000 0.66300  0.87800  0.89100  Biso   1.000  C
  C21      1.0000 0.44800  0.05500  0.22200  Biso   1.000  C
  C22      1.0000 0.55200  0.94500  0.77800  Biso   1.000  C
  C23      1.0000 0.42300  0.04100  0.23600  Biso   1.000  C
  C24      1.0000 0.57700  0.95900  0.76400  Biso   1.000  C
  C25      1.0000 0.60600  0.12100  0.30000  Biso   1.000  C
  C26      1.0000 0.39400  0.87900  0.70000  Biso   1.000  C
  H1       1.0000 0.87150  0.26350  0.03250  Biso   1.000  H
  H2       1.0000 0.12850  0.73650  0.96750  Biso   1.000  H
  H3       1.0000 0.09350  0.18660  0.04480  Biso   1.000  H
  H4       1.0000 0.90650  0.81340  0.95520  Biso   1.000  H
  H5       1.0000 0.86100  0.22680  0.50200  Biso   1.000  H
  H6       1.0000 0.13900  0.77320  0.49800  Biso   1.000  H
  H7       1.0000 0.08590  0.36160  0.69610  Biso   1.000  H
  H8       1.0000 0.91410  0.63840  0.30390  Biso   1.000  H
  H9       1.0000 0.63700  0.44890  0.15370  Biso   1.000  H
  H10      1.0000 0.36300  0.55110  0.84630  Biso   1.000  H
  H11      1.0000 0.68070  0.51390  0.00220  Biso   1.000  H
  H12      1.0000 0.31930  0.48610  0.99780  Biso   1.000  H
  H13      1.0000 0.64670  0.36000  0.99180  Biso   1.000  H
  H14      1.0000 0.35330  0.64000  0.00820  Biso   1.000  H
  H15      1.0000 0.23500  0.06430  0.04810  Biso   1.000  H
  H16      1.0000 0.76500  0.93570  0.95190  Biso   1.000  H
  H17      1.0000 0.39180  0.14850  0.02820  Biso   1.000  H
  H18      1.0000 0.60820  0.85150  0.97180  Biso   1.000  H
  H19      1.0000 0.62140  0.13760  0.19060  Biso   1.000  H
  H20      1.0000 0.37860  0.86240  0.80940  Biso   1.000  H
  H21      1.0000 0.67910  0.07250  0.35590  Biso   1.000  H
  H22      1.0000 0.32090  0.92750  0.64410  Biso   1.000  H
  H23      1.0000 0.38800  0.05020  0.31330  Biso   1.000  H
  H24      1.0000 0.61200  0.94980  0.68670  Biso   1.000  H
  H25      1.0000 0.45150  0.95390  0.19140  Biso   1.000  H
  H26      1.0000 0.54850  0.04610  0.80860  Biso   1.000  H
