data_image0
_cell_length_a       23.997
_cell_length_b       36.41
_cell_length_c       18.142
_cell_angle_alpha    90
_cell_angle_beta     90
_cell_angle_gamma    90

_symmetry_space_group_name_H-M    "P 1"
_symmetry_int_tables_number       1

loop_
  _symmetry_equiv_pos_as_xyz
  'x, y, z'

loop_
  _atom_site_label
  _atom_site_occupancy
  _atom_site_fract_x
  _atom_site_fract_y
  _atom_site_fract_z
  _atom_site_thermal_displace_type
  _atom_site_B_iso_or_equiv
  _atom_site_type_symbol
  Cu1      1.0000 0.82060  0.53795  0.50739  Biso   1.000  Cu
  Cu2      1.0000 0.17940  0.96205  0.50739  Biso   1.000  Cu
  Cu3      1.0000 0.17940  0.03795  0.49261  Biso   1.000  Cu
  Cu4      1.0000 0.82060  0.46205  0.49261  Biso   1.000  Cu
  Cu5      1.0000 0.32060  0.03795  0.00739  Biso   1.000  Cu
  Cu6      1.0000 0.67940  0.46205  0.00739  Biso   1.000  Cu
  Cu7      1.0000 0.67940  0.53795  0.99261  Biso   1.000  Cu
  Cu8      1.0000 0.32060  0.96205  0.99261  Biso   1.000  Cu
  Cu9      1.0000 0.17940  0.46205  0.49261  Biso   1.000  Cu
  Cu10     1.0000 0.82060  0.03795  0.49261  Biso   1.000  Cu
  Cu11     1.0000 0.82060  0.96205  0.50739  Biso   1.000  Cu
  Cu12     1.0000 0.17940  0.53795  0.50739  Biso   1.000  Cu
  Cu13     1.0000 0.67940  0.96205  0.99261  Biso   1.000  Cu
  Cu14     1.0000 0.32060  0.53795  0.99261  Biso   1.000  Cu
  Cu15     1.0000 0.32060  0.46205  0.00739  Biso   1.000  Cu
  Cu16     1.0000 0.67940  0.03795  0.00739  Biso   1.000  Cu
  O1       1.0000 0.61157  0.47057  0.06722  Biso   1.000  O
  O2       1.0000 0.38843  0.02943  0.06722  Biso   1.000  O
  O3       1.0000 0.38843  0.97057  0.93278  Biso   1.000  O
  O4       1.0000 0.61157  0.52943  0.93278  Biso   1.000  O
  O5       1.0000 0.11157  0.97057  0.56722  Biso   1.000  O
  O6       1.0000 0.88843  0.52943  0.56722  Biso   1.000  O
  O7       1.0000 0.88843  0.47057  0.43278  Biso   1.000  O
  O8       1.0000 0.11157  0.02943  0.43278  Biso   1.000  O
  O9       1.0000 0.38843  0.52943  0.93278  Biso   1.000  O
  O10      1.0000 0.61157  0.97057  0.93278  Biso   1.000  O
  O11      1.0000 0.61157  0.02943  0.06722  Biso   1.000  O
  O12      1.0000 0.38843  0.47057  0.06722  Biso   1.000  O
  O13      1.0000 0.88843  0.02943  0.43278  Biso   1.000  O
  O14      1.0000 0.11157  0.47057  0.43278  Biso   1.000  O
  O15      1.0000 0.11157  0.52943  0.56722  Biso   1.000  O
  O16      1.0000 0.88843  0.97057  0.56722  Biso   1.000  O
  O17      1.0000 0.62861  0.53043  0.08416  Biso   1.000  O
  O18      1.0000 0.37139  0.96957  0.08416  Biso   1.000  O
  O19      1.0000 0.37139  0.03043  0.91584  Biso   1.000  O
  O20      1.0000 0.62861  0.46957  0.91584  Biso   1.000  O
  O21      1.0000 0.12861  0.03043  0.58416  Biso   1.000  O
  O22      1.0000 0.87139  0.46957  0.58416  Biso   1.000  O
  O23      1.0000 0.87139  0.53043  0.41584  Biso   1.000  O
  O24      1.0000 0.12861  0.96957  0.41584  Biso   1.000  O
  O25      1.0000 0.37139  0.46957  0.91584  Biso   1.000  O
  O26      1.0000 0.62861  0.03043  0.91584  Biso   1.000  O
  O27      1.0000 0.62861  0.96957  0.08416  Biso   1.000  O
  O28      1.0000 0.37139  0.53043  0.08416  Biso   1.000  O
  O29      1.0000 0.87139  0.96957  0.41584  Biso   1.000  O
  O30      1.0000 0.12861  0.53043  0.41584  Biso   1.000  O
  O31      1.0000 0.12861  0.46957  0.58416  Biso   1.000  O
  O32      1.0000 0.87139  0.03043  0.58416  Biso   1.000  O
  O33      1.0000 0.75493  0.53433  0.44318  Biso   1.000  O
  O34      1.0000 0.24507  0.96567  0.44318  Biso   1.000  O
  O35      1.0000 0.24507  0.03433  0.55682  Biso   1.000  O
  O36      1.0000 0.75493  0.46567  0.55682  Biso   1.000  O
  O37      1.0000 0.25493  0.03433  0.94318  Biso   1.000  O
  O38      1.0000 0.74507  0.46567  0.94318  Biso   1.000  O
  O39      1.0000 0.74507  0.53433  0.05682  Biso   1.000  O
  O40      1.0000 0.25493  0.96567  0.05682  Biso   1.000  O
  O41      1.0000 0.24507  0.46567  0.55682  Biso   1.000  O
  O42      1.0000 0.75493  0.03433  0.55682  Biso   1.000  O
  O43      1.0000 0.75493  0.96567  0.44318  Biso   1.000  O
  O44      1.0000 0.24507  0.53433  0.44318  Biso   1.000  O
  O45      1.0000 0.74507  0.96567  0.05682  Biso   1.000  O
  O46      1.0000 0.25493  0.53433  0.05682  Biso   1.000  O
  O47      1.0000 0.25493  0.46567  0.94318  Biso   1.000  O
  O48      1.0000 0.74507  0.03433  0.94318  Biso   1.000  O
  O49      1.0000 0.77098  0.47711  0.40628  Biso   1.000  O
  O50      1.0000 0.22902  0.02289  0.40628  Biso   1.000  O
  O51      1.0000 0.22902  0.97711  0.59372  Biso   1.000  O
  O52      1.0000 0.77098  0.52289  0.59372  Biso   1.000  O
  O53      1.0000 0.27098  0.97711  0.90628  Biso   1.000  O
  O54      1.0000 0.72902  0.52289  0.90628  Biso   1.000  O
  O55      1.0000 0.72902  0.47711  0.09372  Biso   1.000  O
  O56      1.0000 0.27098  0.02289  0.09372  Biso   1.000  O
  O57      1.0000 0.22902  0.52289  0.59372  Biso   1.000  O
  O58      1.0000 0.77098  0.97711  0.59372  Biso   1.000  O
  O59      1.0000 0.77098  0.02289  0.40628  Biso   1.000  O
  O60      1.0000 0.22902  0.47711  0.40628  Biso   1.000  O
  O61      1.0000 0.72902  0.02289  0.09372  Biso   1.000  O
  O62      1.0000 0.27098  0.47711  0.09372  Biso   1.000  O
  O63      1.0000 0.27098  0.52289  0.90628  Biso   1.000  O
  O64      1.0000 0.72902  0.97711  0.90628  Biso   1.000  O
  N1       1.0000 0.82111  0.59425  0.51647  Biso   1.000  N
  N2       1.0000 0.17889  0.90575  0.51647  Biso   1.000  N
  N3       1.0000 0.17889  0.09425  0.48353  Biso   1.000  N
  N4       1.0000 0.82111  0.40575  0.48353  Biso   1.000  N
  N5       1.0000 0.32111  0.09425  0.01647  Biso   1.000  N
  N6       1.0000 0.67889  0.40575  0.01647  Biso   1.000  N
  N7       1.0000 0.67889  0.59425  0.98353  Biso   1.000  N
  N8       1.0000 0.32111  0.90575  0.98353  Biso   1.000  N
  N9       1.0000 0.17889  0.40575  0.48353  Biso   1.000  N
  N10      1.0000 0.82111  0.09425  0.48353  Biso   1.000  N
  N11      1.0000 0.82111  0.90575  0.51647  Biso   1.000  N
  N12      1.0000 0.17889  0.59425  0.51647  Biso   1.000  N
  N13      1.0000 0.67889  0.90575  0.98353  Biso   1.000  N
  N14      1.0000 0.32111  0.59425  0.98353  Biso   1.000  N
  N15      1.0000 0.32111  0.40575  0.01647  Biso   1.000  N
  N16      1.0000 0.67889  0.09425  0.01647  Biso   1.000  N
  C1       1.0000 0.60201  0.50118  0.09512  Biso   1.000  C
  C2       1.0000 0.39799  0.99882  0.09512  Biso   1.000  C
  C3       1.0000 0.39799  0.00118  0.90488  Biso   1.000  C
  C4       1.0000 0.60201  0.49882  0.90488  Biso   1.000  C
  C5       1.0000 0.10201  0.00118  0.59512  Biso   1.000  C
  C6       1.0000 0.89799  0.49882  0.59512  Biso   1.000  C
  C7       1.0000 0.89799  0.50118  0.40488  Biso   1.000  C
  C8       1.0000 0.10201  0.99882  0.40488  Biso   1.000  C
  C9       1.0000 0.39799  0.49882  0.90488  Biso   1.000  C
  C10      1.0000 0.60201  0.00118  0.90488  Biso   1.000  C
  C11      1.0000 0.60201  0.99882  0.09512  Biso   1.000  C
  C12      1.0000 0.39799  0.50118  0.09512  Biso   1.000  C
  C13      1.0000 0.89799  0.99882  0.40488  Biso   1.000  C
  C14      1.0000 0.10201  0.50118  0.40488  Biso   1.000  C
  C15      1.0000 0.10201  0.49882  0.59512  Biso   1.000  C
  C16      1.0000 0.89799  0.00118  0.59512  Biso   1.000  C
  C17      1.0000 0.55031  0.50393  0.14221  Biso   1.000  C
  C18      1.0000 0.44969  0.99607  0.14221  Biso   1.000  C
  C19      1.0000 0.44969  0.00393  0.85779  Biso   1.000  C
  C20      1.0000 0.55031  0.49607  0.85779  Biso   1.000  C
  C21      1.0000 0.05031  0.00393  0.64221  Biso   1.000  C
  C22      1.0000 0.94969  0.49607  0.64221  Biso   1.000  C
  C23      1.0000 0.94969  0.50393  0.35779  Biso   1.000  C
  C24      1.0000 0.05031  0.99607  0.35779  Biso   1.000  C
  C25      1.0000 0.44969  0.49607  0.85779  Biso   1.000  C
  C26      1.0000 0.55031  0.00393  0.85779  Biso   1.000  C
  C27      1.0000 0.55031  0.99607  0.14221  Biso   1.000  C
  C28      1.0000 0.44969  0.50393  0.14221  Biso   1.000  C
  C29      1.0000 0.94969  0.99607  0.35779  Biso   1.000  C
  C30      1.0000 0.05031  0.50393  0.35779  Biso   1.000  C
  C31      1.0000 0.05031  0.49607  0.64221  Biso   1.000  C
  C32      1.0000 0.94969  0.00393  0.64221  Biso   1.000  C
  C33      1.0000 0.50000  0.49892  0.10740  Biso   1.000  C
  C34      1.0000 0.50000  0.00108  0.10740  Biso   1.000  C
  C35      1.0000 0.50000  0.99892  0.89260  Biso   1.000  C
  C36      1.0000 0.50000  0.50108  0.89260  Biso   1.000  C
  C37      1.0000 0.00000  0.99892  0.60740  Biso   1.000  C
  C38      1.0000 0.00000  0.50108  0.60740  Biso   1.000  C
  C39      1.0000 0.00000  0.49892  0.39260  Biso   1.000  C
  C40      1.0000 0.00000  0.00108  0.39260  Biso   1.000  C
  H1       1.0000 0.50000  0.49180  0.05810  Biso   1.000  H
  H2       1.0000 0.50000  0.00820  0.05810  Biso   1.000  H
  H3       1.0000 0.50000  0.99180  0.94190  Biso   1.000  H
  H4       1.0000 0.50000  0.50820  0.94190  Biso   1.000  H
  H5       1.0000 0.00000  0.99180  0.55810  Biso   1.000  H
  H6       1.0000 0.00000  0.50820  0.55810  Biso   1.000  H
  H7       1.0000 0.00000  0.49180  0.44190  Biso   1.000  H
  H8       1.0000 0.00000  0.00820  0.44190  Biso   1.000  H
  C41      1.0000 0.55082  0.51370  0.21696  Biso   1.000  C
  C42      1.0000 0.44918  0.98630  0.21696  Biso   1.000  C
  C43      1.0000 0.44918  0.01370  0.78304  Biso   1.000  C
  C44      1.0000 0.55082  0.48630  0.78304  Biso   1.000  C
  C45      1.0000 0.05082  0.01370  0.71696  Biso   1.000  C
  C46      1.0000 0.94918  0.48630  0.71696  Biso   1.000  C
  C47      1.0000 0.94918  0.51370  0.28304  Biso   1.000  C
  C48      1.0000 0.05082  0.98630  0.28304  Biso   1.000  C
  C49      1.0000 0.44918  0.48630  0.78304  Biso   1.000  C
  C50      1.0000 0.55082  0.01370  0.78304  Biso   1.000  C
  C51      1.0000 0.55082  0.98630  0.21696  Biso   1.000  C
  C52      1.0000 0.44918  0.51370  0.21696  Biso   1.000  C
  C53      1.0000 0.94918  0.98630  0.28304  Biso   1.000  C
  C54      1.0000 0.05082  0.51370  0.28304  Biso   1.000  C
  C55      1.0000 0.05082  0.48630  0.71696  Biso   1.000  C
  C56      1.0000 0.94918  0.01370  0.71696  Biso   1.000  C
  C57      1.0000 0.50000  0.51814  0.25210  Biso   1.000  C
  C58      1.0000 0.50000  0.98186  0.25210  Biso   1.000  C
  C59      1.0000 0.50000  0.01814  0.74790  Biso   1.000  C
  C60      1.0000 0.50000  0.48186  0.74790  Biso   1.000  C
  C61      1.0000 0.00000  0.01814  0.75210  Biso   1.000  C
  C62      1.0000 0.00000  0.48186  0.75210  Biso   1.000  C
  C63      1.0000 0.00000  0.51814  0.24790  Biso   1.000  C
  C64      1.0000 0.00000  0.98186  0.24790  Biso   1.000  C
  H9       1.0000 0.50000  0.52440  0.30180  Biso   1.000  H
  H10      1.0000 0.50000  0.97560  0.30180  Biso   1.000  H
  H11      1.0000 0.50000  0.02440  0.69820  Biso   1.000  H
  H12      1.0000 0.50000  0.47560  0.69820  Biso   1.000  H
  H13      1.0000 0.00000  0.02440  0.80180  Biso   1.000  H
  H14      1.0000 0.00000  0.47560  0.80180  Biso   1.000  H
  H15      1.0000 0.00000  0.52440  0.19820  Biso   1.000  H
  H16      1.0000 0.00000  0.97560  0.19820  Biso   1.000  H
  C65      1.0000 0.74521  0.50683  0.40410  Biso   1.000  C
  C66      1.0000 0.25479  0.99317  0.40410  Biso   1.000  C
  C67      1.0000 0.25479  0.00683  0.59590  Biso   1.000  C
  C68      1.0000 0.74521  0.49317  0.59590  Biso   1.000  C
  C69      1.0000 0.24521  0.00683  0.90410  Biso   1.000  C
  C70      1.0000 0.75479  0.49317  0.90410  Biso   1.000  C
  C71      1.0000 0.75479  0.50683  0.09590  Biso   1.000  C
  C72      1.0000 0.24521  0.99317  0.09590  Biso   1.000  C
  C73      1.0000 0.25479  0.49317  0.59590  Biso   1.000  C
  C74      1.0000 0.74521  0.00683  0.59590  Biso   1.000  C
  C75      1.0000 0.74521  0.99317  0.40410  Biso   1.000  C
  C76      1.0000 0.25479  0.50683  0.40410  Biso   1.000  C
  C77      1.0000 0.75479  0.99317  0.09590  Biso   1.000  C
  C78      1.0000 0.24521  0.50683  0.09590  Biso   1.000  C
  C79      1.0000 0.24521  0.49317  0.90410  Biso   1.000  C
  C80      1.0000 0.75479  0.00683  0.90410  Biso   1.000  C
  C81      1.0000 0.68709  0.48319  0.29990  Biso   1.000  C
  C82      1.0000 0.31291  0.01681  0.29990  Biso   1.000  C
  C83      1.0000 0.31291  0.98319  0.70010  Biso   1.000  C
  C84      1.0000 0.68709  0.51681  0.70010  Biso   1.000  C
  C85      1.0000 0.18709  0.98319  0.79990  Biso   1.000  C
  C86      1.0000 0.81291  0.51681  0.79990  Biso   1.000  C
  C87      1.0000 0.81291  0.48319  0.20010  Biso   1.000  C
  C88      1.0000 0.18709  0.01681  0.20010  Biso   1.000  C
  C89      1.0000 0.31291  0.51681  0.70010  Biso   1.000  C
  C90      1.0000 0.68709  0.98319  0.70010  Biso   1.000  C
  C91      1.0000 0.68709  0.01681  0.29990  Biso   1.000  C
  C92      1.0000 0.31291  0.48319  0.29990  Biso   1.000  C
  C93      1.0000 0.81291  0.01681  0.20010  Biso   1.000  C
  C94      1.0000 0.18709  0.48319  0.20010  Biso   1.000  C
  C95      1.0000 0.18709  0.51681  0.79990  Biso   1.000  C
  C96      1.0000 0.81291  0.98319  0.79990  Biso   1.000  C
  H17      1.0000 0.71120  0.46330  0.29590  Biso   1.000  H
  H18      1.0000 0.28880  0.03670  0.29590  Biso   1.000  H
  H19      1.0000 0.28880  0.96330  0.70410  Biso   1.000  H
  H20      1.0000 0.71120  0.53670  0.70410  Biso   1.000  H
  H21      1.0000 0.21120  0.96330  0.79590  Biso   1.000  H
  H22      1.0000 0.78880  0.53670  0.79590  Biso   1.000  H
  H23      1.0000 0.78880  0.46330  0.20410  Biso   1.000  H
  H24      1.0000 0.21120  0.03670  0.20410  Biso   1.000  H
  H25      1.0000 0.28880  0.53670  0.70410  Biso   1.000  H
  H26      1.0000 0.71120  0.96330  0.70410  Biso   1.000  H
  H27      1.0000 0.71120  0.03670  0.29590  Biso   1.000  H
  H28      1.0000 0.28880  0.46330  0.29590  Biso   1.000  H
  H29      1.0000 0.78880  0.03670  0.20410  Biso   1.000  H
  H30      1.0000 0.21120  0.46330  0.20410  Biso   1.000  H
  H31      1.0000 0.21120  0.53670  0.79590  Biso   1.000  H
  H32      1.0000 0.78880  0.96330  0.79590  Biso   1.000  H
  C97      1.0000 0.60334  0.51426  0.26004  Biso   1.000  C
  C98      1.0000 0.39666  0.98574  0.26004  Biso   1.000  C
  C99      1.0000 0.39666  0.01426  0.73996  Biso   1.000  C
  C100     1.0000 0.60334  0.48574  0.73996  Biso   1.000  C
  C101     1.0000 0.10334  0.01426  0.76004  Biso   1.000  C
  C102     1.0000 0.89666  0.48574  0.76004  Biso   1.000  C
  C103     1.0000 0.89666  0.51426  0.23996  Biso   1.000  C
  C104     1.0000 0.10334  0.98574  0.23996  Biso   1.000  C
  C105     1.0000 0.39666  0.48574  0.73996  Biso   1.000  C
  C106     1.0000 0.60334  0.01426  0.73996  Biso   1.000  C
  C107     1.0000 0.60334  0.98574  0.26004  Biso   1.000  C
  C108     1.0000 0.39666  0.51426  0.26004  Biso   1.000  C
  C109     1.0000 0.89666  0.98574  0.23996  Biso   1.000  C
  C110     1.0000 0.10334  0.51426  0.23996  Biso   1.000  C
  C111     1.0000 0.10334  0.48574  0.76004  Biso   1.000  C
  C112     1.0000 0.89666  0.01426  0.76004  Biso   1.000  C
  C113     1.0000 0.69741  0.50986  0.35129  Biso   1.000  C
  C114     1.0000 0.30259  0.99014  0.35129  Biso   1.000  C
  C115     1.0000 0.30259  0.00986  0.64871  Biso   1.000  C
  C116     1.0000 0.69741  0.49014  0.64871  Biso   1.000  C
  C117     1.0000 0.19741  0.00986  0.85129  Biso   1.000  C
  C118     1.0000 0.80259  0.49014  0.85129  Biso   1.000  C
  C119     1.0000 0.80259  0.50986  0.14871  Biso   1.000  C
  C120     1.0000 0.19741  0.99014  0.14871  Biso   1.000  C
  C121     1.0000 0.30259  0.49014  0.64871  Biso   1.000  C
  C122     1.0000 0.69741  0.00986  0.64871  Biso   1.000  C
  C123     1.0000 0.69741  0.99014  0.35129  Biso   1.000  C
  C124     1.0000 0.30259  0.50986  0.35129  Biso   1.000  C
  C125     1.0000 0.80259  0.99014  0.14871  Biso   1.000  C
  C126     1.0000 0.19741  0.50986  0.14871  Biso   1.000  C
  C127     1.0000 0.19741  0.49014  0.85129  Biso   1.000  C
  C128     1.0000 0.80259  0.00986  0.85129  Biso   1.000  C
  C129     1.0000 0.64127  0.48539  0.25389  Biso   1.000  C
  C130     1.0000 0.35873  0.01461  0.25389  Biso   1.000  C
  C131     1.0000 0.35873  0.98539  0.74611  Biso   1.000  C
  C132     1.0000 0.64127  0.51461  0.74611  Biso   1.000  C
  C133     1.0000 0.14127  0.98539  0.75389  Biso   1.000  C
  C134     1.0000 0.85873  0.51461  0.75389  Biso   1.000  C
  C135     1.0000 0.85873  0.48539  0.24611  Biso   1.000  C
  C136     1.0000 0.14127  0.01461  0.24611  Biso   1.000  C
  C137     1.0000 0.35873  0.51461  0.74611  Biso   1.000  C
  C138     1.0000 0.64127  0.98539  0.74611  Biso   1.000  C
  C139     1.0000 0.64127  0.01461  0.25389  Biso   1.000  C
  C140     1.0000 0.35873  0.48539  0.25389  Biso   1.000  C
  C141     1.0000 0.85873  0.01461  0.24611  Biso   1.000  C
  C142     1.0000 0.14127  0.48539  0.24611  Biso   1.000  C
  C143     1.0000 0.14127  0.51461  0.75389  Biso   1.000  C
  C144     1.0000 0.85873  0.98539  0.75389  Biso   1.000  C
  H33      1.0000 0.63570  0.46740  0.21830  Biso   1.000  H
  H34      1.0000 0.36430  0.03260  0.21830  Biso   1.000  H
  H35      1.0000 0.36430  0.96740  0.78170  Biso   1.000  H
  H36      1.0000 0.63570  0.53260  0.78170  Biso   1.000  H
  H37      1.0000 0.13570  0.96740  0.71830  Biso   1.000  H
  H38      1.0000 0.86430  0.53260  0.71830  Biso   1.000  H
  H39      1.0000 0.86430  0.46740  0.28170  Biso   1.000  H
  H40      1.0000 0.13570  0.03260  0.28170  Biso   1.000  H
  H41      1.0000 0.36430  0.53260  0.78170  Biso   1.000  H
  H42      1.0000 0.63570  0.96740  0.78170  Biso   1.000  H
  H43      1.0000 0.63570  0.03260  0.21830  Biso   1.000  H
  H44      1.0000 0.36430  0.46740  0.21830  Biso   1.000  H
  H45      1.0000 0.86430  0.03260  0.28170  Biso   1.000  H
  H46      1.0000 0.13570  0.46740  0.28170  Biso   1.000  H
  H47      1.0000 0.13570  0.53260  0.71830  Biso   1.000  H
  H48      1.0000 0.86430  0.96740  0.71830  Biso   1.000  H
  C145     1.0000 0.61400  0.54090  0.31155  Biso   1.000  C
  C146     1.0000 0.38600  0.95910  0.31155  Biso   1.000  C
  C147     1.0000 0.38600  0.04090  0.68845  Biso   1.000  C
  C148     1.0000 0.61400  0.45910  0.68845  Biso   1.000  C
  C149     1.0000 0.11400  0.04090  0.81155  Biso   1.000  C
  C150     1.0000 0.88600  0.45910  0.81155  Biso   1.000  C
  C151     1.0000 0.88600  0.54090  0.18845  Biso   1.000  C
  C152     1.0000 0.11400  0.95910  0.18845  Biso   1.000  C
  C153     1.0000 0.38600  0.45910  0.68845  Biso   1.000  C
  C154     1.0000 0.61400  0.04090  0.68845  Biso   1.000  C
  C155     1.0000 0.61400  0.95910  0.31155  Biso   1.000  C
  C156     1.0000 0.38600  0.54090  0.31155  Biso   1.000  C
  C157     1.0000 0.88600  0.95910  0.18845  Biso   1.000  C
  C158     1.0000 0.11400  0.54090  0.18845  Biso   1.000  C
  C159     1.0000 0.11400  0.45910  0.81155  Biso   1.000  C
  C160     1.0000 0.88600  0.04090  0.81155  Biso   1.000  C
  H49      1.0000 0.58920  0.56040  0.31650  Biso   1.000  H
  H50      1.0000 0.41080  0.93960  0.31650  Biso   1.000  H
  H51      1.0000 0.41080  0.06040  0.68350  Biso   1.000  H
  H52      1.0000 0.58920  0.43960  0.68350  Biso   1.000  H
  H53      1.0000 0.08920  0.06040  0.81650  Biso   1.000  H
  H54      1.0000 0.91080  0.43960  0.81650  Biso   1.000  H
  H55      1.0000 0.91080  0.56040  0.18350  Biso   1.000  H
  H56      1.0000 0.08920  0.93960  0.18350  Biso   1.000  H
  H57      1.0000 0.41080  0.43960  0.68350  Biso   1.000  H
  H58      1.0000 0.58920  0.06040  0.68350  Biso   1.000  H
  H59      1.0000 0.58920  0.93960  0.31650  Biso   1.000  H
  H60      1.0000 0.41080  0.56040  0.31650  Biso   1.000  H
  H61      1.0000 0.91080  0.93960  0.18350  Biso   1.000  H
  H62      1.0000 0.08920  0.56040  0.18350  Biso   1.000  H
  H63      1.0000 0.08920  0.43960  0.81650  Biso   1.000  H
  H64      1.0000 0.91080  0.06040  0.81650  Biso   1.000  H
  C161     1.0000 0.66051  0.53956  0.35632  Biso   1.000  C
  C162     1.0000 0.33949  0.96044  0.35632  Biso   1.000  C
  C163     1.0000 0.33949  0.03956  0.64368  Biso   1.000  C
  C164     1.0000 0.66051  0.46044  0.64368  Biso   1.000  C
  C165     1.0000 0.16051  0.03956  0.85632  Biso   1.000  C
  C166     1.0000 0.83949  0.46044  0.85632  Biso   1.000  C
  C167     1.0000 0.83949  0.53956  0.14368  Biso   1.000  C
  C168     1.0000 0.16051  0.96044  0.14368  Biso   1.000  C
  C169     1.0000 0.33949  0.46044  0.64368  Biso   1.000  C
  C170     1.0000 0.66051  0.03956  0.64368  Biso   1.000  C
  C171     1.0000 0.66051  0.96044  0.35632  Biso   1.000  C
  C172     1.0000 0.33949  0.53956  0.35632  Biso   1.000  C
  C173     1.0000 0.83949  0.96044  0.14368  Biso   1.000  C
  C174     1.0000 0.16051  0.53956  0.14368  Biso   1.000  C
  C175     1.0000 0.16051  0.46044  0.85632  Biso   1.000  C
  C176     1.0000 0.83949  0.03956  0.85632  Biso   1.000  C
  H65      1.0000 0.66730  0.55840  0.38980  Biso   1.000  H
  H66      1.0000 0.33270  0.94160  0.38980  Biso   1.000  H
  H67      1.0000 0.33270  0.05840  0.61020  Biso   1.000  H
  H68      1.0000 0.66730  0.44160  0.61020  Biso   1.000  H
  H69      1.0000 0.16730  0.05840  0.88980  Biso   1.000  H
  H70      1.0000 0.83270  0.44160  0.88980  Biso   1.000  H
  H71      1.0000 0.83270  0.55840  0.11020  Biso   1.000  H
  H72      1.0000 0.16730  0.94160  0.11020  Biso   1.000  H
  H73      1.0000 0.33270  0.44160  0.61020  Biso   1.000  H
  H74      1.0000 0.66730  0.05840  0.61020  Biso   1.000  H
  H75      1.0000 0.66730  0.94160  0.38980  Biso   1.000  H
  H76      1.0000 0.33270  0.55840  0.38980  Biso   1.000  H
  H77      1.0000 0.83270  0.94160  0.11020  Biso   1.000  H
  H78      1.0000 0.16730  0.55840  0.11020  Biso   1.000  H
  H79      1.0000 0.16730  0.44160  0.88980  Biso   1.000  H
  H80      1.0000 0.83270  0.05840  0.88980  Biso   1.000  H
  C177     1.0000 0.82072  0.67125  0.52510  Biso   1.000  C
  C178     1.0000 0.17928  0.82875  0.52510  Biso   1.000  C
  C179     1.0000 0.17928  0.17125  0.47490  Biso   1.000  C
  C180     1.0000 0.82072  0.32875  0.47490  Biso   1.000  C
  C181     1.0000 0.32072  0.17125  0.02510  Biso   1.000  C
  C182     1.0000 0.67928  0.32875  0.02510  Biso   1.000  C
  C183     1.0000 0.67928  0.67125  0.97490  Biso   1.000  C
  C184     1.0000 0.32072  0.82875  0.97490  Biso   1.000  C
  C185     1.0000 0.17928  0.32875  0.47490  Biso   1.000  C
  C186     1.0000 0.82072  0.17125  0.47490  Biso   1.000  C
  C187     1.0000 0.82072  0.82875  0.52510  Biso   1.000  C
  C188     1.0000 0.17928  0.67125  0.52510  Biso   1.000  C
  C189     1.0000 0.67928  0.82875  0.97490  Biso   1.000  C
  C190     1.0000 0.32072  0.67125  0.97490  Biso   1.000  C
  C191     1.0000 0.32072  0.32875  0.02510  Biso   1.000  C
  C192     1.0000 0.67928  0.17125  0.02510  Biso   1.000  C
  C193     1.0000 0.82048  0.71164  0.52890  Biso   1.000  C
  C194     1.0000 0.17952  0.78836  0.52890  Biso   1.000  C
  C195     1.0000 0.17952  0.21164  0.47110  Biso   1.000  C
  C196     1.0000 0.82048  0.28836  0.47110  Biso   1.000  C
  C197     1.0000 0.32048  0.21164  0.02890  Biso   1.000  C
  C198     1.0000 0.67952  0.28836  0.02890  Biso   1.000  C
  C199     1.0000 0.67952  0.71164  0.97110  Biso   1.000  C
  C200     1.0000 0.32048  0.78836  0.97110  Biso   1.000  C
  C201     1.0000 0.17952  0.28836  0.47110  Biso   1.000  C
  C202     1.0000 0.82048  0.21164  0.47110  Biso   1.000  C
  C203     1.0000 0.82048  0.78836  0.52890  Biso   1.000  C
  C204     1.0000 0.17952  0.71164  0.52890  Biso   1.000  C
  C205     1.0000 0.67952  0.78836  0.97110  Biso   1.000  C
  C206     1.0000 0.32048  0.71164  0.97110  Biso   1.000  C
  C207     1.0000 0.32048  0.28836  0.02890  Biso   1.000  C
  C208     1.0000 0.67952  0.21164  0.02890  Biso   1.000  C
  C209     1.0000 0.77764  0.61468  0.49350  Biso   1.000  C
  C210     1.0000 0.22236  0.88532  0.49350  Biso   1.000  C
  C211     1.0000 0.22236  0.11468  0.50650  Biso   1.000  C
  C212     1.0000 0.77764  0.38532  0.50650  Biso   1.000  C
  C213     1.0000 0.27764  0.11468  0.99350  Biso   1.000  C
  C214     1.0000 0.72236  0.38532  0.99350  Biso   1.000  C
  C215     1.0000 0.72236  0.61468  0.00650  Biso   1.000  C
  C216     1.0000 0.27764  0.88532  0.00650  Biso   1.000  C
  C217     1.0000 0.22236  0.38532  0.50650  Biso   1.000  C
  C218     1.0000 0.77764  0.11468  0.50650  Biso   1.000  C
  C219     1.0000 0.77764  0.88532  0.49350  Biso   1.000  C
  C220     1.0000 0.22236  0.61468  0.49350  Biso   1.000  C
  C221     1.0000 0.72236  0.88532  0.00650  Biso   1.000  C
  C222     1.0000 0.27764  0.61468  0.00650  Biso   1.000  C
  C223     1.0000 0.27764  0.38532  0.99350  Biso   1.000  C
  C224     1.0000 0.72236  0.11468  0.99350  Biso   1.000  C
  H81      1.0000 0.74690  0.60260  0.47400  Biso   1.000  H
  H82      1.0000 0.25310  0.89740  0.47400  Biso   1.000  H
  H83      1.0000 0.25310  0.10260  0.52600  Biso   1.000  H
  H84      1.0000 0.74690  0.39740  0.52600  Biso   1.000  H
  H85      1.0000 0.24690  0.10260  0.97400  Biso   1.000  H
  H86      1.0000 0.75310  0.39740  0.97400  Biso   1.000  H
  H87      1.0000 0.75310  0.60260  0.02600  Biso   1.000  H
  H88      1.0000 0.24690  0.89740  0.02600  Biso   1.000  H
  H89      1.0000 0.25310  0.39740  0.52600  Biso   1.000  H
  H90      1.0000 0.74690  0.10260  0.52600  Biso   1.000  H
  H91      1.0000 0.74690  0.89740  0.47400  Biso   1.000  H
  H92      1.0000 0.25310  0.60260  0.47400  Biso   1.000  H
  H93      1.0000 0.75310  0.89740  0.02600  Biso   1.000  H
  H94      1.0000 0.24690  0.60260  0.02600  Biso   1.000  H
  H95      1.0000 0.24690  0.39740  0.97400  Biso   1.000  H
  H96      1.0000 0.75310  0.10260  0.97400  Biso   1.000  H
  C225     1.0000 0.77610  0.65226  0.49710  Biso   1.000  C
  C226     1.0000 0.22390  0.84774  0.49710  Biso   1.000  C
  C227     1.0000 0.22390  0.15226  0.50290  Biso   1.000  C
  C228     1.0000 0.77610  0.34774  0.50290  Biso   1.000  C
  C229     1.0000 0.27610  0.15226  0.99710  Biso   1.000  C
  C230     1.0000 0.72390  0.34774  0.99710  Biso   1.000  C
  C231     1.0000 0.72390  0.65226  0.00290  Biso   1.000  C
  C232     1.0000 0.27610  0.84774  0.00290  Biso   1.000  C
  C233     1.0000 0.22390  0.34774  0.50290  Biso   1.000  C
  C234     1.0000 0.77610  0.15226  0.50290  Biso   1.000  C
  C235     1.0000 0.77610  0.84774  0.49710  Biso   1.000  C
  C236     1.0000 0.22390  0.65226  0.49710  Biso   1.000  C
  C237     1.0000 0.72390  0.84774  0.00290  Biso   1.000  C
  C238     1.0000 0.27610  0.65226  0.00290  Biso   1.000  C
  C239     1.0000 0.27610  0.34774  0.99710  Biso   1.000  C
  C240     1.0000 0.72390  0.15226  0.99710  Biso   1.000  C
  H97      1.0000 0.74480  0.66490  0.48060  Biso   1.000  H
  H98      1.0000 0.25520  0.83510  0.48060  Biso   1.000  H
  H99      1.0000 0.25520  0.16490  0.51940  Biso   1.000  H
  H100     1.0000 0.74480  0.33510  0.51940  Biso   1.000  H
  H101     1.0000 0.24480  0.16490  0.98060  Biso   1.000  H
  H102     1.0000 0.75520  0.33510  0.98060  Biso   1.000  H
  H103     1.0000 0.75520  0.66490  0.01940  Biso   1.000  H
  H104     1.0000 0.24480  0.83510  0.01940  Biso   1.000  H
  H105     1.0000 0.25520  0.33510  0.51940  Biso   1.000  H
  H106     1.0000 0.74480  0.16490  0.51940  Biso   1.000  H
  H107     1.0000 0.74480  0.83510  0.48060  Biso   1.000  H
  H108     1.0000 0.25520  0.66490  0.48060  Biso   1.000  H
  H109     1.0000 0.75520  0.83510  0.01940  Biso   1.000  H
  H110     1.0000 0.24480  0.66490  0.01940  Biso   1.000  H
  H111     1.0000 0.24480  0.33510  0.98060  Biso   1.000  H
  H112     1.0000 0.75520  0.16490  0.98060  Biso   1.000  H
  C241     1.0000 0.86422  0.64997  0.54990  Biso   1.000  C
  C242     1.0000 0.13578  0.85003  0.54990  Biso   1.000  C
  C243     1.0000 0.13578  0.14997  0.45010  Biso   1.000  C
  C244     1.0000 0.86422  0.35003  0.45010  Biso   1.000  C
  C245     1.0000 0.36422  0.14997  0.04990  Biso   1.000  C
  C246     1.0000 0.63578  0.35003  0.04990  Biso   1.000  C
  C247     1.0000 0.63578  0.64997  0.95010  Biso   1.000  C
  C248     1.0000 0.36422  0.85003  0.95010  Biso   1.000  C
  C249     1.0000 0.13578  0.35003  0.45010  Biso   1.000  C
  C250     1.0000 0.86422  0.14997  0.45010  Biso   1.000  C
  C251     1.0000 0.86422  0.85003  0.54990  Biso   1.000  C
  C252     1.0000 0.13578  0.64997  0.54990  Biso   1.000  C
  C253     1.0000 0.63578  0.85003  0.95010  Biso   1.000  C
  C254     1.0000 0.36422  0.64997  0.95010  Biso   1.000  C
  C255     1.0000 0.36422  0.35003  0.04990  Biso   1.000  C
  C256     1.0000 0.63578  0.14997  0.04990  Biso   1.000  C
  H113     1.0000 0.89520  0.66130  0.57070  Biso   1.000  H
  H114     1.0000 0.10480  0.83870  0.57070  Biso   1.000  H
  H115     1.0000 0.10480  0.16130  0.42930  Biso   1.000  H
  H116     1.0000 0.89520  0.33870  0.42930  Biso   1.000  H
  H117     1.0000 0.39520  0.16130  0.07070  Biso   1.000  H
  H118     1.0000 0.60480  0.33870  0.07070  Biso   1.000  H
  H119     1.0000 0.60480  0.66130  0.92930  Biso   1.000  H
  H120     1.0000 0.39520  0.83870  0.92930  Biso   1.000  H
  H121     1.0000 0.10480  0.33870  0.42930  Biso   1.000  H
  H122     1.0000 0.89520  0.16130  0.42930  Biso   1.000  H
  H123     1.0000 0.89520  0.83870  0.57070  Biso   1.000  H
  H124     1.0000 0.10480  0.66130  0.57070  Biso   1.000  H
  H125     1.0000 0.60480  0.83870  0.92930  Biso   1.000  H
  H126     1.0000 0.39520  0.66130  0.92930  Biso   1.000  H
  H127     1.0000 0.39520  0.33870  0.07070  Biso   1.000  H
  H128     1.0000 0.60480  0.16130  0.07070  Biso   1.000  H
  C257     1.0000 0.77300  0.73037  0.54040  Biso   1.000  C
  C258     1.0000 0.22700  0.76963  0.54040  Biso   1.000  C
  C259     1.0000 0.22700  0.23037  0.45960  Biso   1.000  C
  C260     1.0000 0.77300  0.26963  0.45960  Biso   1.000  C
  C261     1.0000 0.27300  0.23037  0.04040  Biso   1.000  C
  C262     1.0000 0.72700  0.26963  0.04040  Biso   1.000  C
  C263     1.0000 0.72700  0.73037  0.95960  Biso   1.000  C
  C264     1.0000 0.27300  0.76963  0.95960  Biso   1.000  C
  C265     1.0000 0.22700  0.26963  0.45960  Biso   1.000  C
  C266     1.0000 0.77300  0.23037  0.45960  Biso   1.000  C
  C267     1.0000 0.77300  0.76963  0.54040  Biso   1.000  C
  C268     1.0000 0.22700  0.73037  0.54040  Biso   1.000  C
  C269     1.0000 0.72700  0.76963  0.95960  Biso   1.000  C
  C270     1.0000 0.27300  0.73037  0.95960  Biso   1.000  C
  C271     1.0000 0.27300  0.26963  0.04040  Biso   1.000  C
  C272     1.0000 0.72700  0.23037  0.04040  Biso   1.000  C
  H129     1.0000 0.73990  0.71770  0.54850  Biso   1.000  H
  H130     1.0000 0.26010  0.78230  0.54850  Biso   1.000  H
  H131     1.0000 0.26010  0.21770  0.45150  Biso   1.000  H
  H132     1.0000 0.73990  0.28230  0.45150  Biso   1.000  H
  H133     1.0000 0.23990  0.21770  0.04850  Biso   1.000  H
  H134     1.0000 0.76010  0.28230  0.04850  Biso   1.000  H
  H135     1.0000 0.76010  0.71770  0.95150  Biso   1.000  H
  H136     1.0000 0.23990  0.78230  0.95150  Biso   1.000  H
  H137     1.0000 0.26010  0.28230  0.45150  Biso   1.000  H
  H138     1.0000 0.73990  0.21770  0.45150  Biso   1.000  H
  H139     1.0000 0.73990  0.78230  0.54850  Biso   1.000  H
  H140     1.0000 0.26010  0.71770  0.54850  Biso   1.000  H
  H141     1.0000 0.76010  0.78230  0.95150  Biso   1.000  H
  H142     1.0000 0.23990  0.71770  0.95150  Biso   1.000  H
  H143     1.0000 0.23990  0.28230  0.04850  Biso   1.000  H
  H144     1.0000 0.76010  0.21770  0.04850  Biso   1.000  H
  C273     1.0000 0.87030  0.73116  0.52040  Biso   1.000  C
  C274     1.0000 0.12970  0.76884  0.52040  Biso   1.000  C
  C275     1.0000 0.12970  0.23116  0.47960  Biso   1.000  C
  C276     1.0000 0.87030  0.26884  0.47960  Biso   1.000  C
  C277     1.0000 0.37030  0.23116  0.02040  Biso   1.000  C
  C278     1.0000 0.62970  0.26884  0.02040  Biso   1.000  C
  C279     1.0000 0.62970  0.73116  0.97960  Biso   1.000  C
  C280     1.0000 0.37030  0.76884  0.97960  Biso   1.000  C
  C281     1.0000 0.12970  0.26884  0.47960  Biso   1.000  C
  C282     1.0000 0.87030  0.23116  0.47960  Biso   1.000  C
  C283     1.0000 0.87030  0.76884  0.52040  Biso   1.000  C
  C284     1.0000 0.12970  0.73116  0.52040  Biso   1.000  C
  C285     1.0000 0.62970  0.76884  0.97960  Biso   1.000  C
  C286     1.0000 0.37030  0.73116  0.97960  Biso   1.000  C
  C287     1.0000 0.37030  0.26884  0.02040  Biso   1.000  C
  C288     1.0000 0.62970  0.23116  0.02040  Biso   1.000  C
  H145     1.0000 0.90370  0.71850  0.51480  Biso   1.000  H
  H146     1.0000 0.09630  0.78150  0.51480  Biso   1.000  H
  H147     1.0000 0.09630  0.21850  0.48520  Biso   1.000  H
  H148     1.0000 0.90370  0.28150  0.48520  Biso   1.000  H
  H149     1.0000 0.40370  0.21850  0.01480  Biso   1.000  H
  H150     1.0000 0.59630  0.28150  0.01480  Biso   1.000  H
  H151     1.0000 0.59630  0.71850  0.98520  Biso   1.000  H
  H152     1.0000 0.40370  0.78150  0.98520  Biso   1.000  H
  H153     1.0000 0.09630  0.28150  0.48520  Biso   1.000  H
  H154     1.0000 0.90370  0.21850  0.48520  Biso   1.000  H
  H155     1.0000 0.90370  0.78150  0.51480  Biso   1.000  H
  H156     1.0000 0.09630  0.71850  0.51480  Biso   1.000  H
  H157     1.0000 0.59630  0.78150  0.98520  Biso   1.000  H
  H158     1.0000 0.40370  0.71850  0.98520  Biso   1.000  H
  H159     1.0000 0.40370  0.28150  0.01480  Biso   1.000  H
  H160     1.0000 0.59630  0.21850  0.01480  Biso   1.000  H
  C289     1.0000 0.86280  0.61346  0.54490  Biso   1.000  C
  C290     1.0000 0.13720  0.88654  0.54490  Biso   1.000  C
  C291     1.0000 0.13720  0.11346  0.45510  Biso   1.000  C
  C292     1.0000 0.86280  0.38654  0.45510  Biso   1.000  C
  C293     1.0000 0.36280  0.11346  0.04490  Biso   1.000  C
  C294     1.0000 0.63720  0.38654  0.04490  Biso   1.000  C
  C295     1.0000 0.63720  0.61346  0.95510  Biso   1.000  C
  C296     1.0000 0.36280  0.88654  0.95510  Biso   1.000  C
  C297     1.0000 0.13720  0.38654  0.45510  Biso   1.000  C
  C298     1.0000 0.86280  0.11346  0.45510  Biso   1.000  C
  C299     1.0000 0.86280  0.88654  0.54490  Biso   1.000  C
  C300     1.0000 0.13720  0.61346  0.54490  Biso   1.000  C
  C301     1.0000 0.63720  0.88654  0.95510  Biso   1.000  C
  C302     1.0000 0.36280  0.61346  0.95510  Biso   1.000  C
  C303     1.0000 0.36280  0.38654  0.04490  Biso   1.000  C
  C304     1.0000 0.63720  0.11346  0.04490  Biso   1.000  C
  H161     1.0000 0.89330  0.60050  0.56270  Biso   1.000  H
  H162     1.0000 0.10670  0.89950  0.56270  Biso   1.000  H
  H163     1.0000 0.10670  0.10050  0.43730  Biso   1.000  H
  H164     1.0000 0.89330  0.39950  0.43730  Biso   1.000  H
  H165     1.0000 0.39330  0.10050  0.06270  Biso   1.000  H
  H166     1.0000 0.60670  0.39950  0.06270  Biso   1.000  H
  H167     1.0000 0.60670  0.60050  0.93730  Biso   1.000  H
  H168     1.0000 0.39330  0.89950  0.93730  Biso   1.000  H
  H169     1.0000 0.10670  0.39950  0.43730  Biso   1.000  H
  H170     1.0000 0.89330  0.10050  0.43730  Biso   1.000  H
  H171     1.0000 0.89330  0.89950  0.56270  Biso   1.000  H
  H172     1.0000 0.10670  0.60050  0.56270  Biso   1.000  H
  H173     1.0000 0.60670  0.89950  0.93730  Biso   1.000  H
  H174     1.0000 0.39330  0.60050  0.93730  Biso   1.000  H
  H175     1.0000 0.39330  0.39950  0.06270  Biso   1.000  H
  H176     1.0000 0.60670  0.10050  0.06270  Biso   1.000  H
