data_image0
_cell_length_a       24.196
_cell_length_b       34.187
_cell_length_c       17.8563
_cell_angle_alpha    90
_cell_angle_beta     90
_cell_angle_gamma    90

_symmetry_space_group_name_H-M    "P 1"
_symmetry_int_tables_number       1

loop_
  _symmetry_equiv_pos_as_xyz
  'x, y, z'

loop_
  _atom_site_label
  _atom_site_occupancy
  _atom_site_fract_x
  _atom_site_fract_y
  _atom_site_fract_z
  _atom_site_thermal_displace_type
  _atom_site_B_iso_or_equiv
  _atom_site_type_symbol
  Cu1      1.0000 0.32313  0.04004  0.48723  Biso   1.000  Cu
  Cu2      1.0000 0.67687  0.45996  0.48723  Biso   1.000  Cu
  Cu3      1.0000 0.32313  0.95996  0.51277  Biso   1.000  Cu
  Cu4      1.0000 0.67687  0.54004  0.51277  Biso   1.000  Cu
  Cu5      1.0000 0.82313  0.54004  0.98723  Biso   1.000  Cu
  Cu6      1.0000 0.17687  0.95996  0.98723  Biso   1.000  Cu
  Cu7      1.0000 0.82313  0.45996  0.01277  Biso   1.000  Cu
  Cu8      1.0000 0.17687  0.04004  0.01277  Biso   1.000  Cu
  Cu9      1.0000 0.67687  0.95996  0.51277  Biso   1.000  Cu
  Cu10     1.0000 0.32313  0.54004  0.51277  Biso   1.000  Cu
  Cu11     1.0000 0.67687  0.04004  0.48723  Biso   1.000  Cu
  Cu12     1.0000 0.32313  0.45996  0.48723  Biso   1.000  Cu
  Cu13     1.0000 0.17687  0.45996  0.01277  Biso   1.000  Cu
  Cu14     1.0000 0.82313  0.04004  0.01277  Biso   1.000  Cu
  Cu15     1.0000 0.17687  0.54004  0.98723  Biso   1.000  Cu
  Cu16     1.0000 0.82313  0.95996  0.98723  Biso   1.000  Cu
  O1       1.0000 0.25796  0.03949  0.55334  Biso   1.000  O
  O2       1.0000 0.74204  0.46051  0.55334  Biso   1.000  O
  O3       1.0000 0.25796  0.96051  0.44666  Biso   1.000  O
  O4       1.0000 0.74204  0.53949  0.44666  Biso   1.000  O
  O5       1.0000 0.75796  0.53949  0.05334  Biso   1.000  O
  O6       1.0000 0.24204  0.96051  0.05334  Biso   1.000  O
  O7       1.0000 0.75796  0.46051  0.94666  Biso   1.000  O
  O8       1.0000 0.24204  0.03949  0.94666  Biso   1.000  O
  O9       1.0000 0.74204  0.96051  0.44666  Biso   1.000  O
  O10      1.0000 0.25796  0.53949  0.44666  Biso   1.000  O
  O11      1.0000 0.74204  0.03949  0.55334  Biso   1.000  O
  O12      1.0000 0.25796  0.46051  0.55334  Biso   1.000  O
  O13      1.0000 0.24204  0.46051  0.94666  Biso   1.000  O
  O14      1.0000 0.75796  0.03949  0.94666  Biso   1.000  O
  O15      1.0000 0.24204  0.53949  0.05334  Biso   1.000  O
  O16      1.0000 0.75796  0.96051  0.05334  Biso   1.000  O
  O17      1.0000 0.12660  0.04028  0.92037  Biso   1.000  O
  O18      1.0000 0.87340  0.45972  0.92037  Biso   1.000  O
  O19      1.0000 0.12660  0.95972  0.07963  Biso   1.000  O
  O20      1.0000 0.87340  0.54028  0.07963  Biso   1.000  O
  O21      1.0000 0.62660  0.54028  0.42037  Biso   1.000  O
  O22      1.0000 0.37340  0.95972  0.42037  Biso   1.000  O
  O23      1.0000 0.62660  0.45972  0.57963  Biso   1.000  O
  O24      1.0000 0.37340  0.04028  0.57963  Biso   1.000  O
  O25      1.0000 0.87340  0.95972  0.07963  Biso   1.000  O
  O26      1.0000 0.12660  0.54028  0.07963  Biso   1.000  O
  O27      1.0000 0.87340  0.04028  0.92037  Biso   1.000  O
  O28      1.0000 0.12660  0.45972  0.92037  Biso   1.000  O
  O29      1.0000 0.37340  0.45972  0.57963  Biso   1.000  O
  O30      1.0000 0.62660  0.04028  0.57963  Biso   1.000  O
  O31      1.0000 0.37340  0.54028  0.42037  Biso   1.000  O
  O32      1.0000 0.62660  0.95972  0.42037  Biso   1.000  O
  O33      1.0000 0.11107  0.97529  0.92761  Biso   1.000  O
  O34      1.0000 0.88893  0.52471  0.92761  Biso   1.000  O
  O35      1.0000 0.11107  0.02471  0.07239  Biso   1.000  O
  O36      1.0000 0.88893  0.47529  0.07239  Biso   1.000  O
  O37      1.0000 0.61107  0.47529  0.42761  Biso   1.000  O
  O38      1.0000 0.38893  0.02471  0.42761  Biso   1.000  O
  O39      1.0000 0.61107  0.52471  0.57239  Biso   1.000  O
  O40      1.0000 0.38893  0.97529  0.57239  Biso   1.000  O
  O41      1.0000 0.88893  0.02471  0.07239  Biso   1.000  O
  O42      1.0000 0.11107  0.47529  0.07239  Biso   1.000  O
  O43      1.0000 0.88893  0.97529  0.92761  Biso   1.000  O
  O44      1.0000 0.11107  0.52471  0.92761  Biso   1.000  O
  O45      1.0000 0.38893  0.52471  0.57239  Biso   1.000  O
  O46      1.0000 0.61107  0.97529  0.57239  Biso   1.000  O
  O47      1.0000 0.38893  0.47529  0.42761  Biso   1.000  O
  O48      1.0000 0.61107  0.02471  0.42761  Biso   1.000  O
  C1       1.0000 0.05005  0.01324  0.85560  Biso   1.000  C
  C2       1.0000 0.94995  0.48676  0.85560  Biso   1.000  C
  C3       1.0000 0.05005  0.98676  0.14440  Biso   1.000  C
  C4       1.0000 0.94995  0.51324  0.14440  Biso   1.000  C
  C5       1.0000 0.55005  0.51324  0.35560  Biso   1.000  C
  C6       1.0000 0.44995  0.98676  0.35560  Biso   1.000  C
  C7       1.0000 0.55005  0.48676  0.64440  Biso   1.000  C
  C8       1.0000 0.44995  0.01324  0.64440  Biso   1.000  C
  C9       1.0000 0.94995  0.98676  0.14440  Biso   1.000  C
  C10      1.0000 0.05005  0.51324  0.14440  Biso   1.000  C
  C11      1.0000 0.94995  0.01324  0.85560  Biso   1.000  C
  C12      1.0000 0.05005  0.48676  0.85560  Biso   1.000  C
  C13      1.0000 0.44995  0.48676  0.64440  Biso   1.000  C
  C14      1.0000 0.55005  0.01324  0.64440  Biso   1.000  C
  C15      1.0000 0.44995  0.51324  0.35560  Biso   1.000  C
  C16      1.0000 0.55005  0.98676  0.35560  Biso   1.000  C
  O49      1.0000 0.27234  0.97856  0.59620  Biso   1.000  O
  O50      1.0000 0.72766  0.52144  0.59620  Biso   1.000  O
  O51      1.0000 0.27234  0.02144  0.40380  Biso   1.000  O
  O52      1.0000 0.72766  0.47856  0.40380  Biso   1.000  O
  O53      1.0000 0.77234  0.47856  0.09620  Biso   1.000  O
  O54      1.0000 0.22766  0.02144  0.09620  Biso   1.000  O
  O55      1.0000 0.77234  0.52144  0.90380  Biso   1.000  O
  O56      1.0000 0.22766  0.97856  0.90380  Biso   1.000  O
  O57      1.0000 0.72766  0.02144  0.40380  Biso   1.000  O
  O58      1.0000 0.27234  0.47856  0.40380  Biso   1.000  O
  O59      1.0000 0.72766  0.97856  0.59620  Biso   1.000  O
  O60      1.0000 0.27234  0.52144  0.59620  Biso   1.000  O
  O61      1.0000 0.22766  0.52144  0.90380  Biso   1.000  O
  O62      1.0000 0.77234  0.97856  0.90380  Biso   1.000  O
  O63      1.0000 0.22766  0.47856  0.09620  Biso   1.000  O
  O64      1.0000 0.77234  0.02144  0.09620  Biso   1.000  O
  C17      1.0000 0.19840  0.01412  0.64530  Biso   1.000  C
  C18      1.0000 0.80160  0.48588  0.64530  Biso   1.000  C
  C19      1.0000 0.19840  0.98588  0.35470  Biso   1.000  C
  C20      1.0000 0.80160  0.51412  0.35470  Biso   1.000  C
  C21      1.0000 0.69840  0.51412  0.14530  Biso   1.000  C
  C22      1.0000 0.30160  0.98588  0.14530  Biso   1.000  C
  C23      1.0000 0.69840  0.48588  0.85470  Biso   1.000  C
  C24      1.0000 0.30160  0.01412  0.85470  Biso   1.000  C
  C25      1.0000 0.80160  0.98588  0.35470  Biso   1.000  C
  C26      1.0000 0.19840  0.51412  0.35470  Biso   1.000  C
  C27      1.0000 0.80160  0.01412  0.64530  Biso   1.000  C
  C28      1.0000 0.19840  0.48588  0.64530  Biso   1.000  C
  C29      1.0000 0.30160  0.48588  0.85470  Biso   1.000  C
  C30      1.0000 0.69840  0.01412  0.85470  Biso   1.000  C
  C31      1.0000 0.30160  0.51412  0.14530  Biso   1.000  C
  C32      1.0000 0.69840  0.98588  0.14530  Biso   1.000  C
  N1       1.0000 0.32897  0.09822  0.46060  Biso   1.000  N
  N2       1.0000 0.67103  0.40178  0.46060  Biso   1.000  N
  N3       1.0000 0.32897  0.90178  0.53940  Biso   1.000  N
  N4       1.0000 0.67103  0.59822  0.53940  Biso   1.000  N
  N5       1.0000 0.82897  0.59822  0.96060  Biso   1.000  N
  N6       1.0000 0.17103  0.90178  0.96060  Biso   1.000  N
  N7       1.0000 0.82897  0.40178  0.03940  Biso   1.000  N
  N8       1.0000 0.17103  0.09822  0.03940  Biso   1.000  N
  N9       1.0000 0.67103  0.90178  0.53940  Biso   1.000  N
  N10      1.0000 0.32897  0.59822  0.53940  Biso   1.000  N
  N11      1.0000 0.67103  0.09822  0.46060  Biso   1.000  N
  N12      1.0000 0.32897  0.40178  0.46060  Biso   1.000  N
  N13      1.0000 0.17103  0.40178  0.03940  Biso   1.000  N
  N14      1.0000 0.82897  0.09822  0.03940  Biso   1.000  N
  N15      1.0000 0.17103  0.59822  0.96060  Biso   1.000  N
  N16      1.0000 0.82897  0.90178  0.96060  Biso   1.000  N
  C33      1.0000 0.10121  0.01014  0.90360  Biso   1.000  C
  C34      1.0000 0.89879  0.48986  0.90360  Biso   1.000  C
  C35      1.0000 0.10121  0.98986  0.09640  Biso   1.000  C
  C36      1.0000 0.89879  0.51014  0.09640  Biso   1.000  C
  C37      1.0000 0.60121  0.51014  0.40360  Biso   1.000  C
  C38      1.0000 0.39879  0.98986  0.40360  Biso   1.000  C
  C39      1.0000 0.60121  0.48986  0.59640  Biso   1.000  C
  C40      1.0000 0.39879  0.01014  0.59640  Biso   1.000  C
  C41      1.0000 0.89879  0.98986  0.09640  Biso   1.000  C
  C42      1.0000 0.10121  0.51014  0.09640  Biso   1.000  C
  C43      1.0000 0.89879  0.01014  0.90360  Biso   1.000  C
  C44      1.0000 0.10121  0.48986  0.90360  Biso   1.000  C
  C45      1.0000 0.39879  0.48986  0.59640  Biso   1.000  C
  C46      1.0000 0.60121  0.01014  0.59640  Biso   1.000  C
  C47      1.0000 0.39879  0.51014  0.40360  Biso   1.000  C
  C48      1.0000 0.60121  0.98986  0.40360  Biso   1.000  C
  C49      1.0000 0.24736  0.01115  0.59420  Biso   1.000  C
  C50      1.0000 0.75264  0.48885  0.59420  Biso   1.000  C
  C51      1.0000 0.24736  0.98885  0.40580  Biso   1.000  C
  C52      1.0000 0.75264  0.51115  0.40580  Biso   1.000  C
  C53      1.0000 0.74736  0.51115  0.09420  Biso   1.000  C
  C54      1.0000 0.25264  0.98885  0.09420  Biso   1.000  C
  C55      1.0000 0.74736  0.48885  0.90580  Biso   1.000  C
  C56      1.0000 0.25264  0.01115  0.90580  Biso   1.000  C
  C57      1.0000 0.75264  0.98885  0.40580  Biso   1.000  C
  C58      1.0000 0.24736  0.51115  0.40580  Biso   1.000  C
  C59      1.0000 0.75264  0.01115  0.59420  Biso   1.000  C
  C60      1.0000 0.24736  0.48885  0.59420  Biso   1.000  C
  C61      1.0000 0.25264  0.48885  0.90580  Biso   1.000  C
  C62      1.0000 0.74736  0.01115  0.90580  Biso   1.000  C
  C63      1.0000 0.25264  0.51115  0.09420  Biso   1.000  C
  C64      1.0000 0.74736  0.98885  0.09420  Biso   1.000  C
  C65      1.0000 0.00000  0.02300  0.74110  Biso   1.000  C
  C66      1.0000 0.00000  0.47700  0.74110  Biso   1.000  C
  C67      1.0000 0.00000  0.97700  0.25890  Biso   1.000  C
  C68      1.0000 0.00000  0.52300  0.25890  Biso   1.000  C
  C69      1.0000 0.50000  0.52300  0.24110  Biso   1.000  C
  C70      1.0000 0.50000  0.97700  0.24110  Biso   1.000  C
  C71      1.0000 0.50000  0.47700  0.75890  Biso   1.000  C
  C72      1.0000 0.50000  0.02300  0.75890  Biso   1.000  C
  H1       1.0000 0.00000  0.02700  0.68960  Biso   1.000  H
  H2       1.0000 0.00000  0.47300  0.68960  Biso   1.000  H
  H3       1.0000 0.00000  0.97300  0.31040  Biso   1.000  H
  H4       1.0000 0.00000  0.52700  0.31040  Biso   1.000  H
  H5       1.0000 0.50000  0.52700  0.18960  Biso   1.000  H
  H6       1.0000 0.50000  0.97300  0.18960  Biso   1.000  H
  H7       1.0000 0.50000  0.47300  0.81040  Biso   1.000  H
  H8       1.0000 0.50000  0.02700  0.81040  Biso   1.000  H
  C73      1.0000 0.00000  0.01070  0.89190  Biso   1.000  C
  C74      1.0000 0.00000  0.48930  0.89190  Biso   1.000  C
  C75      1.0000 0.00000  0.98930  0.10810  Biso   1.000  C
  C76      1.0000 0.00000  0.51070  0.10810  Biso   1.000  C
  C77      1.0000 0.50000  0.51070  0.39190  Biso   1.000  C
  C78      1.0000 0.50000  0.98930  0.39190  Biso   1.000  C
  C79      1.0000 0.50000  0.48930  0.60810  Biso   1.000  C
  C80      1.0000 0.50000  0.01070  0.60810  Biso   1.000  C
  H9       1.0000 0.00000  0.00710  0.94350  Biso   1.000  H
  H10      1.0000 0.00000  0.49290  0.94350  Biso   1.000  H
  H11      1.0000 0.00000  0.99290  0.05650  Biso   1.000  H
  H12      1.0000 0.00000  0.50710  0.05650  Biso   1.000  H
  H13      1.0000 0.50000  0.50710  0.44350  Biso   1.000  H
  H14      1.0000 0.50000  0.99290  0.44350  Biso   1.000  H
  H15      1.0000 0.50000  0.49290  0.55650  Biso   1.000  H
  H16      1.0000 0.50000  0.00710  0.55650  Biso   1.000  H
  C81      1.0000 0.16070  0.04635  0.63680  Biso   1.000  C
  C82      1.0000 0.83930  0.45365  0.63680  Biso   1.000  C
  C83      1.0000 0.16070  0.95365  0.36320  Biso   1.000  C
  C84      1.0000 0.83930  0.54635  0.36320  Biso   1.000  C
  C85      1.0000 0.66070  0.54635  0.13680  Biso   1.000  C
  C86      1.0000 0.33930  0.95365  0.13680  Biso   1.000  C
  C87      1.0000 0.66070  0.45365  0.86320  Biso   1.000  C
  C88      1.0000 0.33930  0.04635  0.86320  Biso   1.000  C
  C89      1.0000 0.83930  0.95365  0.36320  Biso   1.000  C
  C90      1.0000 0.16070  0.54635  0.36320  Biso   1.000  C
  C91      1.0000 0.83930  0.04635  0.63680  Biso   1.000  C
  C92      1.0000 0.16070  0.45365  0.63680  Biso   1.000  C
  C93      1.0000 0.33930  0.45365  0.86320  Biso   1.000  C
  C94      1.0000 0.66070  0.04635  0.86320  Biso   1.000  C
  C95      1.0000 0.33930  0.54635  0.13680  Biso   1.000  C
  C96      1.0000 0.66070  0.95365  0.13680  Biso   1.000  C
  H17      1.0000 0.16830  0.06580  0.60200  Biso   1.000  H
  H18      1.0000 0.83170  0.43420  0.60200  Biso   1.000  H
  H19      1.0000 0.16830  0.93420  0.39800  Biso   1.000  H
  H20      1.0000 0.83170  0.56580  0.39800  Biso   1.000  H
  H21      1.0000 0.66830  0.56580  0.10200  Biso   1.000  H
  H22      1.0000 0.33170  0.93420  0.10200  Biso   1.000  H
  H23      1.0000 0.66830  0.43420  0.89800  Biso   1.000  H
  H24      1.0000 0.33170  0.06580  0.89800  Biso   1.000  H
  H25      1.0000 0.83170  0.93420  0.39800  Biso   1.000  H
  H26      1.0000 0.16830  0.56580  0.39800  Biso   1.000  H
  H27      1.0000 0.83170  0.06580  0.60200  Biso   1.000  H
  H28      1.0000 0.16830  0.43420  0.60200  Biso   1.000  H
  H29      1.0000 0.33170  0.43420  0.89800  Biso   1.000  H
  H30      1.0000 0.66830  0.06580  0.89800  Biso   1.000  H
  H31      1.0000 0.33170  0.56580  0.10200  Biso   1.000  H
  H32      1.0000 0.66830  0.93420  0.10200  Biso   1.000  H
  C97      1.0000 0.11370  0.04873  0.67950  Biso   1.000  C
  C98      1.0000 0.88630  0.45127  0.67950  Biso   1.000  C
  C99      1.0000 0.11370  0.95127  0.32050  Biso   1.000  C
  C100     1.0000 0.88630  0.54873  0.32050  Biso   1.000  C
  C101     1.0000 0.61370  0.54873  0.17950  Biso   1.000  C
  C102     1.0000 0.38630  0.95127  0.17950  Biso   1.000  C
  C103     1.0000 0.61370  0.45127  0.82050  Biso   1.000  C
  C104     1.0000 0.38630  0.04873  0.82050  Biso   1.000  C
  C105     1.0000 0.88630  0.95127  0.32050  Biso   1.000  C
  C106     1.0000 0.11370  0.54873  0.32050  Biso   1.000  C
  C107     1.0000 0.88630  0.04873  0.67950  Biso   1.000  C
  C108     1.0000 0.11370  0.45127  0.67950  Biso   1.000  C
  C109     1.0000 0.38630  0.45127  0.82050  Biso   1.000  C
  C110     1.0000 0.61370  0.04873  0.82050  Biso   1.000  C
  C111     1.0000 0.38630  0.54873  0.17950  Biso   1.000  C
  C112     1.0000 0.61370  0.95127  0.17950  Biso   1.000  C
  H33      1.0000 0.08880  0.06920  0.67260  Biso   1.000  H
  H34      1.0000 0.91120  0.43080  0.67260  Biso   1.000  H
  H35      1.0000 0.08880  0.93080  0.32740  Biso   1.000  H
  H36      1.0000 0.91120  0.56920  0.32740  Biso   1.000  H
  H37      1.0000 0.58880  0.56920  0.17260  Biso   1.000  H
  H38      1.0000 0.41120  0.93080  0.17260  Biso   1.000  H
  H39      1.0000 0.58880  0.43080  0.82740  Biso   1.000  H
  H40      1.0000 0.41120  0.06920  0.82740  Biso   1.000  H
  H41      1.0000 0.91120  0.93080  0.32740  Biso   1.000  H
  H42      1.0000 0.08880  0.56920  0.32740  Biso   1.000  H
  H43      1.0000 0.91120  0.06920  0.67260  Biso   1.000  H
  H44      1.0000 0.08880  0.43080  0.67260  Biso   1.000  H
  H45      1.0000 0.41120  0.43080  0.82740  Biso   1.000  H
  H46      1.0000 0.58880  0.06920  0.82740  Biso   1.000  H
  H47      1.0000 0.41120  0.56920  0.17260  Biso   1.000  H
  H48      1.0000 0.58880  0.93080  0.17260  Biso   1.000  H
  C113     1.0000 0.18732  0.98718  0.70050  Biso   1.000  C
  C114     1.0000 0.81268  0.51282  0.70050  Biso   1.000  C
  C115     1.0000 0.18732  0.01282  0.29950  Biso   1.000  C
  C116     1.0000 0.81268  0.48718  0.29950  Biso   1.000  C
  C117     1.0000 0.68732  0.48718  0.20050  Biso   1.000  C
  C118     1.0000 0.31268  0.01282  0.20050  Biso   1.000  C
  C119     1.0000 0.68732  0.51282  0.79950  Biso   1.000  C
  C120     1.0000 0.31268  0.98718  0.79950  Biso   1.000  C
  C121     1.0000 0.81268  0.01282  0.29950  Biso   1.000  C
  C122     1.0000 0.18732  0.48718  0.29950  Biso   1.000  C
  C123     1.0000 0.81268  0.98718  0.70050  Biso   1.000  C
  C124     1.0000 0.18732  0.51282  0.70050  Biso   1.000  C
  C125     1.0000 0.31268  0.51282  0.79950  Biso   1.000  C
  C126     1.0000 0.68732  0.98718  0.79950  Biso   1.000  C
  C127     1.0000 0.31268  0.48718  0.20050  Biso   1.000  C
  C128     1.0000 0.68732  0.01282  0.20050  Biso   1.000  C
  H49      1.0000 0.21150  0.96640  0.70830  Biso   1.000  H
  H50      1.0000 0.78850  0.53360  0.70830  Biso   1.000  H
  H51      1.0000 0.21150  0.03360  0.29170  Biso   1.000  H
  H52      1.0000 0.78850  0.46640  0.29170  Biso   1.000  H
  H53      1.0000 0.71150  0.46640  0.20830  Biso   1.000  H
  H54      1.0000 0.28850  0.03360  0.20830  Biso   1.000  H
  H55      1.0000 0.71150  0.53360  0.79170  Biso   1.000  H
  H56      1.0000 0.28850  0.96640  0.79170  Biso   1.000  H
  H57      1.0000 0.78850  0.03360  0.29170  Biso   1.000  H
  H58      1.0000 0.21150  0.46640  0.29170  Biso   1.000  H
  H59      1.0000 0.78850  0.96640  0.70830  Biso   1.000  H
  H60      1.0000 0.21150  0.53360  0.70830  Biso   1.000  H
  H61      1.0000 0.28850  0.53360  0.79170  Biso   1.000  H
  H62      1.0000 0.71150  0.96640  0.79170  Biso   1.000  H
  H63      1.0000 0.28850  0.46640  0.20830  Biso   1.000  H
  H64      1.0000 0.71150  0.03360  0.20830  Biso   1.000  H
  C129     1.0000 0.14130  0.99051  0.74390  Biso   1.000  C
  C130     1.0000 0.85870  0.50949  0.74390  Biso   1.000  C
  C131     1.0000 0.14130  0.00949  0.25610  Biso   1.000  C
  C132     1.0000 0.85870  0.49051  0.25610  Biso   1.000  C
  C133     1.0000 0.64130  0.49051  0.24390  Biso   1.000  C
  C134     1.0000 0.35870  0.00949  0.24390  Biso   1.000  C
  C135     1.0000 0.64130  0.50949  0.75610  Biso   1.000  C
  C136     1.0000 0.35870  0.99051  0.75610  Biso   1.000  C
  C137     1.0000 0.85870  0.00949  0.25610  Biso   1.000  C
  C138     1.0000 0.14130  0.49051  0.25610  Biso   1.000  C
  C139     1.0000 0.85870  0.99051  0.74390  Biso   1.000  C
  C140     1.0000 0.14130  0.50949  0.74390  Biso   1.000  C
  C141     1.0000 0.35870  0.50949  0.75610  Biso   1.000  C
  C142     1.0000 0.64130  0.99051  0.75610  Biso   1.000  C
  C143     1.0000 0.35870  0.49051  0.24390  Biso   1.000  C
  C144     1.0000 0.64130  0.00949  0.24390  Biso   1.000  C
  H65      1.0000 0.13540  0.97230  0.78180  Biso   1.000  H
  H66      1.0000 0.86460  0.52770  0.78180  Biso   1.000  H
  H67      1.0000 0.13540  0.02770  0.21820  Biso   1.000  H
  H68      1.0000 0.86460  0.47230  0.21820  Biso   1.000  H
  H69      1.0000 0.63540  0.47230  0.28180  Biso   1.000  H
  H70      1.0000 0.36460  0.02770  0.28180  Biso   1.000  H
  H71      1.0000 0.63540  0.52770  0.71820  Biso   1.000  H
  H72      1.0000 0.36460  0.97230  0.71820  Biso   1.000  H
  H73      1.0000 0.86460  0.02770  0.21820  Biso   1.000  H
  H74      1.0000 0.13540  0.47230  0.21820  Biso   1.000  H
  H75      1.0000 0.86460  0.97230  0.78180  Biso   1.000  H
  H76      1.0000 0.13540  0.52770  0.78180  Biso   1.000  H
  H77      1.0000 0.36460  0.52770  0.71820  Biso   1.000  H
  H78      1.0000 0.63540  0.97230  0.71820  Biso   1.000  H
  H79      1.0000 0.36460  0.47230  0.28180  Biso   1.000  H
  H80      1.0000 0.63540  0.02770  0.28180  Biso   1.000  H
  C145     1.0000 0.05136  0.02011  0.77830  Biso   1.000  C
  C146     1.0000 0.94864  0.47989  0.77830  Biso   1.000  C
  C147     1.0000 0.05136  0.97989  0.22170  Biso   1.000  C
  C148     1.0000 0.94864  0.52011  0.22170  Biso   1.000  C
  C149     1.0000 0.55136  0.52011  0.27830  Biso   1.000  C
  C150     1.0000 0.44864  0.97989  0.27830  Biso   1.000  C
  C151     1.0000 0.55136  0.47989  0.72170  Biso   1.000  C
  C152     1.0000 0.44864  0.02011  0.72170  Biso   1.000  C
  C153     1.0000 0.94864  0.97989  0.22170  Biso   1.000  C
  C154     1.0000 0.05136  0.52011  0.22170  Biso   1.000  C
  C155     1.0000 0.94864  0.02011  0.77830  Biso   1.000  C
  C156     1.0000 0.05136  0.47989  0.77830  Biso   1.000  C
  C157     1.0000 0.44864  0.47989  0.72170  Biso   1.000  C
  C158     1.0000 0.55136  0.02011  0.72170  Biso   1.000  C
  C159     1.0000 0.44864  0.52011  0.27830  Biso   1.000  C
  C160     1.0000 0.55136  0.97989  0.27830  Biso   1.000  C
  C161     1.0000 0.10351  0.01981  0.73370  Biso   1.000  C
  C162     1.0000 0.89649  0.48019  0.73370  Biso   1.000  C
  C163     1.0000 0.10351  0.98019  0.26630  Biso   1.000  C
  C164     1.0000 0.89649  0.51981  0.26630  Biso   1.000  C
  C165     1.0000 0.60351  0.51981  0.23370  Biso   1.000  C
  C166     1.0000 0.39649  0.98019  0.23370  Biso   1.000  C
  C167     1.0000 0.60351  0.48019  0.76630  Biso   1.000  C
  C168     1.0000 0.39649  0.01981  0.76630  Biso   1.000  C
  C169     1.0000 0.89649  0.98019  0.26630  Biso   1.000  C
  C170     1.0000 0.10351  0.51981  0.26630  Biso   1.000  C
  C171     1.0000 0.89649  0.01981  0.73370  Biso   1.000  C
  C172     1.0000 0.10351  0.48019  0.73370  Biso   1.000  C
  C173     1.0000 0.39649  0.48019  0.76630  Biso   1.000  C
  C174     1.0000 0.60351  0.01981  0.76630  Biso   1.000  C
  C175     1.0000 0.39649  0.51981  0.23370  Biso   1.000  C
  C176     1.0000 0.60351  0.98019  0.23370  Biso   1.000  C
  C177     1.0000 0.34440  0.17860  0.42340  Biso   1.000  C
  C178     1.0000 0.65560  0.32140  0.42340  Biso   1.000  C
  C179     1.0000 0.34440  0.82140  0.57660  Biso   1.000  C
  C180     1.0000 0.65560  0.67860  0.57660  Biso   1.000  C
  C181     1.0000 0.84440  0.67860  0.92340  Biso   1.000  C
  C182     1.0000 0.15560  0.82140  0.92340  Biso   1.000  C
  C183     1.0000 0.84440  0.32140  0.07660  Biso   1.000  C
  C184     1.0000 0.15560  0.17860  0.07660  Biso   1.000  C
  C185     1.0000 0.65560  0.82140  0.57660  Biso   1.000  C
  C186     1.0000 0.34440  0.67860  0.57660  Biso   1.000  C
  C187     1.0000 0.65560  0.17860  0.42340  Biso   1.000  C
  C188     1.0000 0.34440  0.32140  0.42340  Biso   1.000  C
  C189     1.0000 0.15560  0.32140  0.07660  Biso   1.000  C
  C190     1.0000 0.84440  0.17860  0.07660  Biso   1.000  C
  C191     1.0000 0.15560  0.67860  0.92340  Biso   1.000  C
  C192     1.0000 0.84440  0.82140  0.92340  Biso   1.000  C
  N17      1.0000 0.30800  0.25000  0.50750  Biso   1.000  N
  N18      1.0000 0.69200  0.25000  0.50750  Biso   1.000  N
  N19      1.0000 0.30800  0.75000  0.49250  Biso   1.000  N
  N20      1.0000 0.69200  0.75000  0.49250  Biso   1.000  N
  N21      1.0000 0.80800  0.75000  0.00750  Biso   1.000  N
  N22      1.0000 0.19200  0.75000  0.00750  Biso   1.000  N
  N23      1.0000 0.80800  0.25000  0.99250  Biso   1.000  N
  N24      1.0000 0.19200  0.25000  0.99250  Biso   1.000  N
  N25      1.0000 0.33560  0.25000  0.44560  Biso   1.000  N
  N26      1.0000 0.66440  0.25000  0.44560  Biso   1.000  N
  N27      1.0000 0.33560  0.75000  0.55440  Biso   1.000  N
  N28      1.0000 0.66440  0.75000  0.55440  Biso   1.000  N
  N29      1.0000 0.83560  0.75000  0.94560  Biso   1.000  N
  N30      1.0000 0.16440  0.75000  0.94560  Biso   1.000  N
  N31      1.0000 0.83560  0.25000  0.05440  Biso   1.000  N
  N32      1.0000 0.16440  0.25000  0.05440  Biso   1.000  N
  N33      1.0000 0.37020  0.22930  0.33970  Biso   1.000  N
  N34      1.0000 0.62980  0.27070  0.33970  Biso   1.000  N
  N35      1.0000 0.37020  0.77070  0.66030  Biso   1.000  N
  N36      1.0000 0.62980  0.72930  0.66030  Biso   1.000  N
  N37      1.0000 0.87020  0.72930  0.83970  Biso   1.000  N
  N38      1.0000 0.12980  0.77070  0.83970  Biso   1.000  N
  N39      1.0000 0.87020  0.27070  0.16030  Biso   1.000  N
  N40      1.0000 0.12980  0.22930  0.16030  Biso   1.000  N
  N41      1.0000 0.62980  0.77070  0.66030  Biso   1.000  N
  N42      1.0000 0.37020  0.72930  0.66030  Biso   1.000  N
  N43      1.0000 0.62980  0.22930  0.33970  Biso   1.000  N
  N44      1.0000 0.37020  0.27070  0.33970  Biso   1.000  N
  N45      1.0000 0.12980  0.27070  0.16030  Biso   1.000  N
  N46      1.0000 0.87020  0.22930  0.16030  Biso   1.000  N
  N47      1.0000 0.12980  0.72930  0.83970  Biso   1.000  N
  N48      1.0000 0.87020  0.77070  0.83970  Biso   1.000  N
  C193     1.0000 0.34810  0.21820  0.40830  Biso   1.000  C
  C194     1.0000 0.65190  0.28180  0.40830  Biso   1.000  C
  C195     1.0000 0.34810  0.78180  0.59170  Biso   1.000  C
  C196     1.0000 0.65190  0.71820  0.59170  Biso   1.000  C
  C197     1.0000 0.84810  0.71820  0.90830  Biso   1.000  C
  C198     1.0000 0.15190  0.78180  0.90830  Biso   1.000  C
  C199     1.0000 0.84810  0.28180  0.09170  Biso   1.000  C
  C200     1.0000 0.15190  0.21820  0.09170  Biso   1.000  C
  C201     1.0000 0.65190  0.78180  0.59170  Biso   1.000  C
  C202     1.0000 0.34810  0.71820  0.59170  Biso   1.000  C
  C203     1.0000 0.65190  0.21820  0.40830  Biso   1.000  C
  C204     1.0000 0.34810  0.28180  0.40830  Biso   1.000  C
  C205     1.0000 0.15190  0.28180  0.09170  Biso   1.000  C
  C206     1.0000 0.84810  0.21820  0.09170  Biso   1.000  C
  C207     1.0000 0.15190  0.71820  0.90830  Biso   1.000  C
  C208     1.0000 0.84810  0.78180  0.90830  Biso   1.000  C
  C209     1.0000 0.34230  0.12880  0.51060  Biso   1.000  C
  C210     1.0000 0.65770  0.37120  0.51060  Biso   1.000  C
  C211     1.0000 0.34230  0.87120  0.48940  Biso   1.000  C
  C212     1.0000 0.65770  0.62880  0.48940  Biso   1.000  C
  C213     1.0000 0.84230  0.62880  0.01060  Biso   1.000  C
  C214     1.0000 0.15770  0.87120  0.01060  Biso   1.000  C
  C215     1.0000 0.84230  0.37120  0.98940  Biso   1.000  C
  C216     1.0000 0.15770  0.12880  0.98940  Biso   1.000  C
  C217     1.0000 0.65770  0.87120  0.48940  Biso   1.000  C
  C218     1.0000 0.34230  0.62880  0.48940  Biso   1.000  C
  C219     1.0000 0.65770  0.12880  0.51060  Biso   1.000  C
  C220     1.0000 0.34230  0.37120  0.51060  Biso   1.000  C
  C221     1.0000 0.15770  0.37120  0.98940  Biso   1.000  C
  C222     1.0000 0.84230  0.12880  0.98940  Biso   1.000  C
  C223     1.0000 0.15770  0.62880  0.01060  Biso   1.000  C
  C224     1.0000 0.84230  0.87120  0.01060  Biso   1.000  C
  H81      1.0000 0.34320  0.12240  0.56120  Biso   1.000  H
  H82      1.0000 0.65680  0.37760  0.56120  Biso   1.000  H
  H83      1.0000 0.34320  0.87760  0.43880  Biso   1.000  H
  H84      1.0000 0.65680  0.62240  0.43880  Biso   1.000  H
  H85      1.0000 0.84320  0.62240  0.06120  Biso   1.000  H
  H86      1.0000 0.15680  0.87760  0.06120  Biso   1.000  H
  H87      1.0000 0.84320  0.37760  0.93880  Biso   1.000  H
  H88      1.0000 0.15680  0.12240  0.93880  Biso   1.000  H
  H89      1.0000 0.65680  0.87760  0.43880  Biso   1.000  H
  H90      1.0000 0.34320  0.62240  0.43880  Biso   1.000  H
  H91      1.0000 0.65680  0.12240  0.56120  Biso   1.000  H
  H92      1.0000 0.34320  0.37760  0.56120  Biso   1.000  H
  H93      1.0000 0.15680  0.37760  0.93880  Biso   1.000  H
  H94      1.0000 0.84320  0.12240  0.93880  Biso   1.000  H
  H95      1.0000 0.15680  0.62240  0.06120  Biso   1.000  H
  H96      1.0000 0.84320  0.87760  0.06120  Biso   1.000  H
  C225     1.0000 0.35390  0.16690  0.49200  Biso   1.000  C
  C226     1.0000 0.64610  0.33310  0.49200  Biso   1.000  C
  C227     1.0000 0.35390  0.83310  0.50800  Biso   1.000  C
  C228     1.0000 0.64610  0.66690  0.50800  Biso   1.000  C
  C229     1.0000 0.85390  0.66690  0.99200  Biso   1.000  C
  C230     1.0000 0.14610  0.83310  0.99200  Biso   1.000  C
  C231     1.0000 0.85390  0.33310  0.00800  Biso   1.000  C
  C232     1.0000 0.14610  0.16690  0.00800  Biso   1.000  C
  C233     1.0000 0.64610  0.83310  0.50800  Biso   1.000  C
  C234     1.0000 0.35390  0.66690  0.50800  Biso   1.000  C
  C235     1.0000 0.64610  0.16690  0.49200  Biso   1.000  C
  C236     1.0000 0.35390  0.33310  0.49200  Biso   1.000  C
  C237     1.0000 0.14610  0.33310  0.00800  Biso   1.000  C
  C238     1.0000 0.85390  0.16690  0.00800  Biso   1.000  C
  C239     1.0000 0.14610  0.66690  0.99200  Biso   1.000  C
  C240     1.0000 0.85390  0.83310  0.99200  Biso   1.000  C
  H97      1.0000 0.36830  0.18410  0.52750  Biso   1.000  H
  H98      1.0000 0.63170  0.31590  0.52750  Biso   1.000  H
  H99      1.0000 0.36830  0.81590  0.47250  Biso   1.000  H
  H100     1.0000 0.63170  0.68410  0.47250  Biso   1.000  H
  H101     1.0000 0.86830  0.68410  0.02750  Biso   1.000  H
  H102     1.0000 0.13170  0.81590  0.02750  Biso   1.000  H
  H103     1.0000 0.86830  0.31590  0.97250  Biso   1.000  H
  H104     1.0000 0.13170  0.18410  0.97250  Biso   1.000  H
  H105     1.0000 0.63170  0.81590  0.47250  Biso   1.000  H
  H106     1.0000 0.36830  0.68410  0.47250  Biso   1.000  H
  H107     1.0000 0.63170  0.18410  0.52750  Biso   1.000  H
  H108     1.0000 0.36830  0.31590  0.52750  Biso   1.000  H
  H109     1.0000 0.13170  0.31590  0.97250  Biso   1.000  H
  H110     1.0000 0.86830  0.18410  0.97250  Biso   1.000  H
  H111     1.0000 0.13170  0.68410  0.02750  Biso   1.000  H
  H112     1.0000 0.86830  0.81590  0.02750  Biso   1.000  H
  C241     1.0000 0.33060  0.11130  0.39030  Biso   1.000  C
  C242     1.0000 0.66940  0.38870  0.39030  Biso   1.000  C
  C243     1.0000 0.33060  0.88870  0.60970  Biso   1.000  C
  C244     1.0000 0.66940  0.61130  0.60970  Biso   1.000  C
  C245     1.0000 0.83060  0.61130  0.89030  Biso   1.000  C
  C246     1.0000 0.16940  0.88870  0.89030  Biso   1.000  C
  C247     1.0000 0.83060  0.38870  0.10970  Biso   1.000  C
  C248     1.0000 0.16940  0.11130  0.10970  Biso   1.000  C
  C249     1.0000 0.66940  0.88870  0.60970  Biso   1.000  C
  C250     1.0000 0.33060  0.61130  0.60970  Biso   1.000  C
  C251     1.0000 0.66940  0.11130  0.39030  Biso   1.000  C
  C252     1.0000 0.33060  0.38870  0.39030  Biso   1.000  C
  C253     1.0000 0.16940  0.38870  0.10970  Biso   1.000  C
  C254     1.0000 0.83060  0.11130  0.10970  Biso   1.000  C
  C255     1.0000 0.16940  0.61130  0.89030  Biso   1.000  C
  C256     1.0000 0.83060  0.88870  0.89030  Biso   1.000  C
  H113     1.0000 0.32550  0.09340  0.35170  Biso   1.000  H
  H114     1.0000 0.67450  0.40660  0.35170  Biso   1.000  H
  H115     1.0000 0.32550  0.90660  0.64830  Biso   1.000  H
  H116     1.0000 0.67450  0.59340  0.64830  Biso   1.000  H
  H117     1.0000 0.82550  0.59340  0.85170  Biso   1.000  H
  H118     1.0000 0.17450  0.90660  0.85170  Biso   1.000  H
  H119     1.0000 0.82550  0.40660  0.14830  Biso   1.000  H
  H120     1.0000 0.17450  0.09340  0.14830  Biso   1.000  H
  H121     1.0000 0.67450  0.90660  0.64830  Biso   1.000  H
  H122     1.0000 0.32550  0.59340  0.64830  Biso   1.000  H
  H123     1.0000 0.67450  0.09340  0.35170  Biso   1.000  H
  H124     1.0000 0.32550  0.40660  0.35170  Biso   1.000  H
  H125     1.0000 0.17450  0.40660  0.14830  Biso   1.000  H
  H126     1.0000 0.82550  0.09340  0.14830  Biso   1.000  H
  H127     1.0000 0.17450  0.59340  0.85170  Biso   1.000  H
  H128     1.0000 0.82550  0.90660  0.85170  Biso   1.000  H
  C257     1.0000 0.33940  0.15020  0.37150  Biso   1.000  C
  C258     1.0000 0.66060  0.34980  0.37150  Biso   1.000  C
  C259     1.0000 0.33940  0.84980  0.62850  Biso   1.000  C
  C260     1.0000 0.66060  0.65020  0.62850  Biso   1.000  C
  C261     1.0000 0.83940  0.65020  0.87150  Biso   1.000  C
  C262     1.0000 0.16060  0.84980  0.87150  Biso   1.000  C
  C263     1.0000 0.83940  0.34980  0.12850  Biso   1.000  C
  C264     1.0000 0.16060  0.15020  0.12850  Biso   1.000  C
  C265     1.0000 0.66060  0.84980  0.62850  Biso   1.000  C
  C266     1.0000 0.33940  0.65020  0.62850  Biso   1.000  C
  C267     1.0000 0.66060  0.15020  0.37150  Biso   1.000  C
  C268     1.0000 0.33940  0.34980  0.37150  Biso   1.000  C
  C269     1.0000 0.16060  0.34980  0.12850  Biso   1.000  C
  C270     1.0000 0.83940  0.15020  0.12850  Biso   1.000  C
  C271     1.0000 0.16060  0.65020  0.87150  Biso   1.000  C
  C272     1.0000 0.83940  0.84980  0.87150  Biso   1.000  C
  H129     1.0000 0.34190  0.15690  0.32120  Biso   1.000  H
  H130     1.0000 0.65810  0.34310  0.32120  Biso   1.000  H
  H131     1.0000 0.34190  0.84310  0.67880  Biso   1.000  H
  H132     1.0000 0.65810  0.65690  0.67880  Biso   1.000  H
  H133     1.0000 0.84190  0.65690  0.82120  Biso   1.000  H
  H134     1.0000 0.15810  0.84310  0.82120  Biso   1.000  H
  H135     1.0000 0.84190  0.34310  0.17880  Biso   1.000  H
  H136     1.0000 0.15810  0.15690  0.17880  Biso   1.000  H
  H137     1.0000 0.65810  0.84310  0.67880  Biso   1.000  H
  H138     1.0000 0.34190  0.65690  0.67880  Biso   1.000  H
  H139     1.0000 0.65810  0.15690  0.32120  Biso   1.000  H
  H140     1.0000 0.34190  0.34310  0.32120  Biso   1.000  H
  H141     1.0000 0.15810  0.34310  0.17880  Biso   1.000  H
  H142     1.0000 0.84190  0.15690  0.17880  Biso   1.000  H
  H143     1.0000 0.15810  0.65690  0.82120  Biso   1.000  H
  H144     1.0000 0.84190  0.84310  0.82120  Biso   1.000  H
