data_image0
_cell_length_a       11.064
_cell_length_b       12.154
_cell_length_c       8.439
_cell_angle_alpha    108.42
_cell_angle_beta     90.85
_cell_angle_gamma    109.8

_symmetry_space_group_name_H-M    "P 1"
_symmetry_int_tables_number       1

loop_
  _symmetry_equiv_pos_as_xyz
  'x, y, z'

loop_
  _atom_site_label
  _atom_site_occupancy
  _atom_site_fract_x
  _atom_site_fract_y
  _atom_site_fract_z
  _atom_site_thermal_displace_type
  _atom_site_B_iso_or_equiv
  _atom_site_type_symbol
  Cu1      1.0000 0.55417  0.39317  0.45070  Biso   1.000  Cu
  Cu2      1.0000 0.44583  0.60683  0.54930  Biso   1.000  Cu
  Cu3      1.0000 0.41090  0.44330  0.11770  Biso   1.000  Cu
  Cu4      1.0000 0.58910  0.55670  0.88230  Biso   1.000  Cu
  O1       1.0000 0.58050  0.55500  0.42430  Biso   1.000  O
  O2       1.0000 0.41950  0.44500  0.57570  Biso   1.000  O
  O3       1.0000 0.71070  0.06790  0.30650  Biso   1.000  O
  O4       1.0000 0.28930  0.93210  0.69350  Biso   1.000  O
  N1       1.0000 0.70400  0.37500  0.33260  Biso   1.000  N
  N2       1.0000 0.29600  0.62500  0.66740  Biso   1.000  N
  N3       1.0000 0.49160  0.23030  0.47580  Biso   1.000  N
  N4       1.0000 0.50840  0.76970  0.52420  Biso   1.000  N
  N5       1.0000 0.38530  0.30120  0.18800  Biso   1.000  N
  N6       1.0000 0.61470  0.69880  0.81200  Biso   1.000  N
  N7       1.0000 0.35290  0.19560  0.10400  Biso   1.000  N
  N8       1.0000 0.64710  0.80440  0.89600  Biso   1.000  N
  N9       1.0000 0.32260  0.08980  0.03600  Biso   1.000  N
  N10      1.0000 0.67740  0.91020  0.96400  Biso   1.000  N
  N11      1.0000 0.69510  0.49390  0.72200  Biso   1.000  N
  N12      1.0000 0.30490  0.50610  0.27800  Biso   1.000  N
  N13      1.0000 0.79310  0.48970  0.74500  Biso   1.000  N
  N14      1.0000 0.20690  0.51030  0.25500  Biso   1.000  N
  N15      1.0000 0.88700  0.47600  0.76200  Biso   1.000  N
  N16      1.0000 0.11300  0.52400  0.23800  Biso   1.000  N
  N17      1.0000 0.53750  0.41300  0.96180  Biso   1.000  N
  N18      1.0000 0.46250  0.58700  0.03820  Biso   1.000  N
  N19      1.0000 0.57150  0.32370  0.92200  Biso   1.000  N
  N20      1.0000 0.42850  0.67630  0.07800  Biso   1.000  N
  N21      1.0000 0.60200  0.23940  0.88300  Biso   1.000  N
  N22      1.0000 0.39800  0.76060  0.11700  Biso   1.000  N
  C1       1.0000 0.68250  0.62750  0.37470  Biso   1.000  C
  C2       1.0000 0.31750  0.37250  0.62530  Biso   1.000  C
  C3       1.0000 0.77950  0.58270  0.30580  Biso   1.000  C
  C4       1.0000 0.22050  0.41730  0.69420  Biso   1.000  C
  C5       1.0000 0.88100  0.65640  0.24800  Biso   1.000  C
  C6       1.0000 0.11900  0.34360  0.75200  Biso   1.000  C
  C7       1.0000 0.89570  0.77480  0.25570  Biso   1.000  C
  C8       1.0000 0.10430  0.22520  0.74430  Biso   1.000  C
  C9       1.0000 0.80010  0.81800  0.32400  Biso   1.000  C
  C10      1.0000 0.19990  0.18200  0.67600  Biso   1.000  C
  C11      1.0000 0.69500  0.74670  0.38350  Biso   1.000  C
  C12      1.0000 0.30500  0.25330  0.61650  Biso   1.000  C
  C13      1.0000 0.01110  0.85440  0.19100  Biso   1.000  C
  C14      1.0000 0.98890  0.14560  0.80900  Biso   1.000  C
  C15      1.0000 0.01740  0.98730  0.23200  Biso   1.000  C
  C16      1.0000 0.98260  0.01270  0.76800  Biso   1.000  C
  C17      1.0000 0.00060  0.79390  0.99900  Biso   1.000  C
  C18      1.0000 0.99940  0.20610  0.00100  Biso   1.000  C
  C19      1.0000 0.13840  0.86120  0.27700  Biso   1.000  C
  C20      1.0000 0.86160  0.13880  0.72300  Biso   1.000  C
  C21      1.0000 0.78100  0.46100  0.28900  Biso   1.000  C
  C22      1.0000 0.21900  0.53900  0.71100  Biso   1.000  C
  C23      1.0000 0.73500  0.26240  0.29900  Biso   1.000  C
  C24      1.0000 0.26500  0.73760  0.70100  Biso   1.000  C
  C25      1.0000 0.65600  0.16360  0.33200  Biso   1.000  C
  C26      1.0000 0.34400  0.83640  0.66800  Biso   1.000  C
  C27      1.0000 0.55800  0.14200  0.41700  Biso   1.000  C
  C28      1.0000 0.44200  0.85800  0.58300  Biso   1.000  C
  C29      1.0000 0.39220  0.18880  0.54300  Biso   1.000  C
  C30      1.0000 0.60780  0.81120  0.45700  Biso   1.000  C
  H1       1.0000 0.94370  0.62310  0.20000  Biso   1.000  H
  H2       1.0000 0.05630  0.37690  0.80000  Biso   1.000  H
  H3       1.0000 0.80620  0.89920  0.33030  Biso   1.000  H
  H4       1.0000 0.19380  0.10080  0.66970  Biso   1.000  H
  H5       1.0000 0.02520  0.02580  0.35000  Biso   1.000  H
  H6       1.0000 0.97480  0.97420  0.65000  Biso   1.000  H
  H7       1.0000 0.09040  0.03210  0.19000  Biso   1.000  H
  H8       1.0000 0.90960  0.96790  0.81000  Biso   1.000  H
  H9       1.0000 0.94050  0.98700  0.17930  Biso   1.000  H
  H10      1.0000 0.05950  0.01300  0.82070  Biso   1.000  H
  H11      1.0000 0.92200  0.79100  0.94690  Biso   1.000  H
  H12      1.0000 0.07800  0.20900  0.05310  Biso   1.000  H
  H13      1.0000 0.07200  0.84190  0.95920  Biso   1.000  H
  H14      1.0000 0.92800  0.15810  0.04080  Biso   1.000  H
  H15      1.0000 0.00000  0.71200  0.97300  Biso   1.000  H
  H16      1.0000 0.00000  0.28800  0.02700  Biso   1.000  H
  H17      1.0000 0.13810  0.77920  0.25290  Biso   1.000  H
  H18      1.0000 0.86190  0.22080  0.74710  Biso   1.000  H
  H19      1.0000 0.20930  0.90800  0.23530  Biso   1.000  H
  H20      1.0000 0.79070  0.09200  0.76470  Biso   1.000  H
  H21      1.0000 0.14480  0.89970  0.39530  Biso   1.000  H
  H22      1.0000 0.85520  0.10030  0.60470  Biso   1.000  H
  H23      1.0000 0.85060  0.44270  0.23620  Biso   1.000  H
  H24      1.0000 0.14940  0.55730  0.76380  Biso   1.000  H
  H25      1.0000 0.73600  0.23010  0.18200  Biso   1.000  H
  H26      1.0000 0.26400  0.76990  0.81800  Biso   1.000  H
  H27      1.0000 0.82180  0.28940  0.35610  Biso   1.000  H
  H28      1.0000 0.17820  0.71060  0.64390  Biso   1.000  H
  H29      1.0000 0.71590  0.20440  0.45310  Biso   1.000  H
  H30      1.0000 0.28410  0.79560  0.54690  Biso   1.000  H
  H31      1.0000 0.71330  0.02060  0.17080  Biso   1.000  H
  H32      1.0000 0.28670  0.97940  0.82920  Biso   1.000  H
  H33      1.0000 0.58470  0.12740  0.51690  Biso   1.000  H
  H34      1.0000 0.41530  0.87260  0.48310  Biso   1.000  H
  H35      1.0000 0.49860  0.06790  0.34250  Biso   1.000  H
  H36      1.0000 0.50140  0.93210  0.65750  Biso   1.000  H
  H37      1.0000 0.38770  0.13130  0.62840  Biso   1.000  H
  H38      1.0000 0.61230  0.86870  0.37160  Biso   1.000  H
