data_image0
_cell_length_a       13.976
_cell_length_b       20.104
_cell_length_c       17.225
_cell_angle_alpha    90
_cell_angle_beta     94.185
_cell_angle_gamma    90

_symmetry_space_group_name_H-M    "P 1"
_symmetry_int_tables_number       1

loop_
  _symmetry_equiv_pos_as_xyz
  'x, y, z'

loop_
  _atom_site_label
  _atom_site_occupancy
  _atom_site_fract_x
  _atom_site_fract_y
  _atom_site_fract_z
  _atom_site_thermal_displace_type
  _atom_site_B_iso_or_equiv
  _atom_site_type_symbol
  Mo1      1.0000 0.85983  0.01681  0.16188  Biso   1.000  Mo
  Mo2      1.0000 0.14017  0.51681  0.33812  Biso   1.000  Mo
  Mo3      1.0000 0.14017  0.98319  0.83812  Biso   1.000  Mo
  Mo4      1.0000 0.85983  0.48319  0.66188  Biso   1.000  Mo
  Mo5      1.0000 0.87032  0.14860  0.02659  Biso   1.000  Mo
  Mo6      1.0000 0.12968  0.64860  0.47341  Biso   1.000  Mo
  Mo7      1.0000 0.12968  0.85140  0.97341  Biso   1.000  Mo
  Mo8      1.0000 0.87032  0.35140  0.52659  Biso   1.000  Mo
  Mo9      1.0000 0.74730  0.99978  0.97313  Biso   1.000  Mo
  Mo10     1.0000 0.25270  0.49978  0.52687  Biso   1.000  Mo
  Mo11     1.0000 0.25270  0.00022  0.02687  Biso   1.000  Mo
  Mo12     1.0000 0.74730  0.50022  0.47313  Biso   1.000  Mo
  Mo13     1.0000 0.88660  0.97441  0.81267  Biso   1.000  Mo
  Mo14     1.0000 0.11340  0.47441  0.68733  Biso   1.000  Mo
  Mo15     1.0000 0.11340  0.02559  0.18733  Biso   1.000  Mo
  Mo16     1.0000 0.88660  0.52559  0.31267  Biso   1.000  Mo
  Mo17     1.0000 0.12346  0.15047  0.04364  Biso   1.000  Mo
  Mo18     1.0000 0.87654  0.65047  0.45636  Biso   1.000  Mo
  Mo19     1.0000 0.87654  0.84953  0.95636  Biso   1.000  Mo
  Mo20     1.0000 0.12346  0.34953  0.54364  Biso   1.000  Mo
  Mo21     1.0000 0.99910  0.12752  0.86011  Biso   1.000  Mo
  Mo22     1.0000 0.00090  0.62752  0.63989  Biso   1.000  Mo
  Mo23     1.0000 0.00090  0.87248  0.13989  Biso   1.000  Mo
  Mo24     1.0000 0.99910  0.37248  0.36011  Biso   1.000  Mo
  Cu1      1.0000 0.85756  0.99182  0.59431  Biso   1.000  Cu
  Cu2      1.0000 0.14244  0.49182  0.90569  Biso   1.000  Cu
  Cu3      1.0000 0.14244  0.00818  0.40569  Biso   1.000  Cu
  Cu4      1.0000 0.85756  0.50818  0.09431  Biso   1.000  Cu
  Cu5      1.0000 0.46955  0.83122  0.63052  Biso   1.000  Cu
  Cu6      1.0000 0.53045  0.33122  0.86948  Biso   1.000  Cu
  Cu7      1.0000 0.53045  0.16878  0.36948  Biso   1.000  Cu
  Cu8      1.0000 0.46955  0.66878  0.13052  Biso   1.000  Cu
  Mo25     1.0000 0.64170  0.90895  0.53284  Biso   1.000  Mo
  Mo26     1.0000 0.35830  0.40895  0.96716  Biso   1.000  Mo
  Mo27     1.0000 0.35830  0.09105  0.46716  Biso   1.000  Mo
  Mo28     1.0000 0.64170  0.59105  0.03284  Biso   1.000  Mo
  Cu9      1.0000 0.47898  0.15912  0.65013  Biso   1.000  Cu
  Cu10     1.0000 0.52102  0.65912  0.84987  Biso   1.000  Cu
  Cu11     1.0000 0.52102  0.84088  0.34987  Biso   1.000  Cu
  Cu12     1.0000 0.47898  0.34088  0.15013  Biso   1.000  Cu
  Mo29     1.0000 0.64677  0.08454  0.54481  Biso   1.000  Mo
  Mo30     1.0000 0.35323  0.58454  0.95519  Biso   1.000  Mo
  Mo31     1.0000 0.35323  0.91546  0.45519  Biso   1.000  Mo
  Mo32     1.0000 0.64677  0.41546  0.04481  Biso   1.000  Mo
  Mo33     1.0000 0.46683  0.99611  0.60131  Biso   1.000  Mo
  Mo34     1.0000 0.53317  0.49611  0.89869  Biso   1.000  Mo
  Mo35     1.0000 0.53317  0.00389  0.39869  Biso   1.000  Mo
  Mo36     1.0000 0.46683  0.50389  0.10131  Biso   1.000  Mo
  O1       1.0000 0.18160  0.22040  0.06480  Biso   1.000  O
  O2       1.0000 0.81840  0.72040  0.43520  Biso   1.000  O
  O3       1.0000 0.81840  0.77960  0.93520  Biso   1.000  O
  O4       1.0000 0.18160  0.27960  0.56480  Biso   1.000  O
  O5       1.0000 0.00340  0.18790  0.79680  Biso   1.000  O
  O6       1.0000 0.99660  0.68790  0.70320  Biso   1.000  O
  O7       1.0000 0.99660  0.81210  0.20320  Biso   1.000  O
  O8       1.0000 0.00340  0.31210  0.29680  Biso   1.000  O
  O9       1.0000 0.76870  0.06330  0.57780  Biso   1.000  O
  O10      1.0000 0.23130  0.56330  0.92220  Biso   1.000  O
  O11      1.0000 0.23130  0.93670  0.42220  Biso   1.000  O
  O12      1.0000 0.76870  0.43670  0.07780  Biso   1.000  O
  O13      1.0000 0.44220  0.92220  0.65560  Biso   1.000  O
  O14      1.0000 0.55780  0.42220  0.84440  Biso   1.000  O
  O15      1.0000 0.55780  0.07780  0.34440  Biso   1.000  O
  O16      1.0000 0.44220  0.57780  0.15560  Biso   1.000  O
  O17      1.0000 0.80690  0.21750  0.03330  Biso   1.000  O
  O18      1.0000 0.19310  0.71750  0.46670  Biso   1.000  O
  O19      1.0000 0.19310  0.78250  0.96670  Biso   1.000  O
  O20      1.0000 0.80690  0.28250  0.53330  Biso   1.000  O
  O21      1.0000 0.60140  0.99420  0.60600  Biso   1.000  O
  O22      1.0000 0.39860  0.49420  0.89400  Biso   1.000  O
  O23      1.0000 0.39860  0.00580  0.39400  Biso   1.000  O
  O24      1.0000 0.60140  0.50580  0.10600  Biso   1.000  O
  O25      1.0000 0.44530  0.06350  0.66420  Biso   1.000  O
  O26      1.0000 0.55470  0.56350  0.83580  Biso   1.000  O
  O27      1.0000 0.55470  0.93650  0.33580  Biso   1.000  O
  O28      1.0000 0.44530  0.43650  0.16420  Biso   1.000  O
  O29      1.0000 0.79650  0.02560  0.23940  Biso   1.000  O
  O30      1.0000 0.20350  0.52560  0.26060  Biso   1.000  O
  O31      1.0000 0.20350  0.97440  0.76060  Biso   1.000  O
  O32      1.0000 0.79650  0.47440  0.73940  Biso   1.000  O
  O33      1.0000 0.82770  0.96960  0.71840  Biso   1.000  O
  O34      1.0000 0.17230  0.46960  0.78160  Biso   1.000  O
  O35      1.0000 0.17230  0.03040  0.28160  Biso   1.000  O
  O36      1.0000 0.82770  0.53040  0.21840  Biso   1.000  O
  O37      1.0000 0.60310  0.13610  0.61950  Biso   1.000  O
  O38      1.0000 0.39690  0.63610  0.88050  Biso   1.000  O
  O39      1.0000 0.39690  0.86390  0.38050  Biso   1.000  O
  O40      1.0000 0.60310  0.36390  0.11950  Biso   1.000  O
  O41      1.0000 0.76280  0.92270  0.56540  Biso   1.000  O
  O42      1.0000 0.23720  0.42270  0.93460  Biso   1.000  O
  O43      1.0000 0.23720  0.07730  0.43460  Biso   1.000  O
  O44      1.0000 0.76280  0.57730  0.06540  Biso   1.000  O
  O45      1.0000 0.64600  0.85810  0.45370  Biso   1.000  O
  O46      1.0000 0.35400  0.35810  0.04630  Biso   1.000  O
  O47      1.0000 0.35400  0.14190  0.54630  Biso   1.000  O
  O48      1.0000 0.64600  0.64190  0.95370  Biso   1.000  O
  O49      1.0000 0.59620  0.85560  0.60540  Biso   1.000  O
  O50      1.0000 0.40380  0.35560  0.89460  Biso   1.000  O
  O51      1.0000 0.40380  0.14440  0.39460  Biso   1.000  O
  O52      1.0000 0.59620  0.64440  0.10540  Biso   1.000  O
  O53      1.0000 0.50030  0.06430  0.50430  Biso   1.000  O
  O54      1.0000 0.49970  0.56430  0.99570  Biso   1.000  O
  O55      1.0000 0.49970  0.93570  0.49570  Biso   1.000  O
  O56      1.0000 0.50030  0.43570  0.00430  Biso   1.000  O
  O57      1.0000 0.77410  0.08910  0.98200  Biso   1.000  O
  O58      1.0000 0.22590  0.58910  0.51800  Biso   1.000  O
  O59      1.0000 0.22590  0.91090  0.01800  Biso   1.000  O
  O60      1.0000 0.77410  0.41090  0.48200  Biso   1.000  O
  O61      1.0000 0.86200  0.10350  0.12240  Biso   1.000  O
  O62      1.0000 0.13800  0.60350  0.37760  Biso   1.000  O
  O63      1.0000 0.13800  0.89650  0.87760  Biso   1.000  O
  O64      1.0000 0.86200  0.39650  0.62240  Biso   1.000  O
  O65      1.0000 0.91210  0.07550  0.81000  Biso   1.000  O
  O66      1.0000 0.08790  0.57550  0.69000  Biso   1.000  O
  O67      1.0000 0.08790  0.92450  0.19000  Biso   1.000  O
  O68      1.0000 0.91210  0.42450  0.31000  Biso   1.000  O
  N1       1.0000 0.96060  0.92530  0.59280  Biso   1.000  N
  N2       1.0000 0.03940  0.42530  0.90720  Biso   1.000  N
  N3       1.0000 0.03940  0.07470  0.40720  Biso   1.000  N
  N4       1.0000 0.96060  0.57470  0.09280  Biso   1.000  N
  N5       1.0000 0.49570  0.73580  0.60480  Biso   1.000  N
  N6       1.0000 0.50430  0.23580  0.89520  Biso   1.000  N
  N7       1.0000 0.50430  0.26420  0.39520  Biso   1.000  N
  N8       1.0000 0.49570  0.76420  0.10480  Biso   1.000  N
  N9       1.0000 0.36450  0.78820  0.68390  Biso   1.000  N
  N10      1.0000 0.63550  0.28820  0.81610  Biso   1.000  N
  N11      1.0000 0.63550  0.21180  0.31610  Biso   1.000  N
  N12      1.0000 0.36450  0.71180  0.18390  Biso   1.000  N
  O69      1.0000 0.64860  0.99990  0.45910  Biso   1.000  O
  O70      1.0000 0.35140  0.49990  0.04090  Biso   1.000  O
  O71      1.0000 0.35140  0.00010  0.54090  Biso   1.000  O
  O72      1.0000 0.64860  0.50010  0.95910  Biso   1.000  O
  O73      1.0000 0.78700  0.00280  0.86900  Biso   1.000  O
  O74      1.0000 0.21300  0.50280  0.63100  Biso   1.000  O
  O75      1.0000 0.21300  0.99720  0.13100  Biso   1.000  O
  O76      1.0000 0.78700  0.49720  0.36900  Biso   1.000  O
  O77      1.0000 0.09260  0.15980  0.93740  Biso   1.000  O
  O78      1.0000 0.90740  0.65980  0.56260  Biso   1.000  O
  O79      1.0000 0.90740  0.84020  0.06260  Biso   1.000  O
  O80      1.0000 0.09260  0.34020  0.43740  Biso   1.000  O
  O81      1.0000 0.65470  0.13840  0.47130  Biso   1.000  O
  O82      1.0000 0.34530  0.63840  0.02870  Biso   1.000  O
  O83      1.0000 0.34530  0.86160  0.52870  Biso   1.000  O
  O84      1.0000 0.65470  0.36160  0.97130  Biso   1.000  O
  O85      1.0000 0.90060  0.16470  0.92560  Biso   1.000  O
  O86      1.0000 0.09940  0.66470  0.57440  Biso   1.000  O
  O87      1.0000 0.09940  0.83530  0.07440  Biso   1.000  O
  O88      1.0000 0.90060  0.33530  0.42560  Biso   1.000  O
  O89      1.0000 0.76570  0.99340  0.08460  Biso   1.000  O
  O90      1.0000 0.23430  0.49340  0.41540  Biso   1.000  O
  O91      1.0000 0.23430  0.00660  0.91540  Biso   1.000  O
  O92      1.0000 0.76570  0.50660  0.58460  Biso   1.000  O
  O93      1.0000 0.99160  0.98770  0.09080  Biso   1.000  O
  O94      1.0000 0.00840  0.48770  0.40920  Biso   1.000  O
  O95      1.0000 0.00840  0.01230  0.90920  Biso   1.000  O
  O96      1.0000 0.99160  0.51230  0.59080  Biso   1.000  O
  O97      1.0000 0.90100  0.02740  0.02940  Biso   1.000  O
  O98      1.0000 0.09900  0.52740  0.47060  Biso   1.000  O
  O99      1.0000 0.09900  0.97260  0.97060  Biso   1.000  O
  O100     1.0000 0.90100  0.47260  0.52940  Biso   1.000  O
  O101     1.0000 0.90810  0.96960  0.95680  Biso   1.000  O
  O102     1.0000 0.09190  0.46960  0.54320  Biso   1.000  O
  O103     1.0000 0.09190  0.03040  0.04320  Biso   1.000  O
  O104     1.0000 0.90810  0.53040  0.45680  Biso   1.000  O
  O105     1.0000 0.99560  0.08150  0.98940  Biso   1.000  O
  O106     1.0000 0.00440  0.58150  0.51060  Biso   1.000  O
  O107     1.0000 0.00440  0.91850  0.01060  Biso   1.000  O
  O108     1.0000 0.99560  0.41850  0.48940  Biso   1.000  O
  Si1      1.0000 0.00000  0.00000  0.00000  Biso   1.000  Si
  Si2      1.0000 0.00000  0.50000  0.50000  Biso   1.000  Si
  O109     1.0000 0.62740  0.99800  0.96560  Biso   1.000  O
  O110     1.0000 0.37260  0.49800  0.53440  Biso   1.000  O
  O111     1.0000 0.37260  0.00200  0.03440  Biso   1.000  O
  O112     1.0000 0.62740  0.50200  0.46560  Biso   1.000  O
  O113     1.0000 0.78300  0.90930  0.97370  Biso   1.000  O
  O114     1.0000 0.21700  0.40930  0.52630  Biso   1.000  O
  O115     1.0000 0.21700  0.09070  0.02630  Biso   1.000  O
  O116     1.0000 0.78300  0.59070  0.47370  Biso   1.000  O
  O117     1.0000 0.89570  0.92470  0.17200  Biso   1.000  O
  O118     1.0000 0.10430  0.42470  0.32800  Biso   1.000  O
  O119     1.0000 0.10430  0.07530  0.82800  Biso   1.000  O
  O120     1.0000 0.89570  0.57530  0.67200  Biso   1.000  O
  O121     1.0000 0.98430  0.03750  0.20890  Biso   1.000  O
  O122     1.0000 0.01570  0.53750  0.29110  Biso   1.000  O
  O123     1.0000 0.01570  0.96250  0.79110  Biso   1.000  O
  O124     1.0000 0.98430  0.46250  0.70890  Biso   1.000  O
  C1       1.0000 0.05540  0.95310  0.59570  Biso   1.000  C
  C2       1.0000 0.94460  0.45310  0.90430  Biso   1.000  C
  C3       1.0000 0.94460  0.04690  0.40430  Biso   1.000  C
  C4       1.0000 0.05540  0.54690  0.09570  Biso   1.000  C
  C5       1.0000 0.12000  0.85370  0.58100  Biso   1.000  C
  C6       1.0000 0.88000  0.35370  0.91900  Biso   1.000  C
  C7       1.0000 0.88000  0.14630  0.41900  Biso   1.000  C
  C8       1.0000 0.12000  0.64630  0.08100  Biso   1.000  C
  H1       1.0000 0.17340  0.82740  0.57490  Biso   1.000  H
  H2       1.0000 0.82660  0.32740  0.92510  Biso   1.000  H
  H3       1.0000 0.82660  0.17260  0.42510  Biso   1.000  H
  H4       1.0000 0.17340  0.67260  0.07490  Biso   1.000  H
  C9       1.0000 0.58500  0.64980  0.55930  Biso   1.000  C
  C10      1.0000 0.41500  0.14980  0.94070  Biso   1.000  C
  C11      1.0000 0.41500  0.35020  0.44070  Biso   1.000  C
  C12      1.0000 0.58500  0.85020  0.05930  Biso   1.000  C
  H5       1.0000 0.63670  0.63550  0.53220  Biso   1.000  H
  H6       1.0000 0.36330  0.13550  0.96780  Biso   1.000  H
  H7       1.0000 0.36330  0.36450  0.46780  Biso   1.000  H
  H8       1.0000 0.63670  0.86450  0.03220  Biso   1.000  H
  C13      1.0000 0.52410  0.60280  0.58870  Biso   1.000  C
  C14      1.0000 0.47590  0.10280  0.91130  Biso   1.000  C
  C15      1.0000 0.47590  0.39720  0.41130  Biso   1.000  C
  C16      1.0000 0.52410  0.89720  0.08870  Biso   1.000  C
  H9       1.0000 0.53280  0.55760  0.58050  Biso   1.000  H
  H10      1.0000 0.46720  0.05760  0.91950  Biso   1.000  H
  H11      1.0000 0.46720  0.44240  0.41950  Biso   1.000  H
  H12      1.0000 0.53280  0.94240  0.08050  Biso   1.000  H
  C17      1.0000 0.29070  0.68840  0.71660  Biso   1.000  C
  C18      1.0000 0.70930  0.18840  0.78340  Biso   1.000  C
  C19      1.0000 0.70930  0.31160  0.28340  Biso   1.000  C
  C20      1.0000 0.29070  0.81160  0.21660  Biso   1.000  C
  H13      1.0000 0.29240  0.64220  0.71670  Biso   1.000  H
  H14      1.0000 0.70760  0.14220  0.78330  Biso   1.000  H
  H15      1.0000 0.70760  0.35780  0.28330  Biso   1.000  H
  H16      1.0000 0.29240  0.85780  0.21670  Biso   1.000  H
  C21      1.0000 0.22570  0.78950  0.75760  Biso   1.000  C
  C22      1.0000 0.77430  0.28950  0.74240  Biso   1.000  C
  C23      1.0000 0.77430  0.21050  0.24240  Biso   1.000  C
  C24      1.0000 0.22570  0.71050  0.25760  Biso   1.000  C
  H17      1.0000 0.18180  0.81190  0.78610  Biso   1.000  H
  H18      1.0000 0.81820  0.31190  0.71390  Biso   1.000  H
  H19      1.0000 0.81820  0.18810  0.21390  Biso   1.000  H
  H20      1.0000 0.18180  0.68810  0.28610  Biso   1.000  H
  C25      1.0000 0.44870  0.62610  0.63130  Biso   1.000  C
  C26      1.0000 0.55130  0.12610  0.86870  Biso   1.000  C
  C27      1.0000 0.55130  0.37390  0.36870  Biso   1.000  C
  C28      1.0000 0.44870  0.87390  0.13130  Biso   1.000  C
  H21      1.0000 0.40790  0.59570  0.65280  Biso   1.000  H
  H22      1.0000 0.59210  0.09570  0.84720  Biso   1.000  H
  H23      1.0000 0.59210  0.40430  0.34720  Biso   1.000  H
  H24      1.0000 0.40790  0.90430  0.15280  Biso   1.000  H
  C29      1.0000 0.43480  0.69100  0.64120  Biso   1.000  C
  C30      1.0000 0.56520  0.19100  0.85880  Biso   1.000  C
  C31      1.0000 0.56520  0.30900  0.35880  Biso   1.000  C
  C32      1.0000 0.43480  0.80900  0.14120  Biso   1.000  C
  C33      1.0000 0.21810  0.71980  0.75380  Biso   1.000  C
  C34      1.0000 0.78190  0.21980  0.74620  Biso   1.000  C
  C35      1.0000 0.78190  0.28020  0.24620  Biso   1.000  C
  C36      1.0000 0.21810  0.78020  0.25380  Biso   1.000  C
  H25      1.0000 0.16840  0.69650  0.77450  Biso   1.000  H
  H26      1.0000 0.83160  0.19650  0.72550  Biso   1.000  H
  H27      1.0000 0.83160  0.30350  0.22550  Biso   1.000  H
  H28      1.0000 0.16840  0.80350  0.27450  Biso   1.000  H
  C37      1.0000 0.36320  0.72350  0.67810  Biso   1.000  C
  C38      1.0000 0.63680  0.22350  0.82190  Biso   1.000  C
  C39      1.0000 0.63680  0.27650  0.32190  Biso   1.000  C
  C40      1.0000 0.36320  0.77650  0.17810  Biso   1.000  C
  C41      1.0000 0.29350  0.82790  0.72230  Biso   1.000  C
  C42      1.0000 0.70650  0.32790  0.77770  Biso   1.000  C
  C43      1.0000 0.70650  0.17210  0.27770  Biso   1.000  C
  C44      1.0000 0.29350  0.67210  0.22230  Biso   1.000  C
  H29      1.0000 0.29370  0.87420  0.72310  Biso   1.000  H
  H30      1.0000 0.70630  0.37420  0.77690  Biso   1.000  H
  H31      1.0000 0.70630  0.12580  0.27690  Biso   1.000  H
  H32      1.0000 0.29370  0.62580  0.22310  Biso   1.000  H
  C45      1.0000 0.13770  0.91450  0.59100  Biso   1.000  C
  C46      1.0000 0.86230  0.41450  0.90900  Biso   1.000  C
  C47      1.0000 0.86230  0.08550  0.40900  Biso   1.000  C
  C48      1.0000 0.13770  0.58550  0.09100  Biso   1.000  C
  H33      1.0000 0.19950  0.93190  0.59470  Biso   1.000  H
  H34      1.0000 0.80050  0.43190  0.90530  Biso   1.000  H
  H35      1.0000 0.80050  0.06810  0.40530  Biso   1.000  H
  H36      1.0000 0.19950  0.56810  0.09470  Biso   1.000  H
  C49      1.0000 0.57170  0.71630  0.56950  Biso   1.000  C
  C50      1.0000 0.42830  0.21630  0.93050  Biso   1.000  C
  C51      1.0000 0.42830  0.28370  0.43050  Biso   1.000  C
  C52      1.0000 0.57170  0.78370  0.06950  Biso   1.000  C
  H37      1.0000 0.61480  0.74720  0.55200  Biso   1.000  H
  H38      1.0000 0.38520  0.24720  0.94800  Biso   1.000  H
  H39      1.0000 0.38520  0.25280  0.44800  Biso   1.000  H
  H40      1.0000 0.61480  0.75280  0.05200  Biso   1.000  H
  C53      1.0000 0.03140  0.81820  0.57800  Biso   1.000  C
  C54      1.0000 0.96860  0.31820  0.92200  Biso   1.000  C
  C55      1.0000 0.96860  0.18180  0.42200  Biso   1.000  C
  C56      1.0000 0.03140  0.68180  0.07800  Biso   1.000  C
  H41      1.0000 0.02590  0.77260  0.57000  Biso   1.000  H
  H42      1.0000 0.97410  0.27260  0.93000  Biso   1.000  H
  H43      1.0000 0.97410  0.22740  0.43000  Biso   1.000  H
  H44      1.0000 0.02590  0.72740  0.07000  Biso   1.000  H
  C57      1.0000 0.95370  0.86060  0.58850  Biso   1.000  C
  C58      1.0000 0.04630  0.36060  0.91150  Biso   1.000  C
  C59      1.0000 0.04630  0.13940  0.41150  Biso   1.000  C
  C60      1.0000 0.95370  0.63940  0.08850  Biso   1.000  C
  H45      1.0000 0.89360  0.84150  0.59250  Biso   1.000  H
  H46      1.0000 0.10640  0.34150  0.90750  Biso   1.000  H
  H47      1.0000 0.10640  0.15850  0.40750  Biso   1.000  H
  H48      1.0000 0.89360  0.65850  0.09250  Biso   1.000  H
  C61      1.0000 0.12600  0.12970  0.61280  Biso   1.000  C
  C62      1.0000 0.87400  0.62970  0.88720  Biso   1.000  C
  C63      1.0000 0.87400  0.87030  0.38720  Biso   1.000  C
  C64      1.0000 0.12600  0.37030  0.11280  Biso   1.000  C
  H49      1.0000 0.18090  0.15640  0.61660  Biso   1.000  H
  H50      1.0000 0.81910  0.65640  0.88340  Biso   1.000  H
  H51      1.0000 0.81910  0.84360  0.38340  Biso   1.000  H
  H52      1.0000 0.18090  0.34360  0.11660  Biso   1.000  H
  C65      1.0000 0.04060  0.15820  0.61790  Biso   1.000  C
  C66      1.0000 0.95940  0.65820  0.88210  Biso   1.000  C
  C67      1.0000 0.95940  0.84180  0.38210  Biso   1.000  C
  C68      1.0000 0.04060  0.34180  0.11790  Biso   1.000  C
  H53      1.0000 0.03760  0.20420  0.62300  Biso   1.000  H
  H54      1.0000 0.96240  0.70420  0.87700  Biso   1.000  H
  H55      1.0000 0.96240  0.79580  0.37700  Biso   1.000  H
  H56      1.0000 0.03760  0.29580  0.12300  Biso   1.000  H
  C69      1.0000 0.95860  0.12310  0.61590  Biso   1.000  C
  C70      1.0000 0.04140  0.62310  0.88410  Biso   1.000  C
  C71      1.0000 0.04140  0.87690  0.38410  Biso   1.000  C
  C72      1.0000 0.95860  0.37690  0.11590  Biso   1.000  C
  H57      1.0000 0.89960  0.14340  0.62090  Biso   1.000  H
  H58      1.0000 0.10040  0.64340  0.87910  Biso   1.000  H
  H59      1.0000 0.10040  0.85660  0.37910  Biso   1.000  H
  H60      1.0000 0.89960  0.35660  0.12090  Biso   1.000  H
  N13      1.0000 0.96630  0.05670  0.60630  Biso   1.000  N
  N14      1.0000 0.03370  0.55670  0.89370  Biso   1.000  N
  N15      1.0000 0.03370  0.94330  0.39370  Biso   1.000  N
  N16      1.0000 0.96630  0.44330  0.10630  Biso   1.000  N
  C73      1.0000 0.05710  0.02600  0.60850  Biso   1.000  C
  C74      1.0000 0.94290  0.52600  0.89150  Biso   1.000  C
  C75      1.0000 0.94290  0.97400  0.39150  Biso   1.000  C
  C76      1.0000 0.05710  0.47400  0.10850  Biso   1.000  C
  C77      1.0000 0.13650  0.06540  0.60270  Biso   1.000  C
  C78      1.0000 0.86350  0.56540  0.89730  Biso   1.000  C
  C79      1.0000 0.86350  0.93460  0.39730  Biso   1.000  C
  C80      1.0000 0.13650  0.43460  0.10270  Biso   1.000  C
  H61      1.0000 0.19530  0.04720  0.59200  Biso   1.000  H
  H62      1.0000 0.80470  0.54720  0.90800  Biso   1.000  H
  H63      1.0000 0.80470  0.95280  0.40800  Biso   1.000  H
  H64      1.0000 0.19530  0.45280  0.09200  Biso   1.000  H
  N17      1.0000 0.50340  0.25270  0.63930  Biso   1.000  N
  N18      1.0000 0.49660  0.75270  0.86070  Biso   1.000  N
  N19      1.0000 0.49660  0.74730  0.36070  Biso   1.000  N
  N20      1.0000 0.50340  0.24730  0.13930  Biso   1.000  N
  C81      1.0000 0.43540  0.29340  0.67010  Biso   1.000  C
  C82      1.0000 0.56460  0.79340  0.82990  Biso   1.000  C
  C83      1.0000 0.56460  0.70660  0.32990  Biso   1.000  C
  C84      1.0000 0.43540  0.20660  0.17010  Biso   1.000  C
  C85      1.0000 0.44390  0.36220  0.66540  Biso   1.000  C
  C86      1.0000 0.55610  0.86220  0.83460  Biso   1.000  C
  C87      1.0000 0.55610  0.63780  0.33460  Biso   1.000  C
  C88      1.0000 0.44390  0.13780  0.16540  Biso   1.000  C
  H65      1.0000 0.39830  0.38940  0.68610  Biso   1.000  H
  H66      1.0000 0.60170  0.88940  0.81390  Biso   1.000  H
  H67      1.0000 0.60170  0.61060  0.31390  Biso   1.000  H
  H68      1.0000 0.39830  0.11060  0.18610  Biso   1.000  H
  C89      1.0000 0.52040  0.39020  0.62990  Biso   1.000  C
  C90      1.0000 0.47960  0.89020  0.87010  Biso   1.000  C
  C91      1.0000 0.47960  0.60980  0.37010  Biso   1.000  C
  C92      1.0000 0.52040  0.10980  0.12990  Biso   1.000  C
  H69      1.0000 0.52610  0.43620  0.62680  Biso   1.000  H
  H70      1.0000 0.47390  0.93620  0.87320  Biso   1.000  H
  H71      1.0000 0.47390  0.56380  0.37320  Biso   1.000  H
  H72      1.0000 0.52610  0.06380  0.12680  Biso   1.000  H
  C93      1.0000 0.58850  0.34940  0.59900  Biso   1.000  C
  C94      1.0000 0.41150  0.84940  0.90100  Biso   1.000  C
  C95      1.0000 0.41150  0.65060  0.40100  Biso   1.000  C
  C96      1.0000 0.58850  0.15060  0.09900  Biso   1.000  C
  H73      1.0000 0.63970  0.36820  0.57530  Biso   1.000  H
  H74      1.0000 0.36030  0.86820  0.92470  Biso   1.000  H
  H75      1.0000 0.36030  0.63180  0.42470  Biso   1.000  H
  H76      1.0000 0.63970  0.13180  0.07530  Biso   1.000  H
  C97      1.0000 0.58000  0.28070  0.60370  Biso   1.000  C
  C98      1.0000 0.42000  0.78070  0.89630  Biso   1.000  C
  C99      1.0000 0.42000  0.71930  0.39630  Biso   1.000  C
  C100     1.0000 0.58000  0.21930  0.10370  Biso   1.000  C
  H77      1.0000 0.62550  0.25340  0.58310  Biso   1.000  H
  H78      1.0000 0.37450  0.75340  0.91690  Biso   1.000  H
  H79      1.0000 0.37450  0.74660  0.41690  Biso   1.000  H
  H80      1.0000 0.62550  0.24660  0.08310  Biso   1.000  H
  N21      1.0000 0.37700  0.19500  0.71280  Biso   1.000  N
  N22      1.0000 0.62300  0.69500  0.78720  Biso   1.000  N
  N23      1.0000 0.62300  0.80500  0.28720  Biso   1.000  N
  N24      1.0000 0.37700  0.30500  0.21280  Biso   1.000  N
  C101     1.0000 0.31470  0.15620  0.75290  Biso   1.000  C
  C102     1.0000 0.68530  0.65620  0.74710  Biso   1.000  C
  C103     1.0000 0.68530  0.84380  0.24710  Biso   1.000  C
  C104     1.0000 0.31470  0.34380  0.25290  Biso   1.000  C
  H81      1.0000 0.32160  0.11020  0.75410  Biso   1.000  H
  H82      1.0000 0.67840  0.61020  0.74590  Biso   1.000  H
  H83      1.0000 0.67840  0.88980  0.24590  Biso   1.000  H
  H84      1.0000 0.32160  0.38980  0.25410  Biso   1.000  H
  C105     1.0000 0.24200  0.18630  0.79140  Biso   1.000  C
  C106     1.0000 0.75800  0.68630  0.70860  Biso   1.000  C
  C107     1.0000 0.75800  0.81370  0.20860  Biso   1.000  C
  C108     1.0000 0.24200  0.31370  0.29140  Biso   1.000  C
  H85      1.0000 0.20030  0.16040  0.81830  Biso   1.000  H
  H86      1.0000 0.79970  0.66040  0.68170  Biso   1.000  H
  H87      1.0000 0.79970  0.83960  0.18170  Biso   1.000  H
  H88      1.0000 0.20030  0.33960  0.31830  Biso   1.000  H
  C109     1.0000 0.23170  0.25500  0.78960  Biso   1.000  C
  C110     1.0000 0.76830  0.75500  0.71040  Biso   1.000  C
  C111     1.0000 0.76830  0.74500  0.21040  Biso   1.000  C
  C112     1.0000 0.23170  0.24500  0.28960  Biso   1.000  C
  H89      1.0000 0.18310  0.27510  0.81530  Biso   1.000  H
  H90      1.0000 0.81690  0.77510  0.68470  Biso   1.000  H
  H91      1.0000 0.81690  0.72490  0.18470  Biso   1.000  H
  H92      1.0000 0.18310  0.22490  0.31530  Biso   1.000  H
  C113     1.0000 0.29400  0.29380  0.74950  Biso   1.000  C
  C114     1.0000 0.70600  0.79380  0.75050  Biso   1.000  C
  C115     1.0000 0.70600  0.70620  0.25050  Biso   1.000  C
  C116     1.0000 0.29400  0.20620  0.24950  Biso   1.000  C
  H93      1.0000 0.28710  0.33980  0.74830  Biso   1.000  H
  H94      1.0000 0.71290  0.83980  0.75170  Biso   1.000  H
  H95      1.0000 0.71290  0.66020  0.25170  Biso   1.000  H
  H96      1.0000 0.28710  0.16020  0.24830  Biso   1.000  H
  C117     1.0000 0.36670  0.26370  0.71100  Biso   1.000  C
  C118     1.0000 0.63330  0.76370  0.78900  Biso   1.000  C
  C119     1.0000 0.63330  0.73630  0.28900  Biso   1.000  C
  C120     1.0000 0.36670  0.23630  0.21100  Biso   1.000  C
  O125     1.0000 0.99280  0.17250  0.06090  Biso   1.000  O
  O126     1.0000 0.00720  0.67250  0.43910  Biso   1.000  O
  O127     1.0000 0.00720  0.82750  0.93910  Biso   1.000  O
  O128     1.0000 0.99280  0.32750  0.56090  Biso   1.000  O
  O129     1.0000 0.88090  0.89300  0.85250  Biso   1.000  O
  O130     1.0000 0.11910  0.39300  0.64750  Biso   1.000  O
  O131     1.0000 0.11910  0.10700  0.14750  Biso   1.000  O
  O132     1.0000 0.88090  0.60700  0.35250  Biso   1.000  O
