data_image0
_cell_length_a       7.4288
_cell_length_b       28.8893
_cell_length_c       8.4783
_cell_angle_alpha    90
_cell_angle_beta     120.325
_cell_angle_gamma    90

_symmetry_space_group_name_H-M    "P 1"
_symmetry_int_tables_number       1

loop_
  _symmetry_equiv_pos_as_xyz
  'x, y, z'

loop_
  _atom_site_label
  _atom_site_occupancy
  _atom_site_fract_x
  _atom_site_fract_y
  _atom_site_fract_z
  _atom_site_thermal_displace_type
  _atom_site_B_iso_or_equiv
  _atom_site_type_symbol
  C1       1.0000 0.20610  0.62265  0.37600  Biso   1.000  C
  C2       1.0000 0.79390  0.12265  0.12400  Biso   1.000  C
  C3       1.0000 0.79390  0.37735  0.62400  Biso   1.000  C
  C4       1.0000 0.20610  0.87735  0.87600  Biso   1.000  C
  H1       1.0000 0.25590  0.65110  0.43320  Biso   1.000  H
  H2       1.0000 0.74410  0.15110  0.06680  Biso   1.000  H
  H3       1.0000 0.74410  0.34890  0.56680  Biso   1.000  H
  H4       1.0000 0.25590  0.84890  0.93320  Biso   1.000  H
  C5       1.0000 0.99310  0.61385  0.28940  Biso   1.000  C
  C6       1.0000 0.00690  0.11385  0.21060  Biso   1.000  C
  C7       1.0000 0.00690  0.38615  0.71060  Biso   1.000  C
  C8       1.0000 0.99310  0.88615  0.78940  Biso   1.000  C
  C9       1.0000 0.92140  0.57184  0.20110  Biso   1.000  C
  C10      1.0000 0.07860  0.07184  0.29890  Biso   1.000  C
  C11      1.0000 0.07860  0.42816  0.79890  Biso   1.000  C
  C12      1.0000 0.92140  0.92816  0.70110  Biso   1.000  C
  H5       1.0000 0.78010  0.56470  0.14360  Biso   1.000  H
  H6       1.0000 0.21990  0.06470  0.35640  Biso   1.000  H
  H7       1.0000 0.21990  0.43530  0.85640  Biso   1.000  H
  H8       1.0000 0.78010  0.93530  0.64360  Biso   1.000  H
  C13      1.0000 0.06050  0.54043  0.19860  Biso   1.000  C
  C14      1.0000 0.93950  0.04043  0.30140  Biso   1.000  C
  C15      1.0000 0.93950  0.45957  0.80140  Biso   1.000  C
  C16      1.0000 0.06050  0.95957  0.69860  Biso   1.000  C
  H9       1.0000 0.01400  0.51250  0.13620  Biso   1.000  H
  H10      1.0000 0.98600  0.01250  0.36380  Biso   1.000  H
  H11      1.0000 0.98600  0.48750  0.86380  Biso   1.000  H
  H12      1.0000 0.01400  0.98750  0.63620  Biso   1.000  H
  C17      1.0000 0.27020  0.55148  0.29080  Biso   1.000  C
  C18      1.0000 0.72980  0.05148  0.20920  Biso   1.000  C
  C19      1.0000 0.72980  0.44852  0.70920  Biso   1.000  C
  C20      1.0000 0.27020  0.94852  0.79080  Biso   1.000  C
  C21      1.0000 0.84910  0.64882  0.30200  Biso   1.000  C
  C22      1.0000 0.15090  0.14882  0.19800  Biso   1.000  C
  C23      1.0000 0.15090  0.35118  0.69800  Biso   1.000  C
  C24      1.0000 0.84910  0.85118  0.80200  Biso   1.000  C
  C25      1.0000 0.43700  0.52026  0.29740  Biso   1.000  C
  C26      1.0000 0.56300  0.02026  0.20260  Biso   1.000  C
  C27      1.0000 0.56300  0.47974  0.70260  Biso   1.000  C
  C28      1.0000 0.43700  0.97974  0.79740  Biso   1.000  C
  C29      1.0000 0.07600  0.55504  0.65220  Biso   1.000  C
  C30      1.0000 0.92400  0.05504  0.84780  Biso   1.000  C
  C31      1.0000 0.92400  0.44496  0.34780  Biso   1.000  C
  C32      1.0000 0.07600  0.94496  0.15220  Biso   1.000  C
  H13      1.0000 0.02680  0.53620  0.54960  Biso   1.000  H
  H14      1.0000 0.97320  0.03620  0.95040  Biso   1.000  H
  H15      1.0000 0.97320  0.46380  0.45040  Biso   1.000  H
  H16      1.0000 0.02680  0.96380  0.04960  Biso   1.000  H
  C33      1.0000 0.28640  0.58800  0.91220  Biso   1.000  C
  C34      1.0000 0.71360  0.08800  0.58780  Biso   1.000  C
  C35      1.0000 0.71360  0.41200  0.08780  Biso   1.000  C
  C36      1.0000 0.28640  0.91200  0.41220  Biso   1.000  C
  H17      1.0000 0.40560  0.59620  0.02080  Biso   1.000  H
  H18      1.0000 0.59440  0.09620  0.47920  Biso   1.000  H
  H19      1.0000 0.59440  0.40380  0.97920  Biso   1.000  H
  H20      1.0000 0.40560  0.90380  0.52080  Biso   1.000  H
  C37      1.0000 0.09280  0.60496  0.84750  Biso   1.000  C
  C38      1.0000 0.90720  0.10496  0.65250  Biso   1.000  C
  C39      1.0000 0.90720  0.39504  0.15250  Biso   1.000  C
  C40      1.0000 0.09280  0.89504  0.34750  Biso   1.000  C
  H21      1.0000 0.05500  0.62720  0.90460  Biso   1.000  H
  H22      1.0000 0.94500  0.12720  0.59540  Biso   1.000  H
  H23      1.0000 0.94500  0.37280  0.09540  Biso   1.000  H
  H24      1.0000 0.05500  0.87280  0.40460  Biso   1.000  H
  C41      1.0000 0.74720  0.69196  0.65150  Biso   1.000  C
  C42      1.0000 0.25280  0.19196  0.84850  Biso   1.000  C
  C43      1.0000 0.25280  0.30804  0.34850  Biso   1.000  C
  C44      1.0000 0.74720  0.80804  0.15150  Biso   1.000  C
  H25      1.0000 0.80400  0.69930  0.57880  Biso   1.000  H
  H26      1.0000 0.19600  0.19930  0.92120  Biso   1.000  H
  H27      1.0000 0.19600  0.30070  0.42120  Biso   1.000  H
  H28      1.0000 0.80400  0.80070  0.07880  Biso   1.000  H
  C45      1.0000 0.64280  0.69839  0.84790  Biso   1.000  C
  C46      1.0000 0.35720  0.19839  0.65210  Biso   1.000  C
  C47      1.0000 0.35720  0.30161  0.15210  Biso   1.000  C
  C48      1.0000 0.64280  0.80161  0.34790  Biso   1.000  C
  H29      1.0000 0.61380  0.71040  0.93450  Biso   1.000  H
  H30      1.0000 0.38620  0.21040  0.56550  Biso   1.000  H
  H31      1.0000 0.38620  0.28960  0.06550  Biso   1.000  H
  H32      1.0000 0.61380  0.78960  0.43450  Biso   1.000  H
  C49      1.0000 0.59970  0.65547  0.77730  Biso   1.000  C
  C50      1.0000 0.40030  0.15547  0.72270  Biso   1.000  C
  C51      1.0000 0.40030  0.34453  0.22270  Biso   1.000  C
  C52      1.0000 0.59970  0.84453  0.27730  Biso   1.000  C
  H33      1.0000 0.53560  0.63230  0.80760  Biso   1.000  H
  H34      1.0000 0.46440  0.13230  0.69240  Biso   1.000  H
  H35      1.0000 0.46440  0.36770  0.19240  Biso   1.000  H
  H36      1.0000 0.53560  0.86770  0.30760  Biso   1.000  H
  N1       1.0000 0.34160  0.59159  0.37980  Biso   1.000  N
  N2       1.0000 0.65840  0.09159  0.12020  Biso   1.000  N
  N3       1.0000 0.65840  0.40841  0.62020  Biso   1.000  N
  N4       1.0000 0.34160  0.90841  0.87980  Biso   1.000  N
  N5       1.0000 0.95940  0.58392  0.68280  Biso   1.000  N
  N6       1.0000 0.04060  0.08392  0.81720  Biso   1.000  N
  N7       1.0000 0.04060  0.41608  0.31720  Biso   1.000  N
  N8       1.0000 0.95940  0.91608  0.18280  Biso   1.000  N
  N9       1.0000 0.27370  0.55644  0.78790  Biso   1.000  N
  N10      1.0000 0.72630  0.05644  0.71210  Biso   1.000  N
  N11      1.0000 0.72630  0.44356  0.21210  Biso   1.000  N
  N12      1.0000 0.27370  0.94356  0.28790  Biso   1.000  N
  H37      1.0000 0.37510  0.54030  0.79550  Biso   1.000  H
  H38      1.0000 0.62490  0.04030  0.70450  Biso   1.000  H
  H39      1.0000 0.62490  0.45970  0.20450  Biso   1.000  H
  H40      1.0000 0.37510  0.95970  0.29550  Biso   1.000  H
  N13      1.0000 0.66630  0.65140  0.65230  Biso   1.000  N
  N14      1.0000 0.33370  0.15140  0.84770  Biso   1.000  N
  N15      1.0000 0.33370  0.34860  0.34770  Biso   1.000  N
  N16      1.0000 0.66630  0.84860  0.15230  Biso   1.000  N
  N17      1.0000 0.73700  0.72078  0.76800  Biso   1.000  N
  N18      1.0000 0.26300  0.22078  0.73200  Biso   1.000  N
  N19      1.0000 0.26300  0.27922  0.23200  Biso   1.000  N
  N20      1.0000 0.73700  0.77922  0.26800  Biso   1.000  N
  H41      1.0000 0.78210  0.74880  0.78940  Biso   1.000  H
  H42      1.0000 0.21790  0.24880  0.71060  Biso   1.000  H
  H43      1.0000 0.21790  0.25120  0.21060  Biso   1.000  H
  H44      1.0000 0.78210  0.75120  0.28940  Biso   1.000  H
  O1       1.0000 0.90830  0.68972  0.33240  Biso   1.000  O
  O2       1.0000 0.09170  0.18972  0.16760  Biso   1.000  O
  O3       1.0000 0.09170  0.31028  0.66760  Biso   1.000  O
  O4       1.0000 0.90830  0.81028  0.83240  Biso   1.000  O
  O5       1.0000 0.68100  0.63357  0.28320  Biso   1.000  O
  O6       1.0000 0.31900  0.13357  0.21680  Biso   1.000  O
  O7       1.0000 0.31900  0.36643  0.71680  Biso   1.000  O
  O8       1.0000 0.68100  0.86643  0.78320  Biso   1.000  O
  O9       1.0000 0.62340  0.53443  0.39690  Biso   1.000  O
  O10      1.0000 0.37660  0.03443  0.10310  Biso   1.000  O
  O11      1.0000 0.37660  0.46557  0.60310  Biso   1.000  O
  O12      1.0000 0.62340  0.96557  0.89690  Biso   1.000  O
  O13      1.0000 0.38510  0.48415  0.20760  Biso   1.000  O
  O14      1.0000 0.61490  0.98415  0.29240  Biso   1.000  O
  O15      1.0000 0.61490  0.51585  0.79240  Biso   1.000  O
  O16      1.0000 0.38510  0.01585  0.70760  Biso   1.000  O
  Cu1      1.0000 0.65676  0.59479  0.51851  Biso   1.000  Cu
  Cu2      1.0000 0.34324  0.09479  0.98149  Biso   1.000  Cu
  Cu3      1.0000 0.34324  0.40521  0.48149  Biso   1.000  Cu
  Cu4      1.0000 0.65676  0.90521  0.01851  Biso   1.000  Cu
  O17      1.0000 0.21430  0.74249  0.31800  Biso   1.000  O
  O18      1.0000 0.78570  0.24249  0.18200  Biso   1.000  O
  O19      1.0000 0.78570  0.25751  0.68200  Biso   1.000  O
  O20      1.0000 0.21430  0.75751  0.81800  Biso   1.000  O
  H45      1.0000 0.13200  0.72650  0.33300  Biso   1.000  H
  H46      1.0000 0.86800  0.22650  0.16700  Biso   1.000  H
  H47      1.0000 0.86800  0.27350  0.66700  Biso   1.000  H
  H48      1.0000 0.13200  0.77350  0.83300  Biso   1.000  H
  H49      1.0000 0.25800  0.76420  0.39400  Biso   1.000  H
  H50      1.0000 0.74200  0.26420  0.10600  Biso   1.000  H
  H51      1.0000 0.74200  0.23580  0.60600  Biso   1.000  H
  H52      1.0000 0.25800  0.73580  0.89400  Biso   1.000  H
  O21      1.0000 0.34410  0.69720  0.10880  Biso   1.000  O
  O22      1.0000 0.65590  0.19720  0.39120  Biso   1.000  O
  O23      1.0000 0.65590  0.30280  0.89120  Biso   1.000  O
  O24      1.0000 0.34410  0.80280  0.60880  Biso   1.000  O
  H53      1.0000 0.45200  0.68210  0.17000  Biso   1.000  H
  H54      1.0000 0.54800  0.18210  0.33000  Biso   1.000  H
  H55      1.0000 0.54800  0.31790  0.83000  Biso   1.000  H
  H56      1.0000 0.45200  0.81790  0.67000  Biso   1.000  H
  H57      1.0000 0.31700  0.71290  0.17600  Biso   1.000  H
  H58      1.0000 0.68300  0.21290  0.32400  Biso   1.000  H
  H59      1.0000 0.68300  0.28710  0.82400  Biso   1.000  H
  H60      1.0000 0.31700  0.78710  0.67600  Biso   1.000  H
