data_image0
_cell_length_a       18.096
_cell_length_b       23.962
_cell_length_c       13.932
_cell_angle_alpha    90
_cell_angle_beta     90
_cell_angle_gamma    90

_symmetry_space_group_name_H-M    "P 1"
_symmetry_int_tables_number       1

loop_
  _symmetry_equiv_pos_as_xyz
  'x, y, z'

loop_
  _atom_site_label
  _atom_site_occupancy
  _atom_site_fract_x
  _atom_site_fract_y
  _atom_site_fract_z
  _atom_site_thermal_displace_type
  _atom_site_B_iso_or_equiv
  _atom_site_type_symbol
  Cu1      1.0000 0.00000  0.17867  0.40519  Biso   1.000  Cu
  Cu2      1.0000 0.00000  0.82133  0.40519  Biso   1.000  Cu
  Cu3      1.0000 0.00000  0.82133  0.59481  Biso   1.000  Cu
  Cu4      1.0000 0.00000  0.17867  0.59481  Biso   1.000  Cu
  Cu5      1.0000 0.50000  0.67867  0.40519  Biso   1.000  Cu
  Cu6      1.0000 0.50000  0.32133  0.40519  Biso   1.000  Cu
  Cu7      1.0000 0.50000  0.32133  0.59481  Biso   1.000  Cu
  Cu8      1.0000 0.50000  0.67867  0.59481  Biso   1.000  Cu
  C1       1.0000 0.35810  0.44971  0.50000  Biso   1.000  C
  C2       1.0000 0.64190  0.55029  0.50000  Biso   1.000  C
  C3       1.0000 0.35810  0.55029  0.50000  Biso   1.000  C
  C4       1.0000 0.64190  0.44971  0.50000  Biso   1.000  C
  C5       1.0000 0.85810  0.94971  0.50000  Biso   1.000  C
  C6       1.0000 0.14190  0.05029  0.50000  Biso   1.000  C
  C7       1.0000 0.85810  0.05029  0.50000  Biso   1.000  C
  C8       1.0000 0.14190  0.94971  0.50000  Biso   1.000  C
  C9       1.0000 0.40440  0.39793  0.50000  Biso   1.000  C
  C10      1.0000 0.59560  0.60207  0.50000  Biso   1.000  C
  C11      1.0000 0.40440  0.60207  0.50000  Biso   1.000  C
  C12      1.0000 0.59560  0.39793  0.50000  Biso   1.000  C
  C13      1.0000 0.90440  0.89793  0.50000  Biso   1.000  C
  C14      1.0000 0.09560  0.10207  0.50000  Biso   1.000  C
  C15      1.0000 0.90440  0.10207  0.50000  Biso   1.000  C
  C16      1.0000 0.09560  0.89793  0.50000  Biso   1.000  C
  C17      1.0000 0.09640  0.25416  0.50000  Biso   1.000  C
  C18      1.0000 0.90360  0.74584  0.50000  Biso   1.000  C
  C19      1.0000 0.09640  0.74584  0.50000  Biso   1.000  C
  C20      1.0000 0.90360  0.25416  0.50000  Biso   1.000  C
  C21      1.0000 0.59640  0.75416  0.50000  Biso   1.000  C
  C22      1.0000 0.40360  0.24584  0.50000  Biso   1.000  C
  C23      1.0000 0.59640  0.24584  0.50000  Biso   1.000  C
  C24      1.0000 0.40360  0.75416  0.50000  Biso   1.000  C
  O1       1.0000 0.42435  0.37960  0.42144  Biso   1.000  O
  O2       1.0000 0.57565  0.62040  0.42144  Biso   1.000  O
  O3       1.0000 0.42435  0.62040  0.57856  Biso   1.000  O
  O4       1.0000 0.57565  0.37960  0.57856  Biso   1.000  O
  O5       1.0000 0.92435  0.87960  0.42144  Biso   1.000  O
  O6       1.0000 0.07565  0.12040  0.42144  Biso   1.000  O
  O7       1.0000 0.92435  0.12040  0.57856  Biso   1.000  O
  O8       1.0000 0.07565  0.87960  0.57856  Biso   1.000  O
  O9       1.0000 0.57565  0.62040  0.57856  Biso   1.000  O
  O10      1.0000 0.42435  0.37960  0.57856  Biso   1.000  O
  O11      1.0000 0.57565  0.37960  0.42144  Biso   1.000  O
  O12      1.0000 0.42435  0.62040  0.42144  Biso   1.000  O
  O13      1.0000 0.07565  0.12040  0.57856  Biso   1.000  O
  O14      1.0000 0.92435  0.87960  0.57856  Biso   1.000  O
  O15      1.0000 0.07565  0.87960  0.42144  Biso   1.000  O
  O16      1.0000 0.92435  0.12040  0.42144  Biso   1.000  O
  C25      1.0000 0.00000  0.22440  0.10340  Biso   1.000  C
  C26      1.0000 0.00000  0.77560  0.10340  Biso   1.000  C
  C27      1.0000 0.00000  0.77560  0.89660  Biso   1.000  C
  C28      1.0000 0.00000  0.22440  0.89660  Biso   1.000  C
  C29      1.0000 0.50000  0.72440  0.10340  Biso   1.000  C
  C30      1.0000 0.50000  0.27560  0.10340  Biso   1.000  C
  C31      1.0000 0.50000  0.27560  0.89660  Biso   1.000  C
  C32      1.0000 0.50000  0.72440  0.89660  Biso   1.000  C
  H1       1.0000 0.00000  0.25940  0.07160  Biso   1.000  H
  H2       1.0000 0.00000  0.74060  0.07160  Biso   1.000  H
  H3       1.0000 0.00000  0.74060  0.92840  Biso   1.000  H
  H4       1.0000 0.00000  0.25940  0.92840  Biso   1.000  H
  H5       1.0000 0.50000  0.75940  0.07160  Biso   1.000  H
  H6       1.0000 0.50000  0.24060  0.07160  Biso   1.000  H
  H7       1.0000 0.50000  0.24060  0.92840  Biso   1.000  H
  H8       1.0000 0.50000  0.75940  0.92840  Biso   1.000  H
  C33      1.0000 0.39350  0.50000  0.50000  Biso   1.000  C
  C34      1.0000 0.60650  0.50000  0.50000  Biso   1.000  C
  C35      1.0000 0.89350  0.00000  0.50000  Biso   1.000  C
  C36      1.0000 0.10650  0.00000  0.50000  Biso   1.000  C
  H9       1.0000 0.44600  0.50000  0.50000  Biso   1.000  H
  H10      1.0000 0.55400  0.50000  0.50000  Biso   1.000  H
  H11      1.0000 0.94600  0.00000  0.50000  Biso   1.000  H
  H12      1.0000 0.05400  0.00000  0.50000  Biso   1.000  H
  O17      1.0000 0.07520  0.23616  0.42260  Biso   1.000  O
  O18      1.0000 0.92480  0.76384  0.42260  Biso   1.000  O
  O19      1.0000 0.07520  0.76384  0.57740  Biso   1.000  O
  O20      1.0000 0.92480  0.23616  0.57740  Biso   1.000  O
  O21      1.0000 0.57520  0.73616  0.42260  Biso   1.000  O
  O22      1.0000 0.42480  0.26384  0.42260  Biso   1.000  O
  O23      1.0000 0.57520  0.26384  0.57740  Biso   1.000  O
  O24      1.0000 0.42480  0.73616  0.57740  Biso   1.000  O
  O25      1.0000 0.92480  0.76384  0.57740  Biso   1.000  O
  O26      1.0000 0.07520  0.23616  0.57740  Biso   1.000  O
  O27      1.0000 0.92480  0.23616  0.42260  Biso   1.000  O
  O28      1.0000 0.07520  0.76384  0.42260  Biso   1.000  O
  O29      1.0000 0.42480  0.26384  0.57740  Biso   1.000  O
  O30      1.0000 0.57520  0.73616  0.57740  Biso   1.000  O
  O31      1.0000 0.42480  0.73616  0.42260  Biso   1.000  O
  O32      1.0000 0.57520  0.26384  0.42260  Biso   1.000  O
  N1       1.0000 0.00000  0.17736  0.25380  Biso   1.000  N
  N2       1.0000 0.00000  0.82264  0.25380  Biso   1.000  N
  N3       1.0000 0.00000  0.82264  0.74620  Biso   1.000  N
  N4       1.0000 0.00000  0.17736  0.74620  Biso   1.000  N
  N5       1.0000 0.50000  0.67736  0.25380  Biso   1.000  N
  N6       1.0000 0.50000  0.32264  0.25380  Biso   1.000  N
  N7       1.0000 0.50000  0.32264  0.74620  Biso   1.000  N
  N8       1.0000 0.50000  0.67736  0.74620  Biso   1.000  N
  C37      1.0000 0.28170  0.44910  0.50000  Biso   1.000  C
  C38      1.0000 0.71830  0.55090  0.50000  Biso   1.000  C
  C39      1.0000 0.28170  0.55090  0.50000  Biso   1.000  C
  C40      1.0000 0.71830  0.44910  0.50000  Biso   1.000  C
  C41      1.0000 0.78170  0.94910  0.50000  Biso   1.000  C
  C42      1.0000 0.21830  0.05090  0.50000  Biso   1.000  C
  C43      1.0000 0.78170  0.05090  0.50000  Biso   1.000  C
  C44      1.0000 0.21830  0.94910  0.50000  Biso   1.000  C
  C45      1.0000 0.00000  0.13280  0.10360  Biso   1.000  C
  C46      1.0000 0.00000  0.86720  0.10360  Biso   1.000  C
  C47      1.0000 0.00000  0.86720  0.89640  Biso   1.000  C
  C48      1.0000 0.00000  0.13280  0.89640  Biso   1.000  C
  C49      1.0000 0.50000  0.63280  0.10360  Biso   1.000  C
  C50      1.0000 0.50000  0.36720  0.10360  Biso   1.000  C
  C51      1.0000 0.50000  0.36720  0.89640  Biso   1.000  C
  C52      1.0000 0.50000  0.63280  0.89640  Biso   1.000  C
  H13      1.0000 0.00000  0.09740  0.07290  Biso   1.000  H
  H14      1.0000 0.00000  0.90260  0.07290  Biso   1.000  H
  H15      1.0000 0.00000  0.90260  0.92710  Biso   1.000  H
  H16      1.0000 0.00000  0.09740  0.92710  Biso   1.000  H
  H17      1.0000 0.50000  0.59740  0.07290  Biso   1.000  H
  H18      1.0000 0.50000  0.40260  0.07290  Biso   1.000  H
  H19      1.0000 0.50000  0.40260  0.92710  Biso   1.000  H
  H20      1.0000 0.50000  0.59740  0.92710  Biso   1.000  H
  C53      1.0000 0.24600  0.50000  0.50000  Biso   1.000  C
  C54      1.0000 0.75400  0.50000  0.50000  Biso   1.000  C
  C55      1.0000 0.74600  0.00000  0.50000  Biso   1.000  C
  C56      1.0000 0.25400  0.00000  0.50000  Biso   1.000  C
  H21      1.0000 0.19350  0.50000  0.50000  Biso   1.000  H
  H22      1.0000 0.80650  0.50000  0.50000  Biso   1.000  H
  H23      1.0000 0.69350  0.00000  0.50000  Biso   1.000  H
  H24      1.0000 0.30650  0.00000  0.50000  Biso   1.000  H
  C57      1.0000 0.00000  0.22190  0.20410  Biso   1.000  C
  C58      1.0000 0.00000  0.77810  0.20410  Biso   1.000  C
  C59      1.0000 0.00000  0.77810  0.79590  Biso   1.000  C
  C60      1.0000 0.00000  0.22190  0.79590  Biso   1.000  C
  C61      1.0000 0.50000  0.72190  0.20410  Biso   1.000  C
  C62      1.0000 0.50000  0.27810  0.20410  Biso   1.000  C
  C63      1.0000 0.50000  0.27810  0.79590  Biso   1.000  C
  C64      1.0000 0.50000  0.72190  0.79590  Biso   1.000  C
  H25      1.0000 0.00000  0.25640  0.23790  Biso   1.000  H
  H26      1.0000 0.00000  0.74360  0.23790  Biso   1.000  H
  H27      1.0000 0.00000  0.74360  0.76210  Biso   1.000  H
  H28      1.0000 0.00000  0.25640  0.76210  Biso   1.000  H
  H29      1.0000 0.50000  0.75640  0.23790  Biso   1.000  H
  H30      1.0000 0.50000  0.24360  0.23790  Biso   1.000  H
  H31      1.0000 0.50000  0.24360  0.76210  Biso   1.000  H
  H32      1.0000 0.50000  0.75640  0.76210  Biso   1.000  H
  C65      1.0000 0.00000  0.17630  0.05180  Biso   1.000  C
  C66      1.0000 0.00000  0.82370  0.05180  Biso   1.000  C
  C67      1.0000 0.00000  0.82370  0.94820  Biso   1.000  C
  C68      1.0000 0.00000  0.17630  0.94820  Biso   1.000  C
  C69      1.0000 0.50000  0.67630  0.05180  Biso   1.000  C
  C70      1.0000 0.50000  0.32370  0.05180  Biso   1.000  C
  C71      1.0000 0.50000  0.32370  0.94820  Biso   1.000  C
  C72      1.0000 0.50000  0.67630  0.94820  Biso   1.000  C
  C73      1.0000 0.00000  0.13460  0.20380  Biso   1.000  C
  C74      1.0000 0.00000  0.86540  0.20380  Biso   1.000  C
  C75      1.0000 0.00000  0.86540  0.79620  Biso   1.000  C
  C76      1.0000 0.00000  0.13460  0.79620  Biso   1.000  C
  C77      1.0000 0.50000  0.63460  0.20380  Biso   1.000  C
  C78      1.0000 0.50000  0.36540  0.20380  Biso   1.000  C
  C79      1.0000 0.50000  0.36540  0.79620  Biso   1.000  C
  C80      1.0000 0.50000  0.63460  0.79620  Biso   1.000  C
  H33      1.0000 0.00000  0.09980  0.23670  Biso   1.000  H
  H34      1.0000 0.00000  0.90020  0.23670  Biso   1.000  H
  H35      1.0000 0.00000  0.90020  0.76330  Biso   1.000  H
  H36      1.0000 0.00000  0.09980  0.76330  Biso   1.000  H
  H37      1.0000 0.50000  0.59980  0.23670  Biso   1.000  H
  H38      1.0000 0.50000  0.40020  0.23670  Biso   1.000  H
  H39      1.0000 0.50000  0.40020  0.76330  Biso   1.000  H
  H40      1.0000 0.50000  0.59980  0.76330  Biso   1.000  H
  C81      1.0000 0.14800  0.30270  0.50000  Biso   1.000  C
  C82      1.0000 0.85200  0.69730  0.50000  Biso   1.000  C
  C83      1.0000 0.14800  0.69730  0.50000  Biso   1.000  C
  C84      1.0000 0.85200  0.30270  0.50000  Biso   1.000  C
  C85      1.0000 0.64800  0.80270  0.50000  Biso   1.000  C
  C86      1.0000 0.35200  0.19730  0.50000  Biso   1.000  C
  C87      1.0000 0.64800  0.19730  0.50000  Biso   1.000  C
  C88      1.0000 0.35200  0.80270  0.50000  Biso   1.000  C
  C89      1.0000 0.23940  0.39620  0.50000  Biso   1.000  C
  C90      1.0000 0.76060  0.60380  0.50000  Biso   1.000  C
  C91      1.0000 0.23940  0.60380  0.50000  Biso   1.000  C
  C92      1.0000 0.76060  0.39620  0.50000  Biso   1.000  C
  C93      1.0000 0.73940  0.89620  0.50000  Biso   1.000  C
  C94      1.0000 0.26060  0.10380  0.50000  Biso   1.000  C
  C95      1.0000 0.73940  0.10380  0.50000  Biso   1.000  C
  C96      1.0000 0.26060  0.89620  0.50000  Biso   1.000  C
  C97      1.0000 0.19910  0.31190  0.44390  Biso   1.000  C
  C98      1.0000 0.80090  0.68810  0.44390  Biso   1.000  C
  C99      1.0000 0.19910  0.68810  0.55610  Biso   1.000  C
  C100     1.0000 0.80090  0.31190  0.55610  Biso   1.000  C
  C101     1.0000 0.69910  0.81190  0.44390  Biso   1.000  C
  C102     1.0000 0.30090  0.18810  0.44390  Biso   1.000  C
  C103     1.0000 0.69910  0.18810  0.55610  Biso   1.000  C
  C104     1.0000 0.30090  0.81190  0.55610  Biso   1.000  C
  C105     1.0000 0.80090  0.68810  0.55610  Biso   1.000  C
  C106     1.0000 0.19910  0.31190  0.55610  Biso   1.000  C
  C107     1.0000 0.80090  0.31190  0.44390  Biso   1.000  C
  C108     1.0000 0.19910  0.68810  0.44390  Biso   1.000  C
  C109     1.0000 0.30090  0.18810  0.55610  Biso   1.000  C
  C110     1.0000 0.69910  0.81190  0.55610  Biso   1.000  C
  C111     1.0000 0.30090  0.81190  0.44390  Biso   1.000  C
  C112     1.0000 0.69910  0.18810  0.44390  Biso   1.000  C
  C113     1.0000 0.14410  0.34060  0.40670  Biso   1.000  C
  C114     1.0000 0.85590  0.65940  0.40670  Biso   1.000  C
  C115     1.0000 0.14410  0.65940  0.59330  Biso   1.000  C
  C116     1.0000 0.85590  0.34060  0.59330  Biso   1.000  C
  C117     1.0000 0.64410  0.84060  0.40670  Biso   1.000  C
  C118     1.0000 0.35590  0.15940  0.40670  Biso   1.000  C
  C119     1.0000 0.64410  0.15940  0.59330  Biso   1.000  C
  C120     1.0000 0.35590  0.84060  0.59330  Biso   1.000  C
  C121     1.0000 0.85590  0.65940  0.59330  Biso   1.000  C
  C122     1.0000 0.14410  0.34060  0.59330  Biso   1.000  C
  C123     1.0000 0.85590  0.34060  0.40670  Biso   1.000  C
  C124     1.0000 0.14410  0.65940  0.40670  Biso   1.000  C
  C125     1.0000 0.35590  0.15940  0.59330  Biso   1.000  C
  C126     1.0000 0.64410  0.84060  0.59330  Biso   1.000  C
  C127     1.0000 0.35590  0.84060  0.40670  Biso   1.000  C
  C128     1.0000 0.64410  0.15940  0.40670  Biso   1.000  C
  H41      1.0000 0.11180  0.33160  0.35520  Biso   1.000  H
  H42      1.0000 0.88820  0.66840  0.35520  Biso   1.000  H
  H43      1.0000 0.11180  0.66840  0.64480  Biso   1.000  H
  H44      1.0000 0.88820  0.33160  0.64480  Biso   1.000  H
  H45      1.0000 0.61180  0.83160  0.35520  Biso   1.000  H
  H46      1.0000 0.38820  0.16840  0.35520  Biso   1.000  H
  H47      1.0000 0.61180  0.16840  0.64480  Biso   1.000  H
  H48      1.0000 0.38820  0.83160  0.64480  Biso   1.000  H
  H49      1.0000 0.88820  0.66840  0.64480  Biso   1.000  H
  H50      1.0000 0.11180  0.33160  0.64480  Biso   1.000  H
  H51      1.0000 0.88820  0.33160  0.35520  Biso   1.000  H
  H52      1.0000 0.11180  0.66840  0.35520  Biso   1.000  H
  H53      1.0000 0.38820  0.16840  0.64480  Biso   1.000  H
  H54      1.0000 0.61180  0.83160  0.64480  Biso   1.000  H
  H55      1.0000 0.38820  0.83160  0.35520  Biso   1.000  H
  H56      1.0000 0.61180  0.16840  0.35520  Biso   1.000  H
  C129     1.0000 0.18820  0.38610  0.40270  Biso   1.000  C
  C130     1.0000 0.81180  0.61390  0.40270  Biso   1.000  C
  C131     1.0000 0.18820  0.61390  0.59730  Biso   1.000  C
  C132     1.0000 0.81180  0.38610  0.59730  Biso   1.000  C
  C133     1.0000 0.68820  0.88610  0.40270  Biso   1.000  C
  C134     1.0000 0.31180  0.11390  0.40270  Biso   1.000  C
  C135     1.0000 0.68820  0.11390  0.59730  Biso   1.000  C
  C136     1.0000 0.31180  0.88610  0.59730  Biso   1.000  C
  C137     1.0000 0.81180  0.61390  0.59730  Biso   1.000  C
  C138     1.0000 0.18820  0.38610  0.59730  Biso   1.000  C
  C139     1.0000 0.81180  0.38610  0.40270  Biso   1.000  C
  C140     1.0000 0.18820  0.61390  0.40270  Biso   1.000  C
  C141     1.0000 0.31180  0.11390  0.59730  Biso   1.000  C
  C142     1.0000 0.68820  0.88610  0.59730  Biso   1.000  C
  C143     1.0000 0.31180  0.88610  0.40270  Biso   1.000  C
  C144     1.0000 0.68820  0.11390  0.40270  Biso   1.000  C
  H57      1.0000 0.18970  0.41030  0.34880  Biso   1.000  H
  H58      1.0000 0.81030  0.58970  0.34880  Biso   1.000  H
  H59      1.0000 0.18970  0.58970  0.65120  Biso   1.000  H
  H60      1.0000 0.81030  0.41030  0.65120  Biso   1.000  H
  H61      1.0000 0.68970  0.91030  0.34880  Biso   1.000  H
  H62      1.0000 0.31030  0.08970  0.34880  Biso   1.000  H
  H63      1.0000 0.68970  0.08970  0.65120  Biso   1.000  H
  H64      1.0000 0.31030  0.91030  0.65120  Biso   1.000  H
  H65      1.0000 0.81030  0.58970  0.65120  Biso   1.000  H
  H66      1.0000 0.18970  0.41030  0.65120  Biso   1.000  H
  H67      1.0000 0.81030  0.41030  0.34880  Biso   1.000  H
  H68      1.0000 0.18970  0.58970  0.34880  Biso   1.000  H
  H69      1.0000 0.31030  0.08970  0.65120  Biso   1.000  H
  H70      1.0000 0.68970  0.91030  0.65120  Biso   1.000  H
  H71      1.0000 0.31030  0.91030  0.34880  Biso   1.000  H
  H72      1.0000 0.68970  0.08970  0.34880  Biso   1.000  H
  C145     1.0000 0.24540  0.35810  0.45090  Biso   1.000  C
  C146     1.0000 0.75460  0.64190  0.45090  Biso   1.000  C
  C147     1.0000 0.24540  0.64190  0.54910  Biso   1.000  C
  C148     1.0000 0.75460  0.35810  0.54910  Biso   1.000  C
  C149     1.0000 0.74540  0.85810  0.45090  Biso   1.000  C
  C150     1.0000 0.25460  0.14190  0.45090  Biso   1.000  C
  C151     1.0000 0.74540  0.14190  0.54910  Biso   1.000  C
  C152     1.0000 0.25460  0.85810  0.54910  Biso   1.000  C
  C153     1.0000 0.75460  0.64190  0.54910  Biso   1.000  C
  C154     1.0000 0.24540  0.35810  0.54910  Biso   1.000  C
  C155     1.0000 0.75460  0.35810  0.45090  Biso   1.000  C
  C156     1.0000 0.24540  0.64190  0.45090  Biso   1.000  C
  C157     1.0000 0.25460  0.14190  0.54910  Biso   1.000  C
  C158     1.0000 0.74540  0.85810  0.54910  Biso   1.000  C
  C159     1.0000 0.25460  0.85810  0.45090  Biso   1.000  C
  C160     1.0000 0.74540  0.14190  0.45090  Biso   1.000  C
  H73      1.0000 0.28000  0.36400  0.40100  Biso   1.000  H
  H74      1.0000 0.72000  0.63600  0.40100  Biso   1.000  H
  H75      1.0000 0.28000  0.63600  0.59900  Biso   1.000  H
  H76      1.0000 0.72000  0.36400  0.59900  Biso   1.000  H
  H77      1.0000 0.78000  0.86400  0.40100  Biso   1.000  H
  H78      1.0000 0.22000  0.13600  0.40100  Biso   1.000  H
  H79      1.0000 0.78000  0.13600  0.59900  Biso   1.000  H
  H80      1.0000 0.22000  0.86400  0.59900  Biso   1.000  H
  H81      1.0000 0.72000  0.63600  0.59900  Biso   1.000  H
  H82      1.0000 0.28000  0.36400  0.59900  Biso   1.000  H
  H83      1.0000 0.72000  0.36400  0.40100  Biso   1.000  H
  H84      1.0000 0.28000  0.63600  0.40100  Biso   1.000  H
  H85      1.0000 0.22000  0.13600  0.59900  Biso   1.000  H
  H86      1.0000 0.78000  0.86400  0.59900  Biso   1.000  H
  H87      1.0000 0.22000  0.86400  0.40100  Biso   1.000  H
  H88      1.0000 0.78000  0.13600  0.40100  Biso   1.000  H
  H89      1.0000 0.20800  0.28220  0.39800  Biso   1.000  H
  H90      1.0000 0.79200  0.71780  0.39800  Biso   1.000  H
  H91      1.0000 0.20800  0.71780  0.60200  Biso   1.000  H
  H92      1.0000 0.79200  0.28220  0.60200  Biso   1.000  H
  H93      1.0000 0.70800  0.78220  0.39800  Biso   1.000  H
  H94      1.0000 0.29200  0.21780  0.39800  Biso   1.000  H
  H95      1.0000 0.70800  0.21780  0.60200  Biso   1.000  H
  H96      1.0000 0.29200  0.78220  0.60200  Biso   1.000  H
  H97      1.0000 0.79200  0.71780  0.60200  Biso   1.000  H
  H98      1.0000 0.20800  0.28220  0.60200  Biso   1.000  H
  H99      1.0000 0.79200  0.28220  0.39800  Biso   1.000  H
  H100     1.0000 0.20800  0.71780  0.39800  Biso   1.000  H
  H101     1.0000 0.29200  0.21780  0.60200  Biso   1.000  H
  H102     1.0000 0.70800  0.78220  0.60200  Biso   1.000  H
  H103     1.0000 0.29200  0.78220  0.39800  Biso   1.000  H
  H104     1.0000 0.70800  0.21780  0.39800  Biso   1.000  H
