data_image0
_cell_length_a       7.2326
_cell_length_b       9.8199
_cell_length_c       20.7478
_cell_angle_alpha    90
_cell_angle_beta     91.291
_cell_angle_gamma    90

_symmetry_space_group_name_H-M    "P 1"
_symmetry_int_tables_number       1

loop_
  _symmetry_equiv_pos_as_xyz
  'x, y, z'

loop_
  _atom_site_label
  _atom_site_occupancy
  _atom_site_fract_x
  _atom_site_fract_y
  _atom_site_fract_z
  _atom_site_thermal_displace_type
  _atom_site_B_iso_or_equiv
  _atom_site_type_symbol
  C1       1.0000 0.67110  0.41060  0.28750  Biso   1.000  C
  C2       1.0000 0.82890  0.91060  0.21250  Biso   1.000  C
  C3       1.0000 0.32890  0.58940  0.71250  Biso   1.000  C
  C4       1.0000 0.17110  0.08940  0.78750  Biso   1.000  C
  H1       1.0000 0.79350  0.43970  0.28820  Biso   1.000  H
  H2       1.0000 0.70650  0.93970  0.21180  Biso   1.000  H
  H3       1.0000 0.20650  0.56030  0.71180  Biso   1.000  H
  H4       1.0000 0.29350  0.06030  0.78820  Biso   1.000  H
  C5       1.0000 0.61610  0.31540  0.24280  Biso   1.000  C
  C6       1.0000 0.88390  0.81540  0.25720  Biso   1.000  C
  C7       1.0000 0.38390  0.68460  0.75720  Biso   1.000  C
  C8       1.0000 0.11610  0.18460  0.74280  Biso   1.000  C
  C9       1.0000 0.43230  0.27510  0.24030  Biso   1.000  C
  C10      1.0000 0.06770  0.77510  0.25970  Biso   1.000  C
  C11      1.0000 0.56770  0.72490  0.75970  Biso   1.000  C
  C12      1.0000 0.93230  0.22490  0.74030  Biso   1.000  C
  H5       1.0000 0.38970  0.21470  0.20880  Biso   1.000  H
  H6       1.0000 0.11030  0.71470  0.29120  Biso   1.000  H
  H7       1.0000 0.61030  0.78530  0.79120  Biso   1.000  H
  H8       1.0000 0.88970  0.28530  0.70880  Biso   1.000  H
  C13      1.0000 0.31210  0.32720  0.28620  Biso   1.000  C
  C14      1.0000 0.18790  0.82720  0.21380  Biso   1.000  C
  C15      1.0000 0.68790  0.67280  0.71380  Biso   1.000  C
  C16      1.0000 0.81210  0.17280  0.78620  Biso   1.000  C
  H9       1.0000 0.18920  0.29950  0.28690  Biso   1.000  H
  H10      1.0000 0.31080  0.79950  0.21310  Biso   1.000  H
  H11      1.0000 0.81080  0.70050  0.71310  Biso   1.000  H
  H12      1.0000 0.68920  0.20050  0.78690  Biso   1.000  H
  C17      1.0000 0.37810  0.41760  0.32910  Biso   1.000  C
  C18      1.0000 0.12190  0.91760  0.17090  Biso   1.000  C
  C19      1.0000 0.62190  0.58240  0.67090  Biso   1.000  C
  C20      1.0000 0.87810  0.08240  0.82910  Biso   1.000  C
  C21      1.0000 0.75580  0.26040  0.19730  Biso   1.000  C
  C22      1.0000 0.74420  0.76040  0.30270  Biso   1.000  C
  C23      1.0000 0.24420  0.73960  0.80270  Biso   1.000  C
  C24      1.0000 0.25580  0.23960  0.69730  Biso   1.000  C
  C25      1.0000 0.26770  0.47710  0.38450  Biso   1.000  C
  C26      1.0000 0.23230  0.97710  0.11550  Biso   1.000  C
  C27      1.0000 0.73230  0.52290  0.61550  Biso   1.000  C
  C28      1.0000 0.76770  0.02290  0.88450  Biso   1.000  C
  C29      1.0000 0.52250  0.78210  0.50820  Biso   1.000  C
  C30      1.0000 0.97750  0.28210  0.99180  Biso   1.000  C
  C31      1.0000 0.47750  0.21790  0.49180  Biso   1.000  C
  C32      1.0000 0.02250  0.71790  0.00820  Biso   1.000  C
  H13      1.0000 0.40100  0.75550  0.49950  Biso   1.000  H
  H14      1.0000 0.09900  0.25550  0.00050  Biso   1.000  H
  H15      1.0000 0.59900  0.24450  0.50050  Biso   1.000  H
  H16      1.0000 0.90100  0.74450  0.99950  Biso   1.000  H
  C33      1.0000 0.55250  0.86560  0.55820  Biso   1.000  C
  C34      1.0000 0.94750  0.36560  0.94180  Biso   1.000  C
  C35      1.0000 0.44750  0.13440  0.44180  Biso   1.000  C
  C36      1.0000 0.05250  0.63440  0.05820  Biso   1.000  C
  C37      1.0000 0.73670  0.91200  0.57330  Biso   1.000  C
  C38      1.0000 0.76330  0.41200  0.92670  Biso   1.000  C
  C39      1.0000 0.26330  0.08800  0.42670  Biso   1.000  C
  C40      1.0000 0.23670  0.58800  0.07330  Biso   1.000  C
  C41      1.0000 0.86990  0.85910  0.53220  Biso   1.000  C
  C42      1.0000 0.63010  0.35910  0.96780  Biso   1.000  C
  C43      1.0000 0.13010  0.14090  0.46780  Biso   1.000  C
  C44      1.0000 0.36990  0.64090  0.03220  Biso   1.000  C
  H17      1.0000 0.99310  0.88250  0.53980  Biso   1.000  H
  H18      1.0000 0.50690  0.38250  0.96020  Biso   1.000  H
  H19      1.0000 0.00690  0.11750  0.46020  Biso   1.000  H
  H20      1.0000 0.49310  0.61750  0.03980  Biso   1.000  H
  C45      1.0000 0.82760  0.77420  0.48120  Biso   1.000  C
  C46      1.0000 0.67240  0.27420  0.01880  Biso   1.000  C
  C47      1.0000 0.17240  0.22580  0.51880  Biso   1.000  C
  C48      1.0000 0.32760  0.72580  0.98120  Biso   1.000  C
  H21      1.0000 0.92160  0.74480  0.45460  Biso   1.000  H
  H22      1.0000 0.57840  0.24480  0.04540  Biso   1.000  H
  H23      1.0000 0.07840  0.25520  0.54540  Biso   1.000  H
  H24      1.0000 0.42160  0.75520  0.95460  Biso   1.000  H
  C49      1.0000 0.39420  0.91140  0.60020  Biso   1.000  C
  C50      1.0000 0.10580  0.41140  0.89980  Biso   1.000  C
  C51      1.0000 0.60580  0.08860  0.39980  Biso   1.000  C
  C52      1.0000 0.89420  0.58860  0.10020  Biso   1.000  C
  H25      1.0000 0.44100  0.97110  0.63340  Biso   1.000  H
  H26      1.0000 0.05900  0.47110  0.86660  Biso   1.000  H
  H27      1.0000 0.55900  0.02890  0.36660  Biso   1.000  H
  H28      1.0000 0.94100  0.52890  0.13340  Biso   1.000  H
  H29      1.0000 0.33830  0.83320  0.61950  Biso   1.000  H
  H30      1.0000 0.16170  0.33320  0.88050  Biso   1.000  H
  H31      1.0000 0.66170  0.16680  0.38050  Biso   1.000  H
  H32      1.0000 0.83830  0.66680  0.11950  Biso   1.000  H
  H33      1.0000 0.30360  0.95870  0.57410  Biso   1.000  H
  H34      1.0000 0.19640  0.45870  0.92590  Biso   1.000  H
  H35      1.0000 0.69640  0.04130  0.42590  Biso   1.000  H
  H36      1.0000 0.80360  0.54130  0.07410  Biso   1.000  H
  C53      1.0000 0.78490  0.00390  0.62590  Biso   1.000  C
  C54      1.0000 0.71510  0.50390  0.87410  Biso   1.000  C
  C55      1.0000 0.21510  0.99610  0.37410  Biso   1.000  C
  C56      1.0000 0.28490  0.49610  0.12590  Biso   1.000  C
  H37      1.0000 0.91550  0.02110  0.62620  Biso   1.000  H
  H38      1.0000 0.58450  0.52110  0.87380  Biso   1.000  H
  H39      1.0000 0.08450  0.97890  0.37380  Biso   1.000  H
  H40      1.0000 0.41550  0.47890  0.12620  Biso   1.000  H
  H41      1.0000 0.75160  0.96320  0.66610  Biso   1.000  H
  H42      1.0000 0.74840  0.46320  0.83390  Biso   1.000  H
  H43      1.0000 0.24840  0.03680  0.33390  Biso   1.000  H
  H44      1.0000 0.25160  0.53680  0.16610  Biso   1.000  H
  H45      1.0000 0.71920  0.08820  0.62020  Biso   1.000  H
  H46      1.0000 0.78080  0.58820  0.87980  Biso   1.000  H
  H47      1.0000 0.28080  0.91180  0.37980  Biso   1.000  H
  H48      1.0000 0.21920  0.41180  0.12020  Biso   1.000  H
  N1       1.0000 0.55490  0.46330  0.33030  Biso   1.000  N
  N2       1.0000 0.94510  0.96330  0.16970  Biso   1.000  N
  N3       1.0000 0.44510  0.53670  0.66970  Biso   1.000  N
  N4       1.0000 0.05490  0.03670  0.83030  Biso   1.000  N
  N5       1.0000 0.65440  0.73320  0.46910  Biso   1.000  N
  N6       1.0000 0.84560  0.23320  0.03090  Biso   1.000  N
  N7       1.0000 0.34560  0.26680  0.53090  Biso   1.000  N
  N8       1.0000 0.15440  0.76680  0.96910  Biso   1.000  N
  O1       1.0000 0.91830  0.28920  0.20240  Biso   1.000  O
  O2       1.0000 0.58170  0.78920  0.29760  Biso   1.000  O
  O3       1.0000 0.08170  0.71080  0.79760  Biso   1.000  O
  O4       1.0000 0.41830  0.21080  0.70240  Biso   1.000  O
  O5       1.0000 0.68980  0.17950  0.15370  Biso   1.000  O
  O6       1.0000 0.81020  0.67950  0.34630  Biso   1.000  O
  O7       1.0000 0.31020  0.82050  0.84630  Biso   1.000  O
  O8       1.0000 0.18980  0.32050  0.65370  Biso   1.000  O
  O9       1.0000 0.35180  0.56060  0.42150  Biso   1.000  O
  O10      1.0000 0.14820  0.06060  0.07850  Biso   1.000  O
  O11      1.0000 0.64820  0.43940  0.57850  Biso   1.000  O
  O12      1.0000 0.85180  0.93940  0.92150  Biso   1.000  O
  O13      1.0000 0.10710  0.43770  0.38990  Biso   1.000  O
  O14      1.0000 0.39290  0.93770  0.11010  Biso   1.000  O
  O15      1.0000 0.89290  0.56230  0.61010  Biso   1.000  O
  O16      1.0000 0.60710  0.06230  0.88990  Biso   1.000  O
  Cu1      1.0000 0.60886  0.60259  0.39733  Biso   1.000  Cu
  Cu2      1.0000 0.89114  0.10259  0.10267  Biso   1.000  Cu
  Cu3      1.0000 0.39114  0.39741  0.60267  Biso   1.000  Cu
  Cu4      1.0000 0.10886  0.89741  0.89733  Biso   1.000  Cu
  O17      1.0000 0.78190  0.44480  0.45180  Biso   1.000  O
  O18      1.0000 0.71810  0.94480  0.04820  Biso   1.000  O
  O19      1.0000 0.21810  0.55520  0.54820  Biso   1.000  O
  O20      1.0000 0.28190  0.05520  0.95180  Biso   1.000  O
  H49      1.0000 0.88700  0.45800  0.43900  Biso   1.000  H
  H50      1.0000 0.61300  0.95800  0.06100  Biso   1.000  H
  H51      1.0000 0.11300  0.54200  0.56100  Biso   1.000  H
  H52      1.0000 0.38700  0.04200  0.93900  Biso   1.000  H
  H53      1.0000 0.78600  0.43400  0.49160  Biso   1.000  H
  H54      1.0000 0.71400  0.93400  0.00840  Biso   1.000  H
  H55      1.0000 0.21400  0.56600  0.50840  Biso   1.000  H
  H56      1.0000 0.28600  0.06600  0.99160  Biso   1.000  H
