data_image0
_cell_length_a       10.324
_cell_length_b       14.905
_cell_length_c       15.002
_cell_angle_alpha    94.857
_cell_angle_beta     108.503
_cell_angle_gamma    109.59

_symmetry_space_group_name_H-M    "P 1"
_symmetry_int_tables_number       1

loop_
  _symmetry_equiv_pos_as_xyz
  'x, y, z'

loop_
  _atom_site_label
  _atom_site_occupancy
  _atom_site_fract_x
  _atom_site_fract_y
  _atom_site_fract_z
  _atom_site_thermal_displace_type
  _atom_site_B_iso_or_equiv
  _atom_site_type_symbol
  Cu1      1.0000 0.44712  0.30748  0.70960  Biso   1.000  Cu
  Cu2      1.0000 0.55288  0.69252  0.29040  Biso   1.000  Cu
  Cu3      1.0000 0.20528  0.34486  0.64983  Biso   1.000  Cu
  Cu4      1.0000 0.79472  0.65514  0.35017  Biso   1.000  Cu
  O1       1.0000 0.44550  0.55350  0.27510  Biso   1.000  O
  O2       1.0000 0.55450  0.44650  0.72490  Biso   1.000  O
  O3       1.0000 0.64830  0.52180  0.33640  Biso   1.000  O
  O4       1.0000 0.35170  0.47820  0.66360  Biso   1.000  O
  C1       1.0000 0.31630  0.33020  0.22650  Biso   1.000  C
  C2       1.0000 0.68370  0.66980  0.77350  Biso   1.000  C
  O5       1.0000 0.02500  0.38980  0.61230  Biso   1.000  O
  O6       1.0000 0.97500  0.61020  0.38770  Biso   1.000  O
  O7       1.0000 0.44340  0.33350  0.83750  Biso   1.000  O
  O8       1.0000 0.55660  0.66650  0.16250  Biso   1.000  O
  C3       1.0000 0.41550  0.40040  0.30820  Biso   1.000  C
  C4       1.0000 0.58450  0.59960  0.69180  Biso   1.000  C
  O9       1.0000 0.63050  0.26540  0.74040  Biso   1.000  O
  O10      1.0000 0.36950  0.73460  0.25960  Biso   1.000  O
  O11      1.0000 0.69500  0.82690  0.31030  Biso   1.000  O
  O12      1.0000 0.30500  0.17310  0.68970  Biso   1.000  O
  O13      1.0000 0.41840  0.29270  0.57040  Biso   1.000  O
  O14      1.0000 0.58160  0.70730  0.42960  Biso   1.000  O
  O15      1.0000 0.20270  0.31390  0.51930  Biso   1.000  O
  O16      1.0000 0.79730  0.68610  0.48070  Biso   1.000  O
  C5       1.0000 0.92540  0.95230  0.34010  Biso   1.000  C
  C6       1.0000 0.07460  0.04770  0.65990  Biso   1.000  C
  C7       1.0000 0.33850  0.35850  0.94990  Biso   1.000  C
  C8       1.0000 0.66150  0.64150  0.05010  Biso   1.000  C
  O17      1.0000 0.89950  0.79320  0.36090  Biso   1.000  O
  O18      1.0000 0.10050  0.20680  0.63910  Biso   1.000  O
  C9       1.0000 0.21730  0.24640  0.23730  Biso   1.000  C
  C10      1.0000 0.78270  0.75360  0.76270  Biso   1.000  C
  H1       1.0000 0.15090  0.19880  0.18260  Biso   1.000  H
  H2       1.0000 0.84910  0.80120  0.81740  Biso   1.000  H
  C11      1.0000 0.32400  0.34270  0.13100  Biso   1.000  C
  C12      1.0000 0.67600  0.65730  0.86900  Biso   1.000  C
  O19      1.0000 0.24010  0.36810  0.78840  Biso   1.000  O
  O20      1.0000 0.75990  0.63190  0.21160  Biso   1.000  O
  C13      1.0000 0.41610  0.38440  0.39990  Biso   1.000  C
  C14      1.0000 0.58390  0.61560  0.60010  Biso   1.000  C
  H3       1.0000 0.48480  0.43090  0.45490  Biso   1.000  H
  H4       1.0000 0.51520  0.56910  0.54510  Biso   1.000  H
  C15      1.0000 0.06850  0.99430  0.40600  Biso   1.000  C
  C16      1.0000 0.93150  0.00570  0.59400  Biso   1.000  C
  H5       1.0000 0.10400  0.96110  0.45140  Biso   1.000  H
  H6       1.0000 0.89600  0.03890  0.54860  Biso   1.000  H
  C17      1.0000 0.31580  0.30080  0.40820  Biso   1.000  C
  C18      1.0000 0.68420  0.69920  0.59180  Biso   1.000  C
  C19      1.0000 0.21300  0.23010  0.32780  Biso   1.000  C
  C20      1.0000 0.78700  0.76990  0.67220  Biso   1.000  C
  C21      1.0000 0.45970  0.37000  0.02770  Biso   1.000  C
  C22      1.0000 0.54030  0.63000  0.97230  Biso   1.000  C
  H7       1.0000 0.54930  0.38230  0.01970  Biso   1.000  H
  H8       1.0000 0.45070  0.61770  0.98030  Biso   1.000  H
  C23      1.0000 0.34120  0.35510  0.85140  Biso   1.000  C
  C24      1.0000 0.65880  0.64490  0.14860  Biso   1.000  C
  C25      1.0000 0.51090  0.49820  0.30490  Biso   1.000  C
  C26      1.0000 0.48910  0.50180  0.69510  Biso   1.000  C
  C27      1.0000 0.11040  0.13530  0.33470  Biso   1.000  C
  C28      1.0000 0.88960  0.86470  0.66530  Biso   1.000  C
  C29      1.0000 0.83210  0.84870  0.33870  Biso   1.000  C
  C30      1.0000 0.16790  0.15130  0.66130  Biso   1.000  C
  C31      1.0000 0.87380  0.00280  0.27330  Biso   1.000  C
  C32      1.0000 0.12620  0.99720  0.72670  Biso   1.000  C
  H9       1.0000 0.77580  0.97570  0.23080  Biso   1.000  H
  H10      1.0000 0.22420  0.02430  0.76920  Biso   1.000  H
  C33      1.0000 0.31030  0.30080  0.50630  Biso   1.000  C
  C34      1.0000 0.68970  0.69920  0.49370  Biso   1.000  C
  C35      1.0000 0.20480  0.33930  0.96430  Biso   1.000  C
  C36      1.0000 0.79520  0.66070  0.03570  Biso   1.000  C
  H11      1.0000 0.12040  0.33280  0.91300  Biso   1.000  H
  H12      1.0000 0.87960  0.66720  0.08700  Biso   1.000  H
  C37      1.0000 0.96400  0.09150  0.26870  Biso   1.000  C
  C38      1.0000 0.03600  0.90850  0.73130  Biso   1.000  C
  H13      1.0000 0.92850  0.12320  0.22160  Biso   1.000  H
  H14      1.0000 0.07150  0.87680  0.77840  Biso   1.000  H
  C39      1.0000 0.15940  0.08660  0.40410  Biso   1.000  C
  C40      1.0000 0.84060  0.91340  0.59590  Biso   1.000  C
  H15      1.0000 0.25450  0.11600  0.45030  Biso   1.000  H
  H16      1.0000 0.74550  0.88400  0.54970  Biso   1.000  H
  C41      1.0000 0.19650  0.33000  0.05290  Biso   1.000  C
  C42      1.0000 0.80350  0.67000  0.94710  Biso   1.000  C
  H17      1.0000 0.10650  0.31530  0.06100  Biso   1.000  H
  H18      1.0000 0.89350  0.68470  0.93900  Biso   1.000  H
  C43      1.0000 0.45530  0.36410  0.11630  Biso   1.000  C
  C44      1.0000 0.54470  0.63590  0.88370  Biso   1.000  C
  H19      1.0000 0.54170  0.37470  0.16780  Biso   1.000  H
  H20      1.0000 0.45830  0.62530  0.83220  Biso   1.000  H
  N1       1.0000 0.70070  0.14410  0.70930  Biso   1.000  N
  N2       1.0000 0.29930  0.85590  0.29070  Biso   1.000  N
  C45      1.0000 0.60040  0.18000  0.71120  Biso   1.000  C
  C46      1.0000 0.39960  0.82000  0.28880  Biso   1.000  C
  H21      1.0000 0.50180  0.13750  0.68900  Biso   1.000  H
  H22      1.0000 0.49820  0.86250  0.31100  Biso   1.000  H
  N3       1.0000 0.93250  0.49950  0.64260  Biso   1.000  N
  N4       1.0000 0.06750  0.50050  0.35740  Biso   1.000  N
  C47      1.0000 0.03490  0.46290  0.65430  Biso   1.000  C
  C48      1.0000 0.96510  0.53710  0.34570  Biso   1.000  C
  H23      1.0000 0.12650  0.49990  0.70200  Biso   1.000  H
  H24      1.0000 0.87350  0.50010  0.29800  Biso   1.000  H
  C49      1.0000 0.65380  0.03060  0.68610  Biso   1.000  C
  C50      1.0000 0.34620  0.96940  0.31390  Biso   1.000  C
  H25      1.0000 0.73770  0.01560  0.68720  Biso   1.000  H
  H26      1.0000 0.26230  0.98440  0.31280  Biso   1.000  H
  H27      1.0000 0.61770  0.00330  0.73330  Biso   1.000  H
  H28      1.0000 0.38230  0.99670  0.26670  Biso   1.000  H
  H29      1.0000 0.57720  0.00350  0.62340  Biso   1.000  H
  H30      1.0000 0.42280  0.99650  0.37660  Biso   1.000  H
  C51      1.0000 0.86000  0.19900  0.74500  Biso   1.000  C
  C52      1.0000 0.14000  0.80100  0.25500  Biso   1.000  C
  H31      1.0000 0.90860  0.15610  0.73520  Biso   1.000  H
  H32      1.0000 0.09140  0.84390  0.26480  Biso   1.000  H
  H33      1.0000 0.88210  0.25020  0.71080  Biso   1.000  H
  H34      1.0000 0.11790  0.74980  0.28920  Biso   1.000  H
  H35      1.0000 0.89540  0.22670  0.81240  Biso   1.000  H
  H36      1.0000 0.10460  0.77330  0.18760  Biso   1.000  H
  C53      1.0000 0.79120  0.45070  0.57250  Biso   1.000  C
  C54      1.0000 0.20880  0.54930  0.42750  Biso   1.000  C
  H37      1.0000 0.73150  0.48780  0.57420  Biso   1.000  H
  H38      1.0000 0.26850  0.51220  0.42580  Biso   1.000  H
  H39      1.0000 0.79810  0.44320  0.51020  Biso   1.000  H
  H40      1.0000 0.20190  0.55680  0.48980  Biso   1.000  H
  H41      1.0000 0.74670  0.38770  0.58470  Biso   1.000  H
  H42      1.0000 0.25330  0.61230  0.41530  Biso   1.000  H
  C55      1.0000 0.92300  0.55770  0.73260  Biso   1.000  C
  C56      1.0000 0.07700  0.44230  0.26740  Biso   1.000  C
  H43      1.0000 0.84270  0.57910  0.71120  Biso   1.000  H
  H44      1.0000 0.15730  0.42090  0.28880  Biso   1.000  H
  H45      1.0000 0.90740  0.51600  0.77670  Biso   1.000  H
  H46      1.0000 0.09260  0.48400  0.22330  Biso   1.000  H
  H47      1.0000 0.01410  0.61330  0.76430  Biso   1.000  H
  H48      1.0000 0.98590  0.38670  0.23570  Biso   1.000  H
