data_image0
_cell_length_a       24.133
_cell_length_b       27.911
_cell_length_c       17.9404
_cell_angle_alpha    90
_cell_angle_beta     90
_cell_angle_gamma    90

_symmetry_space_group_name_H-M    "P 1"
_symmetry_int_tables_number       1

loop_
  _symmetry_equiv_pos_as_xyz
  'x, y, z'

loop_
  _atom_site_label
  _atom_site_occupancy
  _atom_site_fract_x
  _atom_site_fract_y
  _atom_site_fract_z
  _atom_site_thermal_displace_type
  _atom_site_B_iso_or_equiv
  _atom_site_type_symbol
  Cu1      1.0000 0.82234  0.45255  0.50263  Biso   1.000  Cu
  Cu2      1.0000 0.17766  0.04745  0.50263  Biso   1.000  Cu
  Cu3      1.0000 0.17766  0.95255  0.49737  Biso   1.000  Cu
  Cu4      1.0000 0.82234  0.54745  0.49737  Biso   1.000  Cu
  Cu5      1.0000 0.32234  0.95255  0.00263  Biso   1.000  Cu
  Cu6      1.0000 0.67766  0.54745  0.00263  Biso   1.000  Cu
  Cu7      1.0000 0.67766  0.45255  0.99737  Biso   1.000  Cu
  Cu8      1.0000 0.32234  0.04745  0.99737  Biso   1.000  Cu
  Cu9      1.0000 0.17766  0.54745  0.49737  Biso   1.000  Cu
  Cu10     1.0000 0.82234  0.95255  0.49737  Biso   1.000  Cu
  Cu11     1.0000 0.82234  0.04745  0.50263  Biso   1.000  Cu
  Cu12     1.0000 0.17766  0.45255  0.50263  Biso   1.000  Cu
  Cu13     1.0000 0.67766  0.04745  0.99737  Biso   1.000  Cu
  Cu14     1.0000 0.32234  0.45255  0.99737  Biso   1.000  Cu
  Cu15     1.0000 0.32234  0.54745  0.00263  Biso   1.000  Cu
  Cu16     1.0000 0.67766  0.95255  0.00263  Biso   1.000  Cu
  O1       1.0000 0.76057  0.45708  0.43350  Biso   1.000  O
  O2       1.0000 0.23943  0.04292  0.43350  Biso   1.000  O
  O3       1.0000 0.23943  0.95708  0.56650  Biso   1.000  O
  O4       1.0000 0.76057  0.54292  0.56650  Biso   1.000  O
  O5       1.0000 0.26057  0.95708  0.93350  Biso   1.000  O
  O6       1.0000 0.73943  0.54292  0.93350  Biso   1.000  O
  O7       1.0000 0.73943  0.45708  0.06650  Biso   1.000  O
  O8       1.0000 0.26057  0.04292  0.06650  Biso   1.000  O
  O9       1.0000 0.23943  0.54292  0.56650  Biso   1.000  O
  O10      1.0000 0.76057  0.95708  0.56650  Biso   1.000  O
  O11      1.0000 0.76057  0.04292  0.43350  Biso   1.000  O
  O12      1.0000 0.23943  0.45708  0.43350  Biso   1.000  O
  O13      1.0000 0.73943  0.04292  0.06650  Biso   1.000  O
  O14      1.0000 0.26057  0.45708  0.06650  Biso   1.000  O
  O15      1.0000 0.26057  0.54292  0.93350  Biso   1.000  O
  O16      1.0000 0.73943  0.95708  0.93350  Biso   1.000  O
  O17      1.0000 0.61514  0.54010  0.07160  Biso   1.000  O
  O18      1.0000 0.38486  0.95990  0.07160  Biso   1.000  O
  O19      1.0000 0.38486  0.04010  0.92840  Biso   1.000  O
  O20      1.0000 0.61514  0.45990  0.92840  Biso   1.000  O
  O21      1.0000 0.11514  0.04010  0.57160  Biso   1.000  O
  O22      1.0000 0.88486  0.45990  0.57160  Biso   1.000  O
  O23      1.0000 0.88486  0.54010  0.42840  Biso   1.000  O
  O24      1.0000 0.11514  0.95990  0.42840  Biso   1.000  O
  O25      1.0000 0.38486  0.45990  0.92840  Biso   1.000  O
  O26      1.0000 0.61514  0.04010  0.92840  Biso   1.000  O
  O27      1.0000 0.61514  0.95990  0.07160  Biso   1.000  O
  O28      1.0000 0.38486  0.54010  0.07160  Biso   1.000  O
  O29      1.0000 0.88486  0.95990  0.42840  Biso   1.000  O
  O30      1.0000 0.11514  0.54010  0.42840  Biso   1.000  O
  O31      1.0000 0.11514  0.45990  0.57160  Biso   1.000  O
  O32      1.0000 0.88486  0.04010  0.57160  Biso   1.000  O
  O33      1.0000 0.62402  0.46078  0.07940  Biso   1.000  O
  O34      1.0000 0.37598  0.03922  0.07940  Biso   1.000  O
  O35      1.0000 0.37598  0.96078  0.92060  Biso   1.000  O
  O36      1.0000 0.62402  0.53922  0.92060  Biso   1.000  O
  O37      1.0000 0.12402  0.96078  0.57940  Biso   1.000  O
  O38      1.0000 0.87598  0.53922  0.57940  Biso   1.000  O
  O39      1.0000 0.87598  0.46078  0.42060  Biso   1.000  O
  O40      1.0000 0.12402  0.03922  0.42060  Biso   1.000  O
  O41      1.0000 0.37598  0.53922  0.92060  Biso   1.000  O
  O42      1.0000 0.62402  0.96078  0.92060  Biso   1.000  O
  O43      1.0000 0.62402  0.03922  0.07940  Biso   1.000  O
  O44      1.0000 0.37598  0.46078  0.07940  Biso   1.000  O
  O45      1.0000 0.87598  0.03922  0.42060  Biso   1.000  O
  O46      1.0000 0.12402  0.46078  0.42060  Biso   1.000  O
  O47      1.0000 0.12402  0.53922  0.57940  Biso   1.000  O
  O48      1.0000 0.87598  0.96078  0.57940  Biso   1.000  O
  C1       1.0000 0.55031  0.49892  0.14330  Biso   1.000  C
  C2       1.0000 0.44969  0.00108  0.14330  Biso   1.000  C
  C3       1.0000 0.44969  0.99892  0.85670  Biso   1.000  C
  C4       1.0000 0.55031  0.50108  0.85670  Biso   1.000  C
  C5       1.0000 0.05031  0.99892  0.64330  Biso   1.000  C
  C6       1.0000 0.94969  0.50108  0.64330  Biso   1.000  C
  C7       1.0000 0.94969  0.49892  0.35670  Biso   1.000  C
  C8       1.0000 0.05031  0.00108  0.35670  Biso   1.000  C
  C9       1.0000 0.44969  0.50108  0.85670  Biso   1.000  C
  C10      1.0000 0.55031  0.99892  0.85670  Biso   1.000  C
  C11      1.0000 0.55031  0.00108  0.14330  Biso   1.000  C
  C12      1.0000 0.44969  0.49892  0.14330  Biso   1.000  C
  C13      1.0000 0.94969  0.00108  0.35670  Biso   1.000  C
  C14      1.0000 0.05031  0.49892  0.35670  Biso   1.000  C
  C15      1.0000 0.05031  0.50108  0.64330  Biso   1.000  C
  C16      1.0000 0.94969  0.99892  0.64330  Biso   1.000  C
  O49      1.0000 0.76911  0.53517  0.41480  Biso   1.000  O
  O50      1.0000 0.23089  0.96483  0.41480  Biso   1.000  O
  O51      1.0000 0.23089  0.03517  0.58520  Biso   1.000  O
  O52      1.0000 0.76911  0.46483  0.58520  Biso   1.000  O
  O53      1.0000 0.26911  0.03517  0.91480  Biso   1.000  O
  O54      1.0000 0.73089  0.46483  0.91480  Biso   1.000  O
  O55      1.0000 0.73089  0.53517  0.08520  Biso   1.000  O
  O56      1.0000 0.26911  0.96483  0.08520  Biso   1.000  O
  O57      1.0000 0.23089  0.46483  0.58520  Biso   1.000  O
  O58      1.0000 0.76911  0.03517  0.58520  Biso   1.000  O
  O59      1.0000 0.76911  0.96483  0.41480  Biso   1.000  O
  O60      1.0000 0.23089  0.53517  0.41480  Biso   1.000  O
  O61      1.0000 0.73089  0.96483  0.08520  Biso   1.000  O
  O62      1.0000 0.26911  0.53517  0.08520  Biso   1.000  O
  O63      1.0000 0.26911  0.46483  0.91480  Biso   1.000  O
  O64      1.0000 0.73089  0.03517  0.91480  Biso   1.000  O
  C17      1.0000 0.60216  0.50030  0.09570  Biso   1.000  C
  C18      1.0000 0.39784  0.99970  0.09570  Biso   1.000  C
  C19      1.0000 0.39784  0.00030  0.90430  Biso   1.000  C
  C20      1.0000 0.60216  0.49970  0.90430  Biso   1.000  C
  C21      1.0000 0.10216  0.00030  0.59570  Biso   1.000  C
  C22      1.0000 0.89784  0.49970  0.59570  Biso   1.000  C
  C23      1.0000 0.89784  0.50030  0.40430  Biso   1.000  C
  C24      1.0000 0.10216  0.99970  0.40430  Biso   1.000  C
  C25      1.0000 0.39784  0.49970  0.90430  Biso   1.000  C
  C26      1.0000 0.60216  0.00030  0.90430  Biso   1.000  C
  C27      1.0000 0.60216  0.99970  0.09570  Biso   1.000  C
  C28      1.0000 0.39784  0.50030  0.09570  Biso   1.000  C
  C29      1.0000 0.89784  0.99970  0.40430  Biso   1.000  C
  C30      1.0000 0.10216  0.50030  0.40430  Biso   1.000  C
  C31      1.0000 0.10216  0.49970  0.59570  Biso   1.000  C
  C32      1.0000 0.89784  0.00030  0.59570  Biso   1.000  C
  N1       1.0000 0.82302  0.37604  0.50540  Biso   1.000  N
  N2       1.0000 0.17698  0.12396  0.50540  Biso   1.000  N
  N3       1.0000 0.17698  0.87604  0.49460  Biso   1.000  N
  N4       1.0000 0.82302  0.62396  0.49460  Biso   1.000  N
  N5       1.0000 0.32302  0.87604  0.00540  Biso   1.000  N
  N6       1.0000 0.67698  0.62396  0.00540  Biso   1.000  N
  N7       1.0000 0.67698  0.37604  0.99460  Biso   1.000  N
  N8       1.0000 0.32302  0.12396  0.99460  Biso   1.000  N
  N9       1.0000 0.17698  0.62396  0.49460  Biso   1.000  N
  N10      1.0000 0.82302  0.87604  0.49460  Biso   1.000  N
  N11      1.0000 0.82302  0.12396  0.50540  Biso   1.000  N
  N12      1.0000 0.17698  0.37604  0.50540  Biso   1.000  N
  N13      1.0000 0.67698  0.12396  0.99460  Biso   1.000  N
  N14      1.0000 0.32302  0.37604  0.99460  Biso   1.000  N
  N15      1.0000 0.32302  0.62396  0.00540  Biso   1.000  N
  N16      1.0000 0.67698  0.87604  0.00540  Biso   1.000  N
  C33      1.0000 0.50000  0.50250  0.10640  Biso   1.000  C
  C34      1.0000 0.50000  0.99750  0.10640  Biso   1.000  C
  C35      1.0000 0.50000  0.00250  0.89360  Biso   1.000  C
  C36      1.0000 0.50000  0.49750  0.89360  Biso   1.000  C
  C37      1.0000 0.00000  0.00250  0.60640  Biso   1.000  C
  C38      1.0000 0.00000  0.49750  0.60640  Biso   1.000  C
  C39      1.0000 0.00000  0.50250  0.39360  Biso   1.000  C
  C40      1.0000 0.00000  0.99750  0.39360  Biso   1.000  C
  H1       1.0000 0.50000  0.50740  0.05520  Biso   1.000  H
  H2       1.0000 0.50000  0.99260  0.05520  Biso   1.000  H
  H3       1.0000 0.50000  0.00740  0.94480  Biso   1.000  H
  H4       1.0000 0.50000  0.49260  0.94480  Biso   1.000  H
  H5       1.0000 0.00000  0.00740  0.55520  Biso   1.000  H
  H6       1.0000 0.00000  0.49260  0.55520  Biso   1.000  H
  H7       1.0000 0.00000  0.50740  0.44480  Biso   1.000  H
  H8       1.0000 0.00000  0.99260  0.44480  Biso   1.000  H
  C41      1.0000 0.74717  0.49570  0.40390  Biso   1.000  C
  C42      1.0000 0.25283  0.00430  0.40390  Biso   1.000  C
  C43      1.0000 0.25283  0.99570  0.59610  Biso   1.000  C
  C44      1.0000 0.74717  0.50430  0.59610  Biso   1.000  C
  C45      1.0000 0.24717  0.99570  0.90390  Biso   1.000  C
  C46      1.0000 0.75283  0.50430  0.90390  Biso   1.000  C
  C47      1.0000 0.75283  0.49570  0.09610  Biso   1.000  C
  C48      1.0000 0.24717  0.00430  0.09610  Biso   1.000  C
  C49      1.0000 0.25283  0.50430  0.59610  Biso   1.000  C
  C50      1.0000 0.74717  0.99570  0.59610  Biso   1.000  C
  C51      1.0000 0.74717  0.00430  0.40390  Biso   1.000  C
  C52      1.0000 0.25283  0.49570  0.40390  Biso   1.000  C
  C53      1.0000 0.75283  0.00430  0.09610  Biso   1.000  C
  C54      1.0000 0.24717  0.49570  0.09610  Biso   1.000  C
  C55      1.0000 0.24717  0.50430  0.90390  Biso   1.000  C
  C56      1.0000 0.75283  0.99570  0.90390  Biso   1.000  C
  C57      1.0000 0.82420  0.27680  0.51010  Biso   1.000  C
  C58      1.0000 0.17580  0.22320  0.51010  Biso   1.000  C
  C59      1.0000 0.17580  0.77680  0.48990  Biso   1.000  C
  C60      1.0000 0.82420  0.72320  0.48990  Biso   1.000  C
  C61      1.0000 0.32420  0.77680  0.01010  Biso   1.000  C
  C62      1.0000 0.67580  0.72320  0.01010  Biso   1.000  C
  C63      1.0000 0.67580  0.27680  0.98990  Biso   1.000  C
  C64      1.0000 0.32420  0.22320  0.98990  Biso   1.000  C
  C65      1.0000 0.17580  0.72320  0.48990  Biso   1.000  C
  C66      1.0000 0.82420  0.77680  0.48990  Biso   1.000  C
  C67      1.0000 0.82420  0.22320  0.51010  Biso   1.000  C
  C68      1.0000 0.17580  0.27680  0.51010  Biso   1.000  C
  C69      1.0000 0.67580  0.22320  0.98990  Biso   1.000  C
  C70      1.0000 0.32420  0.27680  0.98990  Biso   1.000  C
  C71      1.0000 0.32420  0.72320  0.01010  Biso   1.000  C
  C72      1.0000 0.67580  0.77680  0.01010  Biso   1.000  C
  C73      1.0000 0.69780  0.49500  0.35240  Biso   1.000  C
  C74      1.0000 0.30220  0.00500  0.35240  Biso   1.000  C
  C75      1.0000 0.30220  0.99500  0.64760  Biso   1.000  C
  C76      1.0000 0.69780  0.50500  0.64760  Biso   1.000  C
  C77      1.0000 0.19780  0.99500  0.85240  Biso   1.000  C
  C78      1.0000 0.80220  0.50500  0.85240  Biso   1.000  C
  C79      1.0000 0.80220  0.49500  0.14760  Biso   1.000  C
  C80      1.0000 0.19780  0.00500  0.14760  Biso   1.000  C
  C81      1.0000 0.30220  0.50500  0.64760  Biso   1.000  C
  C82      1.0000 0.69780  0.99500  0.64760  Biso   1.000  C
  C83      1.0000 0.69780  0.00500  0.35240  Biso   1.000  C
  C84      1.0000 0.30220  0.49500  0.35240  Biso   1.000  C
  C85      1.0000 0.80220  0.00500  0.14760  Biso   1.000  C
  C86      1.0000 0.19780  0.49500  0.14760  Biso   1.000  C
  C87      1.0000 0.19780  0.50500  0.85240  Biso   1.000  C
  C88      1.0000 0.80220  0.99500  0.85240  Biso   1.000  C
  C89      1.0000 0.55050  0.49370  0.22040  Biso   1.000  C
  C90      1.0000 0.44950  0.00630  0.22040  Biso   1.000  C
  C91      1.0000 0.44950  0.99370  0.77960  Biso   1.000  C
  C92      1.0000 0.55050  0.50630  0.77960  Biso   1.000  C
  C93      1.0000 0.05050  0.99370  0.72040  Biso   1.000  C
  C94      1.0000 0.94950  0.50630  0.72040  Biso   1.000  C
  C95      1.0000 0.94950  0.49370  0.27960  Biso   1.000  C
  C96      1.0000 0.05050  0.00630  0.27960  Biso   1.000  C
  C97      1.0000 0.44950  0.50630  0.77960  Biso   1.000  C
  C98      1.0000 0.55050  0.99370  0.77960  Biso   1.000  C
  C99      1.0000 0.55050  0.00630  0.22040  Biso   1.000  C
  C100     1.0000 0.44950  0.49370  0.22040  Biso   1.000  C
  C101     1.0000 0.94950  0.00630  0.27960  Biso   1.000  C
  C102     1.0000 0.05050  0.49370  0.27960  Biso   1.000  C
  C103     1.0000 0.05050  0.50630  0.72040  Biso   1.000  C
  C104     1.0000 0.94950  0.99370  0.72040  Biso   1.000  C
  C105     1.0000 0.60270  0.49320  0.26360  Biso   1.000  C
  C106     1.0000 0.39730  0.00680  0.26360  Biso   1.000  C
  C107     1.0000 0.39730  0.99320  0.73640  Biso   1.000  C
  C108     1.0000 0.60270  0.50680  0.73640  Biso   1.000  C
  C109     1.0000 0.10270  0.99320  0.76360  Biso   1.000  C
  C110     1.0000 0.89730  0.50680  0.76360  Biso   1.000  C
  C111     1.0000 0.89730  0.49320  0.23640  Biso   1.000  C
  C112     1.0000 0.10270  0.00680  0.23640  Biso   1.000  C
  C113     1.0000 0.39730  0.50680  0.73640  Biso   1.000  C
  C114     1.0000 0.60270  0.99320  0.73640  Biso   1.000  C
  C115     1.0000 0.60270  0.00680  0.26360  Biso   1.000  C
  C116     1.0000 0.39730  0.49320  0.26360  Biso   1.000  C
  C117     1.0000 0.89730  0.00680  0.23640  Biso   1.000  C
  C118     1.0000 0.10270  0.49320  0.23640  Biso   1.000  C
  C119     1.0000 0.10270  0.50680  0.76360  Biso   1.000  C
  C120     1.0000 0.89730  0.99320  0.76360  Biso   1.000  C
  C121     1.0000 0.50000  0.48930  0.25550  Biso   1.000  C
  C122     1.0000 0.50000  0.01070  0.25550  Biso   1.000  C
  C123     1.0000 0.50000  0.98930  0.74450  Biso   1.000  C
  C124     1.0000 0.50000  0.51070  0.74450  Biso   1.000  C
  C125     1.0000 0.00000  0.98930  0.75550  Biso   1.000  C
  C126     1.0000 0.00000  0.51070  0.75550  Biso   1.000  C
  C127     1.0000 0.00000  0.48930  0.24450  Biso   1.000  C
  C128     1.0000 0.00000  0.01070  0.24450  Biso   1.000  C
  H9       1.0000 0.50000  0.48280  0.30640  Biso   1.000  H
  H10      1.0000 0.50000  0.01720  0.30640  Biso   1.000  H
  H11      1.0000 0.50000  0.98280  0.69360  Biso   1.000  H
  H12      1.0000 0.50000  0.51720  0.69360  Biso   1.000  H
  H13      1.0000 0.00000  0.98280  0.80640  Biso   1.000  H
  H14      1.0000 0.00000  0.51720  0.80640  Biso   1.000  H
  H15      1.0000 0.00000  0.48280  0.19360  Biso   1.000  H
  H16      1.0000 0.00000  0.01720  0.19360  Biso   1.000  H
  C129     1.0000 0.68560  0.52790  0.30320  Biso   1.000  C
  C130     1.0000 0.31440  0.97210  0.30320  Biso   1.000  C
  C131     1.0000 0.31440  0.02790  0.69680  Biso   1.000  C
  C132     1.0000 0.68560  0.47210  0.69680  Biso   1.000  C
  C133     1.0000 0.18560  0.02790  0.80320  Biso   1.000  C
  C134     1.0000 0.81440  0.47210  0.80320  Biso   1.000  C
  C135     1.0000 0.81440  0.52790  0.19680  Biso   1.000  C
  C136     1.0000 0.18560  0.97210  0.19680  Biso   1.000  C
  C137     1.0000 0.31440  0.47210  0.69680  Biso   1.000  C
  C138     1.0000 0.68560  0.02790  0.69680  Biso   1.000  C
  C139     1.0000 0.68560  0.97210  0.30320  Biso   1.000  C
  C140     1.0000 0.31440  0.52790  0.30320  Biso   1.000  C
  C141     1.0000 0.81440  0.97210  0.19680  Biso   1.000  C
  C142     1.0000 0.18560  0.52790  0.19680  Biso   1.000  C
  C143     1.0000 0.18560  0.47210  0.80320  Biso   1.000  C
  C144     1.0000 0.81440  0.02790  0.80320  Biso   1.000  C
  H17      1.0000 0.70900  0.55420  0.29910  Biso   1.000  H
  H18      1.0000 0.29100  0.94580  0.29910  Biso   1.000  H
  H19      1.0000 0.29100  0.05420  0.70090  Biso   1.000  H
  H20      1.0000 0.70900  0.44580  0.70090  Biso   1.000  H
  H21      1.0000 0.20900  0.05420  0.79910  Biso   1.000  H
  H22      1.0000 0.79100  0.44580  0.79910  Biso   1.000  H
  H23      1.0000 0.79100  0.55420  0.20090  Biso   1.000  H
  H24      1.0000 0.20900  0.94580  0.20090  Biso   1.000  H
  H25      1.0000 0.29100  0.44580  0.70090  Biso   1.000  H
  H26      1.0000 0.70900  0.05420  0.70090  Biso   1.000  H
  H27      1.0000 0.70900  0.94580  0.29910  Biso   1.000  H
  H28      1.0000 0.29100  0.55420  0.29910  Biso   1.000  H
  H29      1.0000 0.79100  0.94580  0.20090  Biso   1.000  H
  H30      1.0000 0.20900  0.55420  0.20090  Biso   1.000  H
  H31      1.0000 0.20900  0.44580  0.79910  Biso   1.000  H
  H32      1.0000 0.79100  0.05420  0.79910  Biso   1.000  H
  C145     1.0000 0.61400  0.45140  0.31460  Biso   1.000  C
  C146     1.0000 0.38600  0.04860  0.31460  Biso   1.000  C
  C147     1.0000 0.38600  0.95140  0.68540  Biso   1.000  C
  C148     1.0000 0.61400  0.54860  0.68540  Biso   1.000  C
  C149     1.0000 0.11400  0.95140  0.81460  Biso   1.000  C
  C150     1.0000 0.88600  0.54860  0.81460  Biso   1.000  C
  C151     1.0000 0.88600  0.45140  0.18540  Biso   1.000  C
  C152     1.0000 0.11400  0.04860  0.18540  Biso   1.000  C
  C153     1.0000 0.38600  0.54860  0.68540  Biso   1.000  C
  C154     1.0000 0.61400  0.95140  0.68540  Biso   1.000  C
  C155     1.0000 0.61400  0.04860  0.31460  Biso   1.000  C
  C156     1.0000 0.38600  0.45140  0.31460  Biso   1.000  C
  C157     1.0000 0.88600  0.04860  0.18540  Biso   1.000  C
  C158     1.0000 0.11400  0.45140  0.18540  Biso   1.000  C
  C159     1.0000 0.11400  0.54860  0.81460  Biso   1.000  C
  C160     1.0000 0.88600  0.95140  0.81460  Biso   1.000  C
  H33      1.0000 0.59040  0.42520  0.31850  Biso   1.000  H
  H34      1.0000 0.40960  0.07480  0.31850  Biso   1.000  H
  H35      1.0000 0.40960  0.92520  0.68150  Biso   1.000  H
  H36      1.0000 0.59040  0.57480  0.68150  Biso   1.000  H
  H37      1.0000 0.09040  0.92520  0.81850  Biso   1.000  H
  H38      1.0000 0.90960  0.57480  0.81850  Biso   1.000  H
  H39      1.0000 0.90960  0.42520  0.18150  Biso   1.000  H
  H40      1.0000 0.09040  0.07480  0.18150  Biso   1.000  H
  H41      1.0000 0.40960  0.57480  0.68150  Biso   1.000  H
  H42      1.0000 0.59040  0.92520  0.68150  Biso   1.000  H
  H43      1.0000 0.59040  0.07480  0.31850  Biso   1.000  H
  H44      1.0000 0.40960  0.42520  0.31850  Biso   1.000  H
  H45      1.0000 0.90960  0.07480  0.18150  Biso   1.000  H
  H46      1.0000 0.09040  0.42520  0.18150  Biso   1.000  H
  H47      1.0000 0.09040  0.57480  0.81850  Biso   1.000  H
  H48      1.0000 0.90960  0.92520  0.81850  Biso   1.000  H
  C161     1.0000 0.66300  0.45550  0.35540  Biso   1.000  C
  C162     1.0000 0.33700  0.04450  0.35540  Biso   1.000  C
  C163     1.0000 0.33700  0.95550  0.64460  Biso   1.000  C
  C164     1.0000 0.66300  0.54450  0.64460  Biso   1.000  C
  C165     1.0000 0.16300  0.95550  0.85540  Biso   1.000  C
  C166     1.0000 0.83700  0.54450  0.85540  Biso   1.000  C
  C167     1.0000 0.83700  0.45550  0.14460  Biso   1.000  C
  C168     1.0000 0.16300  0.04450  0.14460  Biso   1.000  C
  C169     1.0000 0.33700  0.54450  0.64460  Biso   1.000  C
  C170     1.0000 0.66300  0.95550  0.64460  Biso   1.000  C
  C171     1.0000 0.66300  0.04450  0.35540  Biso   1.000  C
  C172     1.0000 0.33700  0.45550  0.35540  Biso   1.000  C
  C173     1.0000 0.83700  0.04450  0.14460  Biso   1.000  C
  C174     1.0000 0.16300  0.45550  0.14460  Biso   1.000  C
  C175     1.0000 0.16300  0.54450  0.85540  Biso   1.000  C
  C176     1.0000 0.83700  0.95550  0.85540  Biso   1.000  C
  H49      1.0000 0.67290  0.43020  0.38650  Biso   1.000  H
  H50      1.0000 0.32710  0.06980  0.38650  Biso   1.000  H
  H51      1.0000 0.32710  0.93020  0.61350  Biso   1.000  H
  H52      1.0000 0.67290  0.56980  0.61350  Biso   1.000  H
  H53      1.0000 0.17290  0.93020  0.88650  Biso   1.000  H
  H54      1.0000 0.82710  0.56980  0.88650  Biso   1.000  H
  H55      1.0000 0.82710  0.43020  0.11350  Biso   1.000  H
  H56      1.0000 0.17290  0.06980  0.11350  Biso   1.000  H
  H57      1.0000 0.32710  0.56980  0.61350  Biso   1.000  H
  H58      1.0000 0.67290  0.93020  0.61350  Biso   1.000  H
  H59      1.0000 0.67290  0.06980  0.38650  Biso   1.000  H
  H60      1.0000 0.32710  0.43020  0.38650  Biso   1.000  H
  H61      1.0000 0.82710  0.06980  0.11350  Biso   1.000  H
  H62      1.0000 0.17290  0.43020  0.11350  Biso   1.000  H
  H63      1.0000 0.17290  0.56980  0.88650  Biso   1.000  H
  H64      1.0000 0.82710  0.93020  0.88650  Biso   1.000  H
  C177     1.0000 0.86390  0.35120  0.52310  Biso   1.000  C
  C178     1.0000 0.13610  0.14880  0.52310  Biso   1.000  C
  C179     1.0000 0.13610  0.85120  0.47690  Biso   1.000  C
  C180     1.0000 0.86390  0.64880  0.47690  Biso   1.000  C
  C181     1.0000 0.36390  0.85120  0.02310  Biso   1.000  C
  C182     1.0000 0.63610  0.64880  0.02310  Biso   1.000  C
  C183     1.0000 0.63610  0.35120  0.97690  Biso   1.000  C
  C184     1.0000 0.36390  0.14880  0.97690  Biso   1.000  C
  C185     1.0000 0.13610  0.64880  0.47690  Biso   1.000  C
  C186     1.0000 0.86390  0.85120  0.47690  Biso   1.000  C
  C187     1.0000 0.86390  0.14880  0.52310  Biso   1.000  C
  C188     1.0000 0.13610  0.35120  0.52310  Biso   1.000  C
  C189     1.0000 0.63610  0.14880  0.97690  Biso   1.000  C
  C190     1.0000 0.36390  0.35120  0.97690  Biso   1.000  C
  C191     1.0000 0.36390  0.64880  0.02310  Biso   1.000  C
  C192     1.0000 0.63610  0.85120  0.02310  Biso   1.000  C
  H65      1.0000 0.89650  0.36760  0.53350  Biso   1.000  H
  H66      1.0000 0.10350  0.13240  0.53350  Biso   1.000  H
  H67      1.0000 0.10350  0.86760  0.46650  Biso   1.000  H
  H68      1.0000 0.89650  0.63240  0.46650  Biso   1.000  H
  H69      1.0000 0.39650  0.86760  0.03350  Biso   1.000  H
  H70      1.0000 0.60350  0.63240  0.03350  Biso   1.000  H
  H71      1.0000 0.60350  0.36760  0.96650  Biso   1.000  H
  H72      1.0000 0.39650  0.13240  0.96650  Biso   1.000  H
  H73      1.0000 0.10350  0.63240  0.46650  Biso   1.000  H
  H74      1.0000 0.89650  0.86760  0.46650  Biso   1.000  H
  H75      1.0000 0.89650  0.13240  0.53350  Biso   1.000  H
  H76      1.0000 0.10350  0.36760  0.53350  Biso   1.000  H
  H77      1.0000 0.60350  0.13240  0.96650  Biso   1.000  H
  H78      1.0000 0.39650  0.36760  0.96650  Biso   1.000  H
  H79      1.0000 0.39650  0.63240  0.03350  Biso   1.000  H
  H80      1.0000 0.60350  0.86760  0.03350  Biso   1.000  H
  C193     1.0000 0.86600  0.30290  0.52870  Biso   1.000  C
  C194     1.0000 0.13400  0.19710  0.52870  Biso   1.000  C
  C195     1.0000 0.13400  0.80290  0.47130  Biso   1.000  C
  C196     1.0000 0.86600  0.69710  0.47130  Biso   1.000  C
  C197     1.0000 0.36600  0.80290  0.02870  Biso   1.000  C
  C198     1.0000 0.63400  0.69710  0.02870  Biso   1.000  C
  C199     1.0000 0.63400  0.30290  0.97130  Biso   1.000  C
  C200     1.0000 0.36600  0.19710  0.97130  Biso   1.000  C
  C201     1.0000 0.13400  0.69710  0.47130  Biso   1.000  C
  C202     1.0000 0.86600  0.80290  0.47130  Biso   1.000  C
  C203     1.0000 0.86600  0.19710  0.52870  Biso   1.000  C
  C204     1.0000 0.13400  0.30290  0.52870  Biso   1.000  C
  C205     1.0000 0.63400  0.19710  0.97130  Biso   1.000  C
  C206     1.0000 0.36600  0.30290  0.97130  Biso   1.000  C
  C207     1.0000 0.36600  0.69710  0.02870  Biso   1.000  C
  C208     1.0000 0.63400  0.80290  0.02870  Biso   1.000  C
  H81      1.0000 0.89810  0.28830  0.54630  Biso   1.000  H
  H82      1.0000 0.10190  0.21170  0.54630  Biso   1.000  H
  H83      1.0000 0.10190  0.78830  0.45370  Biso   1.000  H
  H84      1.0000 0.89810  0.71170  0.45370  Biso   1.000  H
  H85      1.0000 0.39810  0.78830  0.04630  Biso   1.000  H
  H86      1.0000 0.60190  0.71170  0.04630  Biso   1.000  H
  H87      1.0000 0.60190  0.28830  0.95370  Biso   1.000  H
  H88      1.0000 0.39810  0.21170  0.95370  Biso   1.000  H
  H89      1.0000 0.10190  0.71170  0.45370  Biso   1.000  H
  H90      1.0000 0.89810  0.78830  0.45370  Biso   1.000  H
  H91      1.0000 0.89810  0.21170  0.54630  Biso   1.000  H
  H92      1.0000 0.10190  0.28830  0.54630  Biso   1.000  H
  H93      1.0000 0.60190  0.21170  0.95370  Biso   1.000  H
  H94      1.0000 0.39810  0.28830  0.95370  Biso   1.000  H
  H95      1.0000 0.39810  0.71170  0.04630  Biso   1.000  H
  H96      1.0000 0.60190  0.78830  0.04630  Biso   1.000  H
  C209     1.0000 0.64000  0.52570  0.25710  Biso   1.000  C
  C210     1.0000 0.36000  0.97430  0.25710  Biso   1.000  C
  C211     1.0000 0.36000  0.02570  0.74290  Biso   1.000  C
  C212     1.0000 0.64000  0.47430  0.74290  Biso   1.000  C
  C213     1.0000 0.14000  0.02570  0.75710  Biso   1.000  C
  C214     1.0000 0.86000  0.47430  0.75710  Biso   1.000  C
  C215     1.0000 0.86000  0.52570  0.24290  Biso   1.000  C
  C216     1.0000 0.14000  0.97430  0.24290  Biso   1.000  C
  C217     1.0000 0.36000  0.47430  0.74290  Biso   1.000  C
  C218     1.0000 0.64000  0.02570  0.74290  Biso   1.000  C
  C219     1.0000 0.64000  0.97430  0.25710  Biso   1.000  C
  C220     1.0000 0.36000  0.52570  0.25710  Biso   1.000  C
  C221     1.0000 0.86000  0.97430  0.24290  Biso   1.000  C
  C222     1.0000 0.14000  0.52570  0.24290  Biso   1.000  C
  C223     1.0000 0.14000  0.47430  0.75710  Biso   1.000  C
  C224     1.0000 0.86000  0.02570  0.75710  Biso   1.000  C
  H97      1.0000 0.63620  0.54870  0.21990  Biso   1.000  H
  H98      1.0000 0.36380  0.95130  0.21990  Biso   1.000  H
  H99      1.0000 0.36380  0.04870  0.78010  Biso   1.000  H
  H100     1.0000 0.63620  0.45130  0.78010  Biso   1.000  H
  H101     1.0000 0.13620  0.04870  0.71990  Biso   1.000  H
  H102     1.0000 0.86380  0.45130  0.71990  Biso   1.000  H
  H103     1.0000 0.86380  0.54870  0.28010  Biso   1.000  H
  H104     1.0000 0.13620  0.95130  0.28010  Biso   1.000  H
  H105     1.0000 0.36380  0.45130  0.78010  Biso   1.000  H
  H106     1.0000 0.63620  0.04870  0.78010  Biso   1.000  H
  H107     1.0000 0.63620  0.95130  0.21990  Biso   1.000  H
  H108     1.0000 0.36380  0.54870  0.21990  Biso   1.000  H
  H109     1.0000 0.86380  0.95130  0.28010  Biso   1.000  H
  H110     1.0000 0.13620  0.54870  0.28010  Biso   1.000  H
  H111     1.0000 0.13620  0.45130  0.71990  Biso   1.000  H
  H112     1.0000 0.86380  0.04870  0.71990  Biso   1.000  H
  C225     1.0000 0.78170  0.35160  0.48500  Biso   1.000  C
  C226     1.0000 0.21830  0.14840  0.48500  Biso   1.000  C
  C227     1.0000 0.21830  0.85160  0.51500  Biso   1.000  C
  C228     1.0000 0.78170  0.64840  0.51500  Biso   1.000  C
  C229     1.0000 0.28170  0.85160  0.98500  Biso   1.000  C
  C230     1.0000 0.71830  0.64840  0.98500  Biso   1.000  C
  C231     1.0000 0.71830  0.35160  0.01500  Biso   1.000  C
  C232     1.0000 0.28170  0.14840  0.01500  Biso   1.000  C
  C233     1.0000 0.21830  0.64840  0.51500  Biso   1.000  C
  C234     1.0000 0.78170  0.85160  0.51500  Biso   1.000  C
  C235     1.0000 0.78170  0.14840  0.48500  Biso   1.000  C
  C236     1.0000 0.21830  0.35160  0.48500  Biso   1.000  C
  C237     1.0000 0.71830  0.14840  0.01500  Biso   1.000  C
  C238     1.0000 0.28170  0.35160  0.01500  Biso   1.000  C
  C239     1.0000 0.28170  0.64840  0.98500  Biso   1.000  C
  C240     1.0000 0.71830  0.85160  0.98500  Biso   1.000  C
  H113     1.0000 0.75090  0.36840  0.46790  Biso   1.000  H
  H114     1.0000 0.24910  0.13160  0.46790  Biso   1.000  H
  H115     1.0000 0.24910  0.86840  0.53210  Biso   1.000  H
  H116     1.0000 0.75090  0.63160  0.53210  Biso   1.000  H
  H117     1.0000 0.25090  0.86840  0.96790  Biso   1.000  H
  H118     1.0000 0.74910  0.63160  0.96790  Biso   1.000  H
  H119     1.0000 0.74910  0.36840  0.03210  Biso   1.000  H
  H120     1.0000 0.25090  0.13160  0.03210  Biso   1.000  H
  H121     1.0000 0.24910  0.63160  0.53210  Biso   1.000  H
  H122     1.0000 0.75090  0.86840  0.53210  Biso   1.000  H
  H123     1.0000 0.75090  0.13160  0.46790  Biso   1.000  H
  H124     1.0000 0.24910  0.36840  0.46790  Biso   1.000  H
  H125     1.0000 0.74910  0.13160  0.03210  Biso   1.000  H
  H126     1.0000 0.25090  0.36840  0.03210  Biso   1.000  H
  H127     1.0000 0.25090  0.63160  0.96790  Biso   1.000  H
  H128     1.0000 0.74910  0.86840  0.96790  Biso   1.000  H
  C241     1.0000 0.77810  0.30150  0.48570  Biso   1.000  C
  C242     1.0000 0.22190  0.19850  0.48570  Biso   1.000  C
  C243     1.0000 0.22190  0.80150  0.51430  Biso   1.000  C
  C244     1.0000 0.77810  0.69850  0.51430  Biso   1.000  C
  C245     1.0000 0.27810  0.80150  0.98570  Biso   1.000  C
  C246     1.0000 0.72190  0.69850  0.98570  Biso   1.000  C
  C247     1.0000 0.72190  0.30150  0.01430  Biso   1.000  C
  C248     1.0000 0.27810  0.19850  0.01430  Biso   1.000  C
  C249     1.0000 0.22190  0.69850  0.51430  Biso   1.000  C
  C250     1.0000 0.77810  0.80150  0.51430  Biso   1.000  C
  C251     1.0000 0.77810  0.19850  0.48570  Biso   1.000  C
  C252     1.0000 0.22190  0.30150  0.48570  Biso   1.000  C
  C253     1.0000 0.72190  0.19850  0.01430  Biso   1.000  C
  C254     1.0000 0.27810  0.30150  0.01430  Biso   1.000  C
  C255     1.0000 0.27810  0.69850  0.98570  Biso   1.000  C
  C256     1.0000 0.72190  0.80150  0.98570  Biso   1.000  C
  H129     1.0000 0.74610  0.28560  0.47050  Biso   1.000  H
  H130     1.0000 0.25390  0.21440  0.47050  Biso   1.000  H
  H131     1.0000 0.25390  0.78560  0.52950  Biso   1.000  H
  H132     1.0000 0.74610  0.71440  0.52950  Biso   1.000  H
  H133     1.0000 0.24610  0.78560  0.97050  Biso   1.000  H
  H134     1.0000 0.75390  0.71440  0.97050  Biso   1.000  H
  H135     1.0000 0.75390  0.28560  0.02950  Biso   1.000  H
  H136     1.0000 0.24610  0.21440  0.02950  Biso   1.000  H
  H137     1.0000 0.25390  0.71440  0.52950  Biso   1.000  H
  H138     1.0000 0.74610  0.78560  0.52950  Biso   1.000  H
  H139     1.0000 0.74610  0.21440  0.47050  Biso   1.000  H
  H140     1.0000 0.25390  0.28560  0.47050  Biso   1.000  H
  H141     1.0000 0.75390  0.21440  0.02950  Biso   1.000  H
  H142     1.0000 0.24610  0.28560  0.02950  Biso   1.000  H
  H143     1.0000 0.24610  0.71440  0.97050  Biso   1.000  H
  H144     1.0000 0.75390  0.78560  0.97050  Biso   1.000  H
