data_image0
_cell_length_a       8.1003
_cell_length_b       8.6911
_cell_length_c       20.2616
_cell_angle_alpha    90
_cell_angle_beta     90
_cell_angle_gamma    90

_symmetry_space_group_name_H-M    "P 1"
_symmetry_int_tables_number       1

loop_
  _symmetry_equiv_pos_as_xyz
  'x, y, z'

loop_
  _atom_site_label
  _atom_site_occupancy
  _atom_site_fract_x
  _atom_site_fract_y
  _atom_site_fract_z
  _atom_site_thermal_displace_type
  _atom_site_B_iso_or_equiv
  _atom_site_type_symbol
  Cu1      1.0000 0.18399  0.04600  0.95554  Biso   1.000  Cu
  Cu2      1.0000 0.31601  0.95400  0.45554  Biso   1.000  Cu
  Cu3      1.0000 0.81601  0.54600  0.54446  Biso   1.000  Cu
  Cu4      1.0000 0.68399  0.45400  0.04446  Biso   1.000  Cu
  S1       1.0000 0.04308  0.87494  0.07552  Biso   1.000  S
  S2       1.0000 0.45692  0.12506  0.57552  Biso   1.000  S
  S3       1.0000 0.95692  0.37494  0.42448  Biso   1.000  S
  S4       1.0000 0.54308  0.62506  0.92448  Biso   1.000  S
  O1       1.0000 0.95440  0.43240  0.01873  Biso   1.000  O
  O2       1.0000 0.54560  0.56760  0.51873  Biso   1.000  O
  O3       1.0000 0.04560  0.93240  0.48127  Biso   1.000  O
  O4       1.0000 0.45440  0.06760  0.98127  Biso   1.000  O
  O5       1.0000 0.16910  0.87490  0.01933  Biso   1.000  O
  O6       1.0000 0.33090  0.12510  0.51933  Biso   1.000  O
  O7       1.0000 0.83090  0.37490  0.48067  Biso   1.000  O
  O8       1.0000 0.66910  0.62510  0.98067  Biso   1.000  O
  O9       1.0000 0.96960  0.89210  0.88053  Biso   1.000  O
  O10      1.0000 0.53040  0.10790  0.38053  Biso   1.000  O
  O11      1.0000 0.03040  0.39210  0.61947  Biso   1.000  O
  O12      1.0000 0.46960  0.60790  0.11947  Biso   1.000  O
  O13      1.0000 0.23220  0.89540  0.88523  Biso   1.000  O
  O14      1.0000 0.26780  0.10460  0.38523  Biso   1.000  O
  O15      1.0000 0.76780  0.39540  0.61477  Biso   1.000  O
  O16      1.0000 0.73220  0.60460  0.11477  Biso   1.000  O
  N1       1.0000 0.14530  0.21660  0.89159  Biso   1.000  N
  N2       1.0000 0.35470  0.78340  0.39159  Biso   1.000  N
  N3       1.0000 0.85470  0.71660  0.60841  Biso   1.000  N
  N4       1.0000 0.64530  0.28340  0.10841  Biso   1.000  N
  N5       1.0000 0.09710  0.20050  0.01865  Biso   1.000  N
  N6       1.0000 0.40290  0.79950  0.51865  Biso   1.000  N
  N7       1.0000 0.90290  0.70050  0.48135  Biso   1.000  N
  N8       1.0000 0.59710  0.29950  0.98135  Biso   1.000  N
  N9       1.0000 0.10000  0.83930  0.85860  Biso   1.000  N
  N10      1.0000 0.40000  0.16070  0.35860  Biso   1.000  N
  N11      1.0000 0.90000  0.33930  0.64140  Biso   1.000  N
  N12      1.0000 0.60000  0.66070  0.14140  Biso   1.000  N
  C1       1.0000 0.18040  0.21880  0.82684  Biso   1.000  C
  C2       1.0000 0.31960  0.78120  0.32684  Biso   1.000  C
  C3       1.0000 0.81960  0.71880  0.67316  Biso   1.000  C
  C4       1.0000 0.68040  0.28120  0.17316  Biso   1.000  C
  H1       1.0000 0.24240  0.13670  0.80830  Biso   1.000  H
  H2       1.0000 0.25760  0.86330  0.30830  Biso   1.000  H
  H3       1.0000 0.75760  0.63670  0.69170  Biso   1.000  H
  H4       1.0000 0.74240  0.36330  0.19170  Biso   1.000  H
  C5       1.0000 0.12850  0.33800  0.78621  Biso   1.000  C
  C6       1.0000 0.37150  0.66200  0.28621  Biso   1.000  C
  C7       1.0000 0.87150  0.83800  0.71379  Biso   1.000  C
  C8       1.0000 0.62850  0.16200  0.21379  Biso   1.000  C
  H5       1.0000 0.15540  0.33760  0.74060  Biso   1.000  H
  H6       1.0000 0.34460  0.66240  0.24060  Biso   1.000  H
  H7       1.0000 0.84460  0.83760  0.75940  Biso   1.000  H
  H8       1.0000 0.65540  0.16240  0.25940  Biso   1.000  H
  C9       1.0000 0.03800  0.45610  0.81253  Biso   1.000  C
  C10      1.0000 0.46200  0.54390  0.31253  Biso   1.000  C
  C11      1.0000 0.96200  0.95610  0.68747  Biso   1.000  C
  C12      1.0000 0.53800  0.04390  0.18747  Biso   1.000  C
  H9       1.0000 0.00130  0.53810  0.78520  Biso   1.000  H
  H10      1.0000 0.49870  0.46190  0.28520  Biso   1.000  H
  H11      1.0000 0.99870  0.03810  0.71480  Biso   1.000  H
  H12      1.0000 0.50130  0.96190  0.21480  Biso   1.000  H
  C13      1.0000 0.00020  0.45520  0.87962  Biso   1.000  C
  C14      1.0000 0.49980  0.54480  0.37962  Biso   1.000  C
  C15      1.0000 0.99980  0.95520  0.62038  Biso   1.000  C
  C16      1.0000 0.50020  0.04480  0.12038  Biso   1.000  C
  H13      1.0000 0.93830  0.53630  0.89890  Biso   1.000  H
  H14      1.0000 0.56170  0.46370  0.39890  Biso   1.000  H
  H15      1.0000 0.06170  0.03630  0.60110  Biso   1.000  H
  H16      1.0000 0.43830  0.96370  0.10110  Biso   1.000  H
  C17      1.0000 0.05580  0.33230  0.91751  Biso   1.000  C
  C18      1.0000 0.44420  0.66770  0.41751  Biso   1.000  C
  C19      1.0000 0.94420  0.83230  0.58249  Biso   1.000  C
  C20      1.0000 0.55580  0.16770  0.08249  Biso   1.000  C
  C21      1.0000 0.03060  0.32640  0.99119  Biso   1.000  C
  C22      1.0000 0.46940  0.67360  0.49119  Biso   1.000  C
  C23      1.0000 0.96940  0.82640  0.50881  Biso   1.000  C
  C24      1.0000 0.53060  0.17360  0.00881  Biso   1.000  C
  C25      1.0000 0.10100  0.19020  0.08855  Biso   1.000  C
  C26      1.0000 0.39900  0.80980  0.58855  Biso   1.000  C
  C27      1.0000 0.89900  0.69020  0.41145  Biso   1.000  C
  C28      1.0000 0.60100  0.30980  0.91145  Biso   1.000  C
  C29      1.0000 0.14320  0.31630  0.12786  Biso   1.000  C
  C30      1.0000 0.35680  0.68370  0.62786  Biso   1.000  C
  C31      1.0000 0.85680  0.81630  0.37214  Biso   1.000  C
  C32      1.0000 0.64320  0.18370  0.87214  Biso   1.000  C
  H17      1.0000 0.16410  0.41330  0.10790  Biso   1.000  H
  H18      1.0000 0.33590  0.58670  0.60790  Biso   1.000  H
  H19      1.0000 0.83590  0.91330  0.39210  Biso   1.000  H
  H20      1.0000 0.66410  0.08670  0.89210  Biso   1.000  H
  C33      1.0000 0.15490  0.30050  0.19616  Biso   1.000  C
  C34      1.0000 0.34510  0.69950  0.69616  Biso   1.000  C
  C35      1.0000 0.84510  0.80050  0.30384  Biso   1.000  C
  C36      1.0000 0.65490  0.19950  0.80384  Biso   1.000  C
  H21      1.0000 0.18420  0.38710  0.22230  Biso   1.000  H
  H22      1.0000 0.31580  0.61290  0.72230  Biso   1.000  H
  H23      1.0000 0.81580  0.88710  0.27770  Biso   1.000  H
  H24      1.0000 0.68420  0.11290  0.77770  Biso   1.000  H
  C37      1.0000 0.12450  0.16030  0.22665  Biso   1.000  C
  C38      1.0000 0.37550  0.83970  0.72665  Biso   1.000  C
  C39      1.0000 0.87550  0.66030  0.27335  Biso   1.000  C
  C40      1.0000 0.62450  0.33970  0.77335  Biso   1.000  C
  H25      1.0000 0.12880  0.15170  0.27340  Biso   1.000  H
  H26      1.0000 0.37120  0.84830  0.77340  Biso   1.000  H
  H27      1.0000 0.87120  0.65170  0.22660  Biso   1.000  H
  H28      1.0000 0.62880  0.34830  0.72660  Biso   1.000  H
  C41      1.0000 0.08790  0.03400  0.18846  Biso   1.000  C
  C42      1.0000 0.41210  0.96600  0.68846  Biso   1.000  C
  C43      1.0000 0.91210  0.53400  0.31154  Biso   1.000  C
  C44      1.0000 0.58790  0.46600  0.81154  Biso   1.000  C
  H29      1.0000 0.07100  0.93670  0.20870  Biso   1.000  H
  H30      1.0000 0.42900  0.06330  0.70870  Biso   1.000  H
  H31      1.0000 0.92900  0.43670  0.29130  Biso   1.000  H
  H32      1.0000 0.57100  0.56330  0.79130  Biso   1.000  H
  C45      1.0000 0.07570  0.04850  0.11986  Biso   1.000  C
  C46      1.0000 0.42430  0.95150  0.61986  Biso   1.000  C
  C47      1.0000 0.92430  0.54850  0.38014  Biso   1.000  C
  C48      1.0000 0.57570  0.45150  0.88014  Biso   1.000  C
  C49      1.0000 0.84940  0.91170  0.03867  Biso   1.000  C
  C50      1.0000 0.65060  0.08830  0.53867  Biso   1.000  C
  C51      1.0000 0.15060  0.41170  0.46133  Biso   1.000  C
  C52      1.0000 0.34940  0.58830  0.96133  Biso   1.000  C
  H33      1.0000 0.82610  0.83250  0.00550  Biso   1.000  H
  H34      1.0000 0.67390  0.16750  0.50550  Biso   1.000  H
  H35      1.0000 0.17390  0.33250  0.49450  Biso   1.000  H
  H36      1.0000 0.32610  0.66750  0.99450  Biso   1.000  H
  H37      1.0000 0.85140  0.01300  0.01740  Biso   1.000  H
  H38      1.0000 0.64860  0.98700  0.51740  Biso   1.000  H
  H39      1.0000 0.14860  0.51300  0.48260  Biso   1.000  H
  H40      1.0000 0.35140  0.48700  0.98260  Biso   1.000  H
  H41      1.0000 0.76320  0.91000  0.07260  Biso   1.000  H
  H42      1.0000 0.73680  0.09000  0.57260  Biso   1.000  H
  H43      1.0000 0.23680  0.41000  0.42740  Biso   1.000  H
  H44      1.0000 0.26320  0.59000  0.92740  Biso   1.000  H
