data_image0
_cell_length_a       7.102
_cell_length_b       9.142
_cell_length_c       20.944
_cell_angle_alpha    90
_cell_angle_beta     90
_cell_angle_gamma    90

_symmetry_space_group_name_H-M    "P 1"
_symmetry_int_tables_number       1

loop_
  _symmetry_equiv_pos_as_xyz
  'x, y, z'

loop_
  _atom_site_label
  _atom_site_occupancy
  _atom_site_fract_x
  _atom_site_fract_y
  _atom_site_fract_z
  _atom_site_thermal_displace_type
  _atom_site_B_iso_or_equiv
  _atom_site_type_symbol
  Cu1      1.0000 0.78101  0.42738  0.04973  Biso   1.000  Cu
  Cu2      1.0000 0.71899  0.57262  0.54973  Biso   1.000  Cu
  Cu3      1.0000 0.21899  0.92738  0.45027  Biso   1.000  Cu
  Cu4      1.0000 0.28101  0.07262  0.95027  Biso   1.000  Cu
  N1       1.0000 0.83319  0.28705  0.12182  Biso   1.000  N
  N2       1.0000 0.66681  0.71295  0.62182  Biso   1.000  N
  N3       1.0000 0.16681  0.78705  0.37818  Biso   1.000  N
  N4       1.0000 0.33319  0.21295  0.87818  Biso   1.000  N
  N5       1.0000 0.86500  0.26263  0.99896  Biso   1.000  N
  N6       1.0000 0.63500  0.73737  0.49896  Biso   1.000  N
  N7       1.0000 0.13500  0.76263  0.50104  Biso   1.000  N
  N8       1.0000 0.36500  0.23737  0.00104  Biso   1.000  N
  N9       1.0000 0.81607  0.66261  0.13242  Biso   1.000  N
  N10      1.0000 0.68393  0.33739  0.63242  Biso   1.000  N
  N11      1.0000 0.18393  0.16261  0.36758  Biso   1.000  N
  N12      1.0000 0.31607  0.83739  0.86758  Biso   1.000  N
  O1       1.0000 0.02626  0.04220  0.00670  Biso   1.000  O
  O2       1.0000 0.47374  0.95780  0.50670  Biso   1.000  O
  O3       1.0000 0.97374  0.54220  0.49330  Biso   1.000  O
  O4       1.0000 0.52626  0.45780  0.99330  Biso   1.000  O
  O5       1.0000 0.68919  0.58743  0.10207  Biso   1.000  O
  O6       1.0000 0.81081  0.41257  0.60207  Biso   1.000  O
  O7       1.0000 0.31081  0.08743  0.39793  Biso   1.000  O
  O8       1.0000 0.18919  0.91257  0.89793  Biso   1.000  O
  O9       1.0000 0.76018  0.76083  0.16809  Biso   1.000  O
  O10      1.0000 0.73982  0.23917  0.66809  Biso   1.000  O
  O11      1.0000 0.23982  0.26083  0.33191  Biso   1.000  O
  O12      1.0000 0.26018  0.73917  0.83191  Biso   1.000  O
  O13      1.0000 0.98430  0.63182  0.12477  Biso   1.000  O
  O14      1.0000 0.51570  0.36818  0.62477  Biso   1.000  O
  O15      1.0000 0.01570  0.13182  0.37523  Biso   1.000  O
  O16      1.0000 0.48430  0.86818  0.87523  Biso   1.000  O
  S1       1.0000 0.97735  0.55612  0.97134  Biso   1.000  S
  S2       1.0000 0.52265  0.44388  0.47134  Biso   1.000  S
  S3       1.0000 0.02265  0.05612  0.52866  Biso   1.000  S
  S4       1.0000 0.47735  0.94388  0.02866  Biso   1.000  S
  C1       1.0000 0.81022  0.30755  0.18420  Biso   1.000  C
  C2       1.0000 0.68978  0.69245  0.68420  Biso   1.000  C
  C3       1.0000 0.18978  0.80755  0.31580  Biso   1.000  C
  C4       1.0000 0.31022  0.19245  0.81580  Biso   1.000  C
  H1       1.0000 0.75750  0.39720  0.19860  Biso   1.000  H
  H2       1.0000 0.74250  0.60280  0.69860  Biso   1.000  H
  H3       1.0000 0.24250  0.89720  0.30140  Biso   1.000  H
  H4       1.0000 0.25750  0.10280  0.80140  Biso   1.000  H
  C5       1.0000 0.86061  0.20247  0.22912  Biso   1.000  C
  C6       1.0000 0.63939  0.79753  0.72912  Biso   1.000  C
  C7       1.0000 0.13939  0.70247  0.27088  Biso   1.000  C
  C8       1.0000 0.36061  0.29753  0.77088  Biso   1.000  C
  H5       1.0000 0.84600  0.22070  0.27350  Biso   1.000  H
  H6       1.0000 0.65400  0.77930  0.77350  Biso   1.000  H
  H7       1.0000 0.15400  0.72070  0.22650  Biso   1.000  H
  H8       1.0000 0.34600  0.27930  0.72650  Biso   1.000  H
  C9       1.0000 0.93249  0.07080  0.20756  Biso   1.000  C
  C10      1.0000 0.56751  0.92920  0.70756  Biso   1.000  C
  C11      1.0000 0.06751  0.57080  0.29244  Biso   1.000  C
  C12      1.0000 0.43249  0.42920  0.79244  Biso   1.000  C
  H9       1.0000 0.96460  0.99600  0.23710  Biso   1.000  H
  H10      1.0000 0.53540  0.00400  0.73710  Biso   1.000  H
  H11      1.0000 0.03540  0.49600  0.26290  Biso   1.000  H
  H12      1.0000 0.46460  0.50400  0.76290  Biso   1.000  H
  C13      1.0000 0.95762  0.04828  0.14222  Biso   1.000  C
  C14      1.0000 0.54238  0.95172  0.64222  Biso   1.000  C
  C15      1.0000 0.04238  0.54828  0.35778  Biso   1.000  C
  C16      1.0000 0.45762  0.45172  0.85778  Biso   1.000  C
  H13      1.0000 0.00750  0.95870  0.12670  Biso   1.000  H
  H14      1.0000 0.49250  0.04130  0.62670  Biso   1.000  H
  H15      1.0000 0.99250  0.45870  0.37330  Biso   1.000  H
  H16      1.0000 0.50750  0.54130  0.87330  Biso   1.000  H
  C17      1.0000 0.90820  0.15929  0.10066  Biso   1.000  C
  C18      1.0000 0.59180  0.84071  0.60066  Biso   1.000  C
  C19      1.0000 0.09180  0.65929  0.39934  Biso   1.000  C
  C20      1.0000 0.40820  0.34071  0.89934  Biso   1.000  C
  C21      1.0000 0.93698  0.14856  0.02978  Biso   1.000  C
  C22      1.0000 0.56302  0.85144  0.52978  Biso   1.000  C
  C23      1.0000 0.06302  0.64856  0.47022  Biso   1.000  C
  C24      1.0000 0.43698  0.35144  0.97022  Biso   1.000  C
  C25      1.0000 0.88160  0.28251  0.93257  Biso   1.000  C
  C26      1.0000 0.61840  0.71749  0.43257  Biso   1.000  C
  C27      1.0000 0.11840  0.78251  0.56743  Biso   1.000  C
  C28      1.0000 0.38160  0.21749  0.06743  Biso   1.000  C
  C29      1.0000 0.84228  0.17302  0.88773  Biso   1.000  C
  C30      1.0000 0.65772  0.82698  0.38773  Biso   1.000  C
  C31      1.0000 0.15772  0.67302  0.61227  Biso   1.000  C
  C32      1.0000 0.34228  0.32698  0.11227  Biso   1.000  C
  H17      1.0000 0.81030  0.07720  0.90150  Biso   1.000  H
  H18      1.0000 0.68970  0.92280  0.40150  Biso   1.000  H
  H19      1.0000 0.18970  0.57720  0.59850  Biso   1.000  H
  H20      1.0000 0.31030  0.42280  0.09850  Biso   1.000  H
  C33      1.0000 0.85034  0.20545  0.82295  Biso   1.000  C
  C34      1.0000 0.64966  0.79455  0.32295  Biso   1.000  C
  C35      1.0000 0.14966  0.70545  0.67705  Biso   1.000  C
  C36      1.0000 0.35034  0.29455  0.17705  Biso   1.000  C
  H21      1.0000 0.82110  0.13190  0.79250  Biso   1.000  H
  H22      1.0000 0.67890  0.86810  0.29250  Biso   1.000  H
  H23      1.0000 0.17890  0.63190  0.70750  Biso   1.000  H
  H24      1.0000 0.32110  0.36810  0.20750  Biso   1.000  H
  C37      1.0000 0.90112  0.34524  0.80219  Biso   1.000  C
  C38      1.0000 0.59888  0.65476  0.30219  Biso   1.000  C
  C39      1.0000 0.09888  0.84524  0.69781  Biso   1.000  C
  C40      1.0000 0.40112  0.15476  0.19781  Biso   1.000  C
  H25      1.0000 0.90830  0.36580  0.75780  Biso   1.000  H
  H26      1.0000 0.59170  0.63420  0.25780  Biso   1.000  H
  H27      1.0000 0.09170  0.86580  0.74220  Biso   1.000  H
  H28      1.0000 0.40830  0.13420  0.24220  Biso   1.000  H
  C41      1.0000 0.94102  0.45408  0.84637  Biso   1.000  C
  C42      1.0000 0.55898  0.54592  0.34637  Biso   1.000  C
  C43      1.0000 0.05898  0.95408  0.65363  Biso   1.000  C
  C44      1.0000 0.44102  0.04592  0.15363  Biso   1.000  C
  H29      1.0000 0.97740  0.54880  0.83230  Biso   1.000  H
  H30      1.0000 0.52260  0.45120  0.33230  Biso   1.000  H
  H31      1.0000 0.02260  0.04880  0.66770  Biso   1.000  H
  H32      1.0000 0.47740  0.95120  0.16770  Biso   1.000  H
  C45      1.0000 0.92750  0.42385  0.91115  Biso   1.000  C
  C46      1.0000 0.57250  0.57615  0.41115  Biso   1.000  C
  C47      1.0000 0.07250  0.92385  0.58885  Biso   1.000  C
  C48      1.0000 0.42750  0.07615  0.08885  Biso   1.000  C
  C49      1.0000 0.84341  0.71401  0.94564  Biso   1.000  C
  C50      1.0000 0.65659  0.28599  0.44564  Biso   1.000  C
  C51      1.0000 0.15659  0.21401  0.55436  Biso   1.000  C
  C52      1.0000 0.34341  0.78599  0.05436  Biso   1.000  C
  H33      1.0000 0.88830  0.74590  0.90360  Biso   1.000  H
  H34      1.0000 0.61170  0.25410  0.40360  Biso   1.000  H
  H35      1.0000 0.11170  0.24590  0.59640  Biso   1.000  H
  H36      1.0000 0.38830  0.75410  0.09640  Biso   1.000  H
  H37      1.0000 0.85960  0.79350  0.97650  Biso   1.000  H
  H38      1.0000 0.64040  0.20650  0.47650  Biso   1.000  H
  H39      1.0000 0.14040  0.29350  0.52350  Biso   1.000  H
  H40      1.0000 0.35960  0.70650  0.02350  Biso   1.000  H
  H41      1.0000 0.70980  0.68800  0.94280  Biso   1.000  H
  H42      1.0000 0.79020  0.31200  0.44280  Biso   1.000  H
  H43      1.0000 0.29020  0.18800  0.55720  Biso   1.000  H
  H44      1.0000 0.20980  0.81200  0.05720  Biso   1.000  H
