data_image0
_cell_length_a       8.8284
_cell_length_b       8.0746
_cell_length_c       12.3897
_cell_angle_alpha    90
_cell_angle_beta     99.54
_cell_angle_gamma    90

_symmetry_space_group_name_H-M    "P 1"
_symmetry_int_tables_number       1

loop_
  _symmetry_equiv_pos_as_xyz
  'x, y, z'

loop_
  _atom_site_label
  _atom_site_occupancy
  _atom_site_fract_x
  _atom_site_fract_y
  _atom_site_fract_z
  _atom_site_thermal_displace_type
  _atom_site_B_iso_or_equiv
  _atom_site_type_symbol
  Cu1      1.0000 0.37672  0.86587  0.63067  Biso   1.000  Cu
  Cu2      1.0000 0.62328  0.36587  0.36933  Biso   1.000  Cu
  S1       1.0000 0.10096  0.67507  0.50042  Biso   1.000  S
  S2       1.0000 0.89904  0.17507  0.49958  Biso   1.000  S
  O1       1.0000 0.65262  0.60168  0.46407  Biso   1.000  O
  O2       1.0000 0.34738  0.10168  0.53593  Biso   1.000  O
  O3       1.0000 0.15519  0.81058  0.58470  Biso   1.000  O
  O4       1.0000 0.84481  0.31058  0.41530  Biso   1.000  O
  N1       1.0000 0.59470  0.82420  0.70044  Biso   1.000  N
  N2       1.0000 0.40530  0.32420  0.29956  Biso   1.000  N
  N3       1.0000 0.44212  0.74560  0.50863  Biso   1.000  N
  N4       1.0000 0.55788  0.24560  0.49137  Biso   1.000  N
  N5       1.0000 0.31810  0.97300  0.76158  Biso   1.000  N
  N6       1.0000 0.68190  0.47300  0.23842  Biso   1.000  N
  C1       1.0000 0.66530  0.86930  0.80028  Biso   1.000  C
  C2       1.0000 0.33470  0.36930  0.19972  Biso   1.000  C
  H1       1.0000 0.61250  0.93860  0.84370  Biso   1.000  H
  H2       1.0000 0.38750  0.43860  0.15630  Biso   1.000  H
  C3       1.0000 0.81400  0.81750  0.84216  Biso   1.000  C
  C4       1.0000 0.18600  0.31750  0.15784  Biso   1.000  C
  H3       1.0000 0.86310  0.85420  0.91210  Biso   1.000  H
  H4       1.0000 0.13690  0.35420  0.08790  Biso   1.000  H
  C5       1.0000 0.88920  0.71230  0.78097  Biso   1.000  C
  C6       1.0000 0.11080  0.21230  0.21903  Biso   1.000  C
  H5       1.0000 0.98980  0.67390  0.80880  Biso   1.000  H
  H6       1.0000 0.01020  0.17390  0.19120  Biso   1.000  H
  C7       1.0000 0.81530  0.66310  0.67756  Biso   1.000  C
  C8       1.0000 0.18470  0.16310  0.32244  Biso   1.000  C
  H7       1.0000 0.86420  0.59020  0.63390  Biso   1.000  H
  H8       1.0000 0.13580  0.09020  0.36610  Biso   1.000  H
  C9       1.0000 0.66880  0.72320  0.64012  Biso   1.000  C
  C10      1.0000 0.33120  0.22320  0.35988  Biso   1.000  C
  C11      1.0000 0.58450  0.68280  0.52712  Biso   1.000  C
  C12      1.0000 0.41550  0.18280  0.47288  Biso   1.000  C
  C13      1.0000 0.35590  0.74030  0.40159  Biso   1.000  C
  C14      1.0000 0.64410  0.24030  0.59841  Biso   1.000  C
  C15      1.0000 0.41960  0.77630  0.30804  Biso   1.000  C
  C16      1.0000 0.58040  0.27630  0.69196  Biso   1.000  C
  H9       1.0000 0.52660  0.79750  0.31490  Biso   1.000  H
  H10      1.0000 0.47340  0.29750  0.68510  Biso   1.000  H
  C17      1.0000 0.32810  0.78140  0.20510  Biso   1.000  C
  C18      1.0000 0.67190  0.28140  0.79490  Biso   1.000  C
  H11      1.0000 0.37360  0.80460  0.14240  Biso   1.000  H
  H12      1.0000 0.62640  0.30460  0.85760  Biso   1.000  H
  C19      1.0000 0.17040  0.75280  0.19309  Biso   1.000  C
  C20      1.0000 0.82960  0.25280  0.80691  Biso   1.000  C
  H13      1.0000 0.10870  0.75660  0.12260  Biso   1.000  H
  H14      1.0000 0.89130  0.25660  0.87740  Biso   1.000  H
  C21      1.0000 0.10410  0.71870  0.28460  Biso   1.000  C
  C22      1.0000 0.89590  0.21870  0.71540  Biso   1.000  C
  H15      1.0000 0.99650  0.70100  0.27740  Biso   1.000  H
  H16      1.0000 0.00350  0.20100  0.72260  Biso   1.000  H
  C23      1.0000 0.19670  0.71060  0.38734  Biso   1.000  C
  C24      1.0000 0.80330  0.21060  0.61266  Biso   1.000  C
  C25      1.0000 0.18830  0.48590  0.55491  Biso   1.000  C
  C26      1.0000 0.81170  0.98590  0.44509  Biso   1.000  C
  H17      1.0000 0.15880  0.39580  0.50270  Biso   1.000  H
  H18      1.0000 0.84120  0.89580  0.49730  Biso   1.000  H
  H19      1.0000 0.15360  0.46010  0.62420  Biso   1.000  H
  H20      1.0000 0.84640  0.96010  0.37580  Biso   1.000  H
  H21      1.0000 0.30030  0.49830  0.56770  Biso   1.000  H
  H22      1.0000 0.69970  0.99830  0.43230  Biso   1.000  H
  C27      1.0000 0.28280  0.00890  0.84324  Biso   1.000  C
  C28      1.0000 0.71720  0.50890  0.15676  Biso   1.000  C
  C29      1.0000 0.23770  0.05460  0.94635  Biso   1.000  C
  C30      1.0000 0.76230  0.55460  0.05365  Biso   1.000  C
  H23      1.0000 0.15480  0.98160  0.96100  Biso   1.000  H
  H24      1.0000 0.84520  0.48160  0.03900  Biso   1.000  H
  H25      1.0000 0.20170  0.16960  0.94250  Biso   1.000  H
  H26      1.0000 0.79830  0.66960  0.05750  Biso   1.000  H
  H27      1.0000 0.32600  0.04360  0.00530  Biso   1.000  H
  H28      1.0000 0.67400  0.54360  0.99470  Biso   1.000  H
  Cl1      1.0000 0.31003  0.52253  0.88398  Biso   1.000  Cl
  Cl2      1.0000 0.68997  0.02253  0.11602  Biso   1.000  Cl
  O5       1.0000 0.39170  0.59270  0.80377  Biso   1.000  O
  O6       1.0000 0.60830  0.09270  0.19623  Biso   1.000  O
  O7       1.0000 0.18780  0.41840  0.82976  Biso   1.000  O
  O8       1.0000 0.81220  0.91840  0.17024  Biso   1.000  O
  O9       1.0000 0.24490  0.65310  0.94178  Biso   1.000  O
  O10      1.0000 0.75510  0.15310  0.05822  Biso   1.000  O
  O11      1.0000 0.41450  0.42410  0.96064  Biso   1.000  O
  O12      1.0000 0.58550  0.92410  0.03936  Biso   1.000  O
