data_image0
_cell_length_a       15.07
_cell_length_b       7.23
_cell_length_c       19.165
_cell_angle_alpha    90
_cell_angle_beta     96.86
_cell_angle_gamma    90

_symmetry_space_group_name_H-M    "P 1"
_symmetry_int_tables_number       1

loop_
  _symmetry_equiv_pos_as_xyz
  'x, y, z'

loop_
  _atom_site_label
  _atom_site_occupancy
  _atom_site_fract_x
  _atom_site_fract_y
  _atom_site_fract_z
  _atom_site_thermal_displace_type
  _atom_site_B_iso_or_equiv
  _atom_site_type_symbol
  Cu1      1.0000 0.67815  0.15490  0.12006  Biso   1.000  Cu
  Cu2      1.0000 0.82185  0.65490  0.37994  Biso   1.000  Cu
  Cu3      1.0000 0.32185  0.84510  0.87994  Biso   1.000  Cu
  Cu4      1.0000 0.17815  0.34510  0.62006  Biso   1.000  Cu
  O1       1.0000 0.46700  0.11320  0.38730  Biso   1.000  O
  O2       1.0000 0.03300  0.61320  0.11270  Biso   1.000  O
  O3       1.0000 0.53300  0.88680  0.61270  Biso   1.000  O
  O4       1.0000 0.96700  0.38680  0.88730  Biso   1.000  O
  O5       1.0000 0.59470  0.19200  0.18780  Biso   1.000  O
  O6       1.0000 0.90530  0.69200  0.31220  Biso   1.000  O
  O7       1.0000 0.40530  0.80800  0.81220  Biso   1.000  O
  O8       1.0000 0.09470  0.30800  0.68780  Biso   1.000  O
  O9       1.0000 0.75920  0.96460  0.39560  Biso   1.000  O
  O10      1.0000 0.74080  0.46460  0.10440  Biso   1.000  O
  O11      1.0000 0.24080  0.03540  0.60440  Biso   1.000  O
  O12      1.0000 0.25920  0.53540  0.89560  Biso   1.000  O
  O13      1.0000 0.74060  0.02600  0.05470  Biso   1.000  O
  O14      1.0000 0.75940  0.52600  0.44530  Biso   1.000  O
  O15      1.0000 0.25940  0.97400  0.94530  Biso   1.000  O
  O16      1.0000 0.24060  0.47400  0.55470  Biso   1.000  O
  O17      1.0000 0.85450  0.93070  0.00360  Biso   1.000  O
  O18      1.0000 0.64550  0.43070  0.49640  Biso   1.000  O
  O19      1.0000 0.14550  0.06930  0.99640  Biso   1.000  O
  O20      1.0000 0.35450  0.56930  0.50360  Biso   1.000  O
  N1       1.0000 0.61560  0.05360  0.39330  Biso   1.000  N
  N2       1.0000 0.88440  0.55360  0.10670  Biso   1.000  N
  N3       1.0000 0.38440  0.94640  0.60670  Biso   1.000  N
  N4       1.0000 0.11560  0.44640  0.89330  Biso   1.000  N
  N5       1.0000 0.53340  0.16030  0.28830  Biso   1.000  N
  N6       1.0000 0.96660  0.66030  0.21170  Biso   1.000  N
  N7       1.0000 0.46660  0.83970  0.71170  Biso   1.000  N
  N8       1.0000 0.03340  0.33970  0.78830  Biso   1.000  N
  N9       1.0000 0.76690  0.07670  0.26170  Biso   1.000  N
  N10      1.0000 0.73310  0.57670  0.23830  Biso   1.000  N
  N11      1.0000 0.23310  0.92330  0.73830  Biso   1.000  N
  N12      1.0000 0.26690  0.42330  0.76170  Biso   1.000  N
  N13      1.0000 0.77320  0.10680  0.19620  Biso   1.000  N
  N14      1.0000 0.72680  0.60680  0.30380  Biso   1.000  N
  N15      1.0000 0.22680  0.89320  0.80380  Biso   1.000  N
  N16      1.0000 0.27320  0.39320  0.69620  Biso   1.000  N
  N17      1.0000 0.58300  0.21550  0.04090  Biso   1.000  N
  N18      1.0000 0.91700  0.71550  0.45910  Biso   1.000  N
  N19      1.0000 0.41700  0.78450  0.95910  Biso   1.000  N
  N20      1.0000 0.08300  0.28450  0.54090  Biso   1.000  N
  C1       1.0000 0.61720  0.00400  0.46800  Biso   1.000  C
  C2       1.0000 0.88280  0.50400  0.03200  Biso   1.000  C
  C3       1.0000 0.38280  0.99600  0.53200  Biso   1.000  C
  C4       1.0000 0.11720  0.49600  0.96800  Biso   1.000  C
  C5       1.0000 0.53380  0.10930  0.35800  Biso   1.000  C
  C6       1.0000 0.96620  0.60930  0.14200  Biso   1.000  C
  C7       1.0000 0.46620  0.89070  0.64200  Biso   1.000  C
  C8       1.0000 0.03380  0.39070  0.85800  Biso   1.000  C
  C9       1.0000 0.44670  0.21800  0.25000  Biso   1.000  C
  C10      1.0000 0.05330  0.71800  0.25000  Biso   1.000  C
  C11      1.0000 0.55330  0.78200  0.75000  Biso   1.000  C
  C12      1.0000 0.94670  0.28200  0.75000  Biso   1.000  C
  C13      1.0000 0.60570  0.14870  0.25130  Biso   1.000  C
  C14      1.0000 0.89430  0.64870  0.24870  Biso   1.000  C
  C15      1.0000 0.39430  0.85130  0.74870  Biso   1.000  C
  C16      1.0000 0.10570  0.35130  0.75130  Biso   1.000  C
  C17      1.0000 0.68820  0.08660  0.28830  Biso   1.000  C
  C18      1.0000 0.81180  0.58660  0.21170  Biso   1.000  C
  C19      1.0000 0.31180  0.91340  0.71170  Biso   1.000  C
  C20      1.0000 0.18820  0.41340  0.78830  Biso   1.000  C
  C21      1.0000 0.69290  0.03070  0.36130  Biso   1.000  C
  C22      1.0000 0.80710  0.53070  0.13870  Biso   1.000  C
  C23      1.0000 0.30710  0.96930  0.63870  Biso   1.000  C
  C24      1.0000 0.19290  0.46930  0.86130  Biso   1.000  C
  C25      1.0000 0.86460  0.11370  0.18160  Biso   1.000  C
  C26      1.0000 0.63540  0.61370  0.31840  Biso   1.000  C
  C27      1.0000 0.13540  0.88630  0.81840  Biso   1.000  C
  C28      1.0000 0.36460  0.38630  0.68160  Biso   1.000  C
  C29      1.0000 0.88840  0.06530  0.11560  Biso   1.000  C
  C30      1.0000 0.61160  0.56530  0.38440  Biso   1.000  C
  C31      1.0000 0.11160  0.93470  0.88440  Biso   1.000  C
  C32      1.0000 0.38840  0.43470  0.61560  Biso   1.000  C
  C33      1.0000 0.97880  0.07900  0.10520  Biso   1.000  C
  C34      1.0000 0.52120  0.57900  0.39480  Biso   1.000  C
  C35      1.0000 0.02120  0.92100  0.89480  Biso   1.000  C
  C36      1.0000 0.47880  0.42100  0.60520  Biso   1.000  C
  C37      1.0000 0.04250  0.14300  0.15760  Biso   1.000  C
  C38      1.0000 0.45750  0.64300  0.34240  Biso   1.000  C
  C39      1.0000 0.95750  0.85700  0.84240  Biso   1.000  C
  C40      1.0000 0.54250  0.35700  0.65760  Biso   1.000  C
  C41      1.0000 0.01770  0.19500  0.22150  Biso   1.000  C
  C42      1.0000 0.48230  0.69500  0.27850  Biso   1.000  C
  C43      1.0000 0.98230  0.80500  0.77850  Biso   1.000  C
  C44      1.0000 0.51770  0.30500  0.72150  Biso   1.000  C
  C45      1.0000 0.92960  0.18000  0.23370  Biso   1.000  C
  C46      1.0000 0.57040  0.68000  0.26630  Biso   1.000  C
  C47      1.0000 0.07040  0.82000  0.76630  Biso   1.000  C
  C48      1.0000 0.42960  0.32000  0.73370  Biso   1.000  C
  C49      1.0000 0.82460  0.00110  0.05430  Biso   1.000  C
  C50      1.0000 0.67540  0.50110  0.44570  Biso   1.000  C
  C51      1.0000 0.17540  0.99890  0.94570  Biso   1.000  C
  C52      1.0000 0.32460  0.49890  0.55430  Biso   1.000  C
  C53      1.0000 0.49540  0.20700  0.04630  Biso   1.000  C
  C54      1.0000 0.00460  0.70700  0.45370  Biso   1.000  C
  C55      1.0000 0.50460  0.79300  0.95370  Biso   1.000  C
  C56      1.0000 0.99540  0.29300  0.54630  Biso   1.000  C
  C57      1.0000 0.43100  0.25700  0.99200  Biso   1.000  C
  C58      1.0000 0.06900  0.75700  0.50800  Biso   1.000  C
  C59      1.0000 0.56900  0.74300  0.00800  Biso   1.000  C
  C60      1.0000 0.93100  0.24300  0.49200  Biso   1.000  C
  C61      1.0000 0.45760  0.31700  0.93080  Biso   1.000  C
  C62      1.0000 0.04240  0.81700  0.56920  Biso   1.000  C
  C63      1.0000 0.54240  0.68300  0.06920  Biso   1.000  C
  C64      1.0000 0.95760  0.18300  0.43080  Biso   1.000  C
  C65      1.0000 0.54810  0.32300  0.92350  Biso   1.000  C
  C66      1.0000 0.95190  0.82300  0.57650  Biso   1.000  C
  C67      1.0000 0.45190  0.67700  0.07650  Biso   1.000  C
  C68      1.0000 0.04810  0.17700  0.42350  Biso   1.000  C
  C69      1.0000 0.60810  0.27100  0.97960  Biso   1.000  C
  C70      1.0000 0.89190  0.77100  0.52040  Biso   1.000  C
  C71      1.0000 0.39190  0.72900  0.02040  Biso   1.000  C
  C72      1.0000 0.10810  0.22900  0.47960  Biso   1.000  C
  O21      1.0000 0.72400  0.83610  0.89320  Biso   1.000  O
  O22      1.0000 0.77600  0.33610  0.60680  Biso   1.000  O
  O23      1.0000 0.27600  0.16390  0.10680  Biso   1.000  O
  O24      1.0000 0.22400  0.66390  0.39320  Biso   1.000  O
  O25      1.0000 0.28210  0.86990  0.20120  Biso   1.000  O
  O26      1.0000 0.21790  0.36990  0.29880  Biso   1.000  O
  O27      1.0000 0.71790  0.13010  0.79880  Biso   1.000  O
  O28      1.0000 0.78210  0.63010  0.70120  Biso   1.000  O
  O29      1.0000 0.27760  0.01360  0.34190  Biso   1.000  O
  O30      1.0000 0.22240  0.51360  0.15810  Biso   1.000  O
  O31      1.0000 0.72240  0.98640  0.65810  Biso   1.000  O
  O32      1.0000 0.77760  0.48640  0.84190  Biso   1.000  O
  H1       1.0000 0.58500  0.10000  0.49600  Biso   1.000  H
  H2       1.0000 0.91500  0.60000  0.00400  Biso   1.000  H
  H3       1.0000 0.41500  0.90000  0.50400  Biso   1.000  H
  H4       1.0000 0.08500  0.40000  0.99600  Biso   1.000  H
  H5       1.0000 0.59000  0.90800  0.47600  Biso   1.000  H
  H6       1.0000 0.91000  0.40800  0.02400  Biso   1.000  H
  H7       1.0000 0.41000  0.09200  0.52400  Biso   1.000  H
  H8       1.0000 0.09000  0.59200  0.97600  Biso   1.000  H
  H9       1.0000 0.67800  0.99000  0.49000  Biso   1.000  H
  H10      1.0000 0.82200  0.49000  0.01000  Biso   1.000  H
  H11      1.0000 0.32200  0.01000  0.51000  Biso   1.000  H
  H12      1.0000 0.17800  0.51000  0.99000  Biso   1.000  H
  H13      1.0000 0.45900  0.30800  0.20800  Biso   1.000  H
  H14      1.0000 0.04100  0.80800  0.29200  Biso   1.000  H
  H15      1.0000 0.54100  0.69200  0.79200  Biso   1.000  H
  H16      1.0000 0.95900  0.19200  0.70800  Biso   1.000  H
  H17      1.0000 0.42200  0.12000  0.22700  Biso   1.000  H
  H18      1.0000 0.07800  0.62000  0.27300  Biso   1.000  H
  H19      1.0000 0.57800  0.88000  0.77300  Biso   1.000  H
  H20      1.0000 0.92200  0.38000  0.72700  Biso   1.000  H
  H21      1.0000 0.40700  0.25800  0.28200  Biso   1.000  H
  H22      1.0000 0.09300  0.75800  0.21800  Biso   1.000  H
  H23      1.0000 0.59300  0.74200  0.71800  Biso   1.000  H
  H24      1.0000 0.90700  0.24200  0.78200  Biso   1.000  H
  H25      1.0000 0.99500  0.04800  0.05900  Biso   1.000  H
  H26      1.0000 0.50500  0.54800  0.44100  Biso   1.000  H
  H27      1.0000 0.00500  0.95200  0.94100  Biso   1.000  H
  H28      1.0000 0.49500  0.45200  0.55900  Biso   1.000  H
  H29      1.0000 0.10600  0.15100  0.14500  Biso   1.000  H
  H30      1.0000 0.39400  0.65100  0.35500  Biso   1.000  H
  H31      1.0000 0.89400  0.84900  0.85500  Biso   1.000  H
  H32      1.0000 0.60600  0.34900  0.64500  Biso   1.000  H
  H33      1.0000 0.06700  0.25200  0.26000  Biso   1.000  H
  H34      1.0000 0.43300  0.75200  0.24000  Biso   1.000  H
  H35      1.0000 0.93300  0.74800  0.74000  Biso   1.000  H
  H36      1.0000 0.56700  0.24800  0.76000  Biso   1.000  H
  H37      1.0000 0.91100  0.22400  0.27900  Biso   1.000  H
  H38      1.0000 0.58900  0.72400  0.22100  Biso   1.000  H
  H39      1.0000 0.08900  0.77600  0.72100  Biso   1.000  H
  H40      1.0000 0.41100  0.27600  0.77900  Biso   1.000  H
  H41      1.0000 0.48500  0.17800  0.09500  Biso   1.000  H
  H42      1.0000 0.01500  0.67800  0.40500  Biso   1.000  H
  H43      1.0000 0.51500  0.82200  0.90500  Biso   1.000  H
  H44      1.0000 0.98500  0.32200  0.59500  Biso   1.000  H
  H45      1.0000 0.36400  0.23500  0.00200  Biso   1.000  H
  H46      1.0000 0.13600  0.73500  0.49800  Biso   1.000  H
  H47      1.0000 0.63600  0.76500  0.99800  Biso   1.000  H
  H48      1.0000 0.86400  0.26500  0.50200  Biso   1.000  H
  H49      1.0000 0.42200  0.35100  0.89500  Biso   1.000  H
  H50      1.0000 0.07800  0.85100  0.60500  Biso   1.000  H
  H51      1.0000 0.57800  0.64900  0.10500  Biso   1.000  H
  H52      1.0000 0.92200  0.14900  0.39500  Biso   1.000  H
  H53      1.0000 0.57300  0.37300  0.88100  Biso   1.000  H
  H54      1.0000 0.92700  0.87300  0.61900  Biso   1.000  H
  H55      1.0000 0.42700  0.62700  0.11900  Biso   1.000  H
  H56      1.0000 0.07300  0.12700  0.38100  Biso   1.000  H
  H57      1.0000 0.68000  0.27700  0.98100  Biso   1.000  H
  H58      1.0000 0.82000  0.77700  0.51900  Biso   1.000  H
  H59      1.0000 0.32000  0.72300  0.01900  Biso   1.000  H
  H60      1.0000 0.18000  0.22300  0.48100  Biso   1.000  H
  H61      1.0000 0.73270  0.73670  0.88200  Biso   1.000  H
  H62      1.0000 0.76730  0.23670  0.61800  Biso   1.000  H
  H63      1.0000 0.26730  0.26330  0.11800  Biso   1.000  H
  H64      1.0000 0.23270  0.76330  0.38200  Biso   1.000  H
  H65      1.0000 0.76240  0.88190  0.93620  Biso   1.000  H
  H66      1.0000 0.73760  0.38190  0.56380  Biso   1.000  H
  H67      1.0000 0.23760  0.11810  0.06380  Biso   1.000  H
  H68      1.0000 0.26240  0.61810  0.43620  Biso   1.000  H
  H69      1.0000 0.24130  0.92920  0.22370  Biso   1.000  H
  H70      1.0000 0.25870  0.42920  0.27630  Biso   1.000  H
  H71      1.0000 0.75870  0.07080  0.77630  Biso   1.000  H
  H72      1.0000 0.74130  0.57080  0.72370  Biso   1.000  H
  H73      1.0000 0.28370  0.94220  0.15500  Biso   1.000  H
  H74      1.0000 0.21630  0.44220  0.34500  Biso   1.000  H
  H75      1.0000 0.71630  0.05780  0.84500  Biso   1.000  H
  H76      1.0000 0.78370  0.55780  0.65500  Biso   1.000  H
  H77      1.0000 0.33150  0.04720  0.36510  Biso   1.000  H
  H78      1.0000 0.16850  0.54720  0.13490  Biso   1.000  H
  H79      1.0000 0.66850  0.95280  0.63490  Biso   1.000  H
  H80      1.0000 0.83150  0.45280  0.86510  Biso   1.000  H
  H81      1.0000 0.29100  0.94230  0.30150  Biso   1.000  H
  H82      1.0000 0.20900  0.44230  0.19850  Biso   1.000  H
  H83      1.0000 0.70900  0.05770  0.69850  Biso   1.000  H
  H84      1.0000 0.79100  0.55770  0.80150  Biso   1.000  H
