data_image0
_cell_length_a       10.0242
_cell_length_b       10.4152
_cell_length_c       10.5732
_cell_angle_alpha    100.821
_cell_angle_beta     108.601
_cell_angle_gamma    101.232

_symmetry_space_group_name_H-M    "P 1"
_symmetry_int_tables_number       1

loop_
  _symmetry_equiv_pos_as_xyz
  'x, y, z'

loop_
  _atom_site_label
  _atom_site_occupancy
  _atom_site_fract_x
  _atom_site_fract_y
  _atom_site_fract_z
  _atom_site_thermal_displace_type
  _atom_site_B_iso_or_equiv
  _atom_site_type_symbol
  Cu1      1.0000 0.39578  0.44962  0.13058  Biso   1.000  Cu
  Cu2      1.0000 0.60422  0.55038  0.86942  Biso   1.000  Cu
  C1       1.0000 0.63030  0.85010  0.96880  Biso   1.000  C
  C2       1.0000 0.36970  0.14990  0.03120  Biso   1.000  C
  C3       1.0000 0.70070  0.98380  0.03780  Biso   1.000  C
  C4       1.0000 0.29930  0.01620  0.96220  Biso   1.000  C
  C5       1.0000 0.84830  0.02170  0.11200  Biso   1.000  C
  C6       1.0000 0.15170  0.97830  0.88800  Biso   1.000  C
  C7       1.0000 0.92200  0.92260  0.11690  Biso   1.000  C
  C8       1.0000 0.07800  0.07740  0.88310  Biso   1.000  C
  C9       1.0000 0.84390  0.78960  0.04830  Biso   1.000  C
  C10      1.0000 0.15610  0.21040  0.95170  Biso   1.000  C
  C11      1.0000 0.37250  0.72490  0.20350  Biso   1.000  C
  C12      1.0000 0.62750  0.27510  0.79650  Biso   1.000  C
  C13      1.0000 0.40840  0.86240  0.26180  Biso   1.000  C
  C14      1.0000 0.59160  0.13760  0.73820  Biso   1.000  C
  C15      1.0000 0.29390  0.93280  0.25040  Biso   1.000  C
  C16      1.0000 0.70610  0.06720  0.74960  Biso   1.000  C
  C17      1.0000 0.08050  0.95860  0.18920  Biso   1.000  C
  C18      1.0000 0.91950  0.04140  0.81080  Biso   1.000  C
  C19      1.0000 0.55430  0.93220  0.33470  Biso   1.000  C
  C20      1.0000 0.44570  0.06780  0.66530  Biso   1.000  C
  C21      1.0000 0.65740  0.86100  0.34630  Biso   1.000  C
  C22      1.0000 0.34260  0.13900  0.65370  Biso   1.000  C
  C23      1.0000 0.61350  0.72370  0.28650  Biso   1.000  C
  C24      1.0000 0.38650  0.27630  0.71350  Biso   1.000  C
  C25      1.0000 0.92890  0.24690  0.54420  Biso   1.000  C
  C26      1.0000 0.07110  0.75310  0.45580  Biso   1.000  C
  C27      1.0000 0.22360  0.42370  0.28310  Biso   1.000  C
  C28      1.0000 0.77640  0.57630  0.71690  Biso   1.000  C
  C29      1.0000 0.70160  0.44750  0.15550  Biso   1.000  C
  C30      1.0000 0.29840  0.55250  0.84450  Biso   1.000  C
  C31      1.0000 0.82820  0.40590  0.24260  Biso   1.000  C
  C32      1.0000 0.17180  0.59410  0.75740  Biso   1.000  C
  C33      1.0000 0.81740  0.34670  0.34730  Biso   1.000  C
  C34      1.0000 0.18260  0.65330  0.65270  Biso   1.000  C
  C35      1.0000 0.96140  0.43110  0.22240  Biso   1.000  C
  C36      1.0000 0.03860  0.56890  0.77760  Biso   1.000  C
  C37      1.0000 0.08000  0.39840  0.30620  Biso   1.000  C
  C38      1.0000 0.92000  0.60160  0.69380  Biso   1.000  C
  C39      1.0000 0.06750  0.34110  0.41050  Biso   1.000  C
  C40      1.0000 0.93250  0.65890  0.58950  Biso   1.000  C
  C41      1.0000 0.93470  0.31290  0.43150  Biso   1.000  C
  C42      1.0000 0.06530  0.68710  0.56850  Biso   1.000  C
  N1       1.0000 0.69940  0.75170  0.97370  Biso   1.000  N
  N2       1.0000 0.30060  0.24830  0.02630  Biso   1.000  N
  N3       1.0000 0.47230  0.65350  0.21550  Biso   1.000  N
  N4       1.0000 0.52770  0.34650  0.78450  Biso   1.000  N
  N5       1.0000 0.16680  0.07520  0.26650  Biso   1.000  N
  N6       1.0000 0.83320  0.92480  0.73350  Biso   1.000  N
  N7       1.0000 0.30820  0.05700  0.30720  Biso   1.000  N
  N8       1.0000 0.69180  0.94300  0.69280  Biso   1.000  N
  O1       1.0000 0.21544  0.44862  0.16761  Biso   1.000  O
  O2       1.0000 0.78456  0.55138  0.83239  Biso   1.000  O
  O3       1.0000 0.33497  0.41890  0.37180  Biso   1.000  O
  O4       1.0000 0.66503  0.58110  0.62820  Biso   1.000  O
  O5       1.0000 0.58529  0.41456  0.18110  Biso   1.000  O
  O6       1.0000 0.41471  0.58544  0.81890  Biso   1.000  O
  O7       1.0000 0.71709  0.50821  0.07012  Biso   1.000  O
  O8       1.0000 0.28291  0.49179  0.92988  Biso   1.000  O
  O9       1.0000 0.80630  0.22560  0.57190  Biso   1.000  O
  O10      1.0000 0.19370  0.77440  0.42810  Biso   1.000  O
  O11      1.0000 0.02850  0.21070  0.61030  Biso   1.000  O
  O12      1.0000 0.97150  0.78930  0.38970  Biso   1.000  O
  O13      1.0000 0.15228  0.86178  0.17234  Biso   1.000  O
  O14      1.0000 0.84772  0.13822  0.82766  Biso   1.000  O
  H1       1.0000 0.72500  0.32700  0.35500  Biso   1.000  H
  H2       1.0000 0.27500  0.67300  0.64500  Biso   1.000  H
  H3       1.0000 0.96400  0.46900  0.15400  Biso   1.000  H
  H4       1.0000 0.03600  0.53100  0.84600  Biso   1.000  H
  H5       1.0000 0.88200  0.71300  0.04800  Biso   1.000  H
  H6       1.0000 0.11800  0.28700  0.95200  Biso   1.000  H
  H7       1.0000 0.14200  0.32100  0.46500  Biso   1.000  H
  H8       1.0000 0.85800  0.67900  0.53500  Biso   1.000  H
  H9       1.0000 0.67700  0.67300  0.30000  Biso   1.000  H
  H10      1.0000 0.32300  0.32700  0.70000  Biso   1.000  H
  H11      1.0000 0.89600  0.10700  0.15300  Biso   1.000  H
  H12      1.0000 0.10400  0.89300  0.84700  Biso   1.000  H
  H13      1.0000 0.27300  0.67400  0.15200  Biso   1.000  H
  H14      1.0000 0.72700  0.32600  0.84800  Biso   1.000  H
  H15      1.0000 0.53300  0.81900  0.91400  Biso   1.000  H
  H16      1.0000 0.46700  0.18100  0.08600  Biso   1.000  H
  H17      1.0000 0.65100  0.05000  0.03200  Biso   1.000  H
  H18      1.0000 0.34900  0.95000  0.96800  Biso   1.000  H
  H19      1.0000 0.74700  0.90500  0.39600  Biso   1.000  H
  H20      1.0000 0.25300  0.09500  0.60400  Biso   1.000  H
  H21      1.0000 0.58600  0.02600  0.38000  Biso   1.000  H
  H22      1.0000 0.41400  0.97400  0.62000  Biso   1.000  H
  H23      1.0000 0.74200  0.25200  0.52900  Biso   1.000  H
  H24      1.0000 0.25800  0.74800  0.47100  Biso   1.000  H
  O15      1.0000 0.56050  0.28810  0.47080  Biso   1.000  O
  O16      1.0000 0.43950  0.71190  0.52920  Biso   1.000  O
  H25      1.0000 0.47200  0.22200  0.41500  Biso   1.000  H
  H26      1.0000 0.52800  0.77800  0.58500  Biso   1.000  H
  H27      1.0000 0.55600  0.35000  0.47800  Biso   1.000  H
  H28      1.0000 0.44400  0.65000  0.52200  Biso   1.000  H
