data_image0
_cell_length_a       10.459
_cell_length_b       10.434
_cell_length_c       6.762
_cell_angle_alpha    71.73
_cell_angle_beta     83.67
_cell_angle_gamma    62.82

_symmetry_space_group_name_H-M    "P 1"
_symmetry_int_tables_number       1

loop_
  _symmetry_equiv_pos_as_xyz
  'x, y, z'

loop_
  _atom_site_label
  _atom_site_occupancy
  _atom_site_fract_x
  _atom_site_fract_y
  _atom_site_fract_z
  _atom_site_thermal_displace_type
  _atom_site_B_iso_or_equiv
  _atom_site_type_symbol
  Cu1      1.0000 0.00000  0.00000  0.00000  Biso   1.000  Cu
  Na1      1.0000 0.59860  0.47000  0.24070  Biso   1.000  Na
  Na2      1.0000 0.40140  0.53000  0.75930  Biso   1.000  Na
  N1       1.0000 0.93410  0.85560  0.99100  Biso   1.000  N
  N2       1.0000 0.06590  0.14440  0.00900  Biso   1.000  N
  C1       1.0000 0.79810  0.91320  0.90000  Biso   1.000  C
  C2       1.0000 0.20190  0.08680  0.10000  Biso   1.000  C
  O1       1.0000 0.73750  0.04580  0.79560  Biso   1.000  O
  O2       1.0000 0.26250  0.95420  0.20440  Biso   1.000  O
  N3       1.0000 0.73780  0.81770  0.93920  Biso   1.000  N
  N4       1.0000 0.26220  0.18230  0.06080  Biso   1.000  N
  C3       1.0000 0.79700  0.67220  0.05400  Biso   1.000  C
  C4       1.0000 0.20300  0.32780  0.94600  Biso   1.000  C
  O3       1.0000 0.74080  0.58950  0.08870  Biso   1.000  O
  O4       1.0000 0.25920  0.41050  0.91130  Biso   1.000  O
  N5       1.0000 0.93680  0.62090  0.13300  Biso   1.000  N
  N6       1.0000 0.06320  0.37910  0.86700  Biso   1.000  N
  C5       1.0000 0.00210  0.71080  0.10400  Biso   1.000  C
  C6       1.0000 0.99790  0.28920  0.89600  Biso   1.000  C
  O5       1.0000 0.12450  0.65930  0.18430  Biso   1.000  O
  O6       1.0000 0.87550  0.34070  0.81570  Biso   1.000  O
  N7       1.0000 0.74370  0.87610  0.41020  Biso   1.000  N
  N8       1.0000 0.25630  0.12390  0.58980  Biso   1.000  N
  C7       1.0000 0.60680  0.93290  0.32500  Biso   1.000  C
  C8       1.0000 0.39320  0.06710  0.67500  Biso   1.000  C
  O7       1.0000 0.54390  0.06520  0.21530  Biso   1.000  O
  O8       1.0000 0.45610  0.93480  0.78470  Biso   1.000  O
  N9       1.0000 0.54360  0.83890  0.36600  Biso   1.000  N
  N10      1.0000 0.45640  0.16110  0.63400  Biso   1.000  N
  C9       1.0000 0.60060  0.69500  0.48400  Biso   1.000  C
  C10      1.0000 0.39940  0.30500  0.51600  Biso   1.000  C
  O9       1.0000 0.54450  0.61130  0.51730  Biso   1.000  O
  O10      1.0000 0.45550  0.38870  0.48270  Biso   1.000  O
  N11      1.0000 0.73760  0.64360  0.57000  Biso   1.000  N
  N12      1.0000 0.26240  0.35640  0.43000  Biso   1.000  N
  C11      1.0000 0.80630  0.73300  0.53100  Biso   1.000  C
  C12      1.0000 0.19370  0.26700  0.46900  Biso   1.000  C
  O11      1.0000 0.93260  0.67420  0.60780  Biso   1.000  O
  O12      1.0000 0.06740  0.32580  0.39220  Biso   1.000  O
  O13      1.0000 0.90020  0.02150  0.25530  Biso   1.000  O
  O14      1.0000 0.09980  0.97850  0.74470  Biso   1.000  O
  O15      1.0000 0.60330  0.33130  0.00340  Biso   1.000  O
  O16      1.0000 0.39670  0.66870  0.99660  Biso   1.000  O
  O17      1.0000 0.81970  0.25540  0.42800  Biso   1.000  O
  O18      1.0000 0.18030  0.74460  0.57200  Biso   1.000  O
  H1       1.0000 0.64300  0.85840  0.87810  Biso   1.000  H
  H2       1.0000 0.35700  0.14160  0.12190  Biso   1.000  H
  H3       1.0000 0.98870  0.51600  0.21040  Biso   1.000  H
  H4       1.0000 0.01130  0.48400  0.78960  Biso   1.000  H
  H5       1.0000 0.44950  0.88030  0.30340  Biso   1.000  H
  H6       1.0000 0.55050  0.11970  0.69660  Biso   1.000  H
  H7       1.0000 0.78510  0.54100  0.66050  Biso   1.000  H
  H8       1.0000 0.21490  0.45900  0.33950  Biso   1.000  H
  H9       1.0000 0.86620  0.11360  0.30990  Biso   1.000  H
  H10      1.0000 0.13380  0.88640  0.69010  Biso   1.000  H
  H11      1.0000 0.82700  0.99530  0.30340  Biso   1.000  H
  H12      1.0000 0.17300  0.00470  0.69660  Biso   1.000  H
  H13      1.0000 0.66720  0.29400  0.90730  Biso   1.000  H
  H14      1.0000 0.33280  0.70600  0.09270  Biso   1.000  H
  H15      1.0000 0.57500  0.24900  0.06400  Biso   1.000  H
  H16      1.0000 0.42500  0.75100  0.93600  Biso   1.000  H
  H17      1.0000 0.83720  0.17750  0.56960  Biso   1.000  H
  H18      1.0000 0.16280  0.82250  0.43040  Biso   1.000  H
  H19      1.0000 0.88740  0.26220  0.44940  Biso   1.000  H
  H20      1.0000 0.11260  0.73780  0.55060  Biso   1.000  H
