data_image0
_cell_length_a       11.5537
_cell_length_b       16.7793
_cell_length_c       10.8908
_cell_angle_alpha    90
_cell_angle_beta     90
_cell_angle_gamma    90

_symmetry_space_group_name_H-M    "P 1"
_symmetry_int_tables_number       1

loop_
  _symmetry_equiv_pos_as_xyz
  'x, y, z'

loop_
  _atom_site_label
  _atom_site_occupancy
  _atom_site_fract_x
  _atom_site_fract_y
  _atom_site_fract_z
  _atom_site_thermal_displace_type
  _atom_site_B_iso_or_equiv
  _atom_site_type_symbol
  Cu1      1.0000 0.17862  0.13534  0.00000  Biso   1.000  Cu
  Cu2      1.0000 0.82138  0.86466  0.00000  Biso   1.000  Cu
  Cu3      1.0000 0.32138  0.63534  0.50000  Biso   1.000  Cu
  Cu4      1.0000 0.67862  0.36466  0.50000  Biso   1.000  Cu
  Cu5      1.0000 0.00000  0.00000  0.86202  Biso   1.000  Cu
  Cu6      1.0000 0.50000  0.50000  0.63798  Biso   1.000  Cu
  Cu7      1.0000 0.00000  0.00000  0.13798  Biso   1.000  Cu
  Cu8      1.0000 0.50000  0.50000  0.36202  Biso   1.000  Cu
  O1       1.0000 0.10160  0.03290  0.00000  Biso   1.000  O
  O2       1.0000 0.89840  0.96710  0.00000  Biso   1.000  O
  O3       1.0000 0.39840  0.53290  0.50000  Biso   1.000  O
  O4       1.0000 0.60160  0.46710  0.50000  Biso   1.000  O
  H1       1.0000 0.16000  0.00300  0.00000  Biso   1.000  H
  H2       1.0000 0.84000  0.99700  0.00000  Biso   1.000  H
  H3       1.0000 0.34000  0.50300  0.50000  Biso   1.000  H
  H4       1.0000 0.66000  0.49700  0.50000  Biso   1.000  H
  S1       1.0000 0.89953  0.17428  0.00000  Biso   1.000  S
  S2       1.0000 0.10047  0.82572  0.00000  Biso   1.000  S
  S3       1.0000 0.60047  0.67428  0.50000  Biso   1.000  S
  S4       1.0000 0.39953  0.32572  0.50000  Biso   1.000  S
  O5       1.0000 0.91410  0.94830  0.72950  Biso   1.000  O
  O6       1.0000 0.08590  0.05170  0.72950  Biso   1.000  O
  O7       1.0000 0.58590  0.44830  0.77050  Biso   1.000  O
  O8       1.0000 0.41410  0.55170  0.77050  Biso   1.000  O
  O9       1.0000 0.08590  0.05170  0.27050  Biso   1.000  O
  O10      1.0000 0.91410  0.94830  0.27050  Biso   1.000  O
  O11      1.0000 0.41410  0.55170  0.22950  Biso   1.000  O
  O12      1.0000 0.58590  0.44830  0.22950  Biso   1.000  O
  O13      1.0000 0.20300  0.13830  0.82490  Biso   1.000  O
  O14      1.0000 0.79700  0.86170  0.82490  Biso   1.000  O
  O15      1.0000 0.29700  0.63830  0.67510  Biso   1.000  O
  O16      1.0000 0.70300  0.36170  0.67510  Biso   1.000  O
  O17      1.0000 0.79700  0.86170  0.17510  Biso   1.000  O
  O18      1.0000 0.20300  0.13830  0.17510  Biso   1.000  O
  O19      1.0000 0.70300  0.36170  0.32490  Biso   1.000  O
  O20      1.0000 0.29700  0.63830  0.32490  Biso   1.000  O
  O21      1.0000 0.87840  0.12980  0.88930  Biso   1.000  O
  O22      1.0000 0.12160  0.87020  0.88930  Biso   1.000  O
  O23      1.0000 0.62160  0.62980  0.61070  Biso   1.000  O
  O24      1.0000 0.37840  0.37020  0.61070  Biso   1.000  O
  O25      1.0000 0.12160  0.87020  0.11070  Biso   1.000  O
  O26      1.0000 0.87840  0.12980  0.11070  Biso   1.000  O
  O27      1.0000 0.37840  0.37020  0.38930  Biso   1.000  O
  O28      1.0000 0.62160  0.62980  0.38930  Biso   1.000  O
  O29      1.0000 0.01370  0.21040  0.00000  Biso   1.000  O
  O30      1.0000 0.98630  0.78960  0.00000  Biso   1.000  O
  O31      1.0000 0.48630  0.71040  0.50000  Biso   1.000  O
  O32      1.0000 0.51370  0.28960  0.50000  Biso   1.000  O
  C1       1.0000 0.65890  0.38950  0.00000  Biso   1.000  C
  C2       1.0000 0.34110  0.61050  0.00000  Biso   1.000  C
  C3       1.0000 0.84110  0.88950  0.50000  Biso   1.000  C
  C4       1.0000 0.15890  0.11050  0.50000  Biso   1.000  C
  H5       1.0000 0.60940  0.43460  0.00000  Biso   1.000  H
  H6       1.0000 0.39060  0.56540  0.00000  Biso   1.000  H
  H7       1.0000 0.89060  0.93460  0.50000  Biso   1.000  H
  H8       1.0000 0.10940  0.06540  0.50000  Biso   1.000  H
  C5       1.0000 0.69470  0.35680  0.88870  Biso   1.000  C
  C6       1.0000 0.30530  0.64320  0.88870  Biso   1.000  C
  C7       1.0000 0.80530  0.85680  0.61130  Biso   1.000  C
  C8       1.0000 0.19470  0.14320  0.61130  Biso   1.000  C
  C9       1.0000 0.30530  0.64320  0.11130  Biso   1.000  C
  C10      1.0000 0.69470  0.35680  0.11130  Biso   1.000  C
  C11      1.0000 0.19470  0.14320  0.38870  Biso   1.000  C
  C12      1.0000 0.80530  0.85680  0.38870  Biso   1.000  C
  C13      1.0000 0.76770  0.29070  0.88930  Biso   1.000  C
  C14      1.0000 0.23230  0.70930  0.88930  Biso   1.000  C
  C15      1.0000 0.73230  0.79070  0.61070  Biso   1.000  C
  C16      1.0000 0.26770  0.20930  0.61070  Biso   1.000  C
  C17      1.0000 0.23230  0.70930  0.11070  Biso   1.000  C
  C18      1.0000 0.76770  0.29070  0.11070  Biso   1.000  C
  C19      1.0000 0.26770  0.20930  0.38930  Biso   1.000  C
  C20      1.0000 0.73230  0.79070  0.38930  Biso   1.000  C
  H9       1.0000 0.79340  0.26840  0.81390  Biso   1.000  H
  H10      1.0000 0.20660  0.73160  0.81390  Biso   1.000  H
  H11      1.0000 0.70660  0.76840  0.68610  Biso   1.000  H
  H12      1.0000 0.29340  0.23160  0.68610  Biso   1.000  H
  H13      1.0000 0.20660  0.73160  0.18610  Biso   1.000  H
  H14      1.0000 0.79340  0.26840  0.18610  Biso   1.000  H
  H15      1.0000 0.29340  0.23160  0.31390  Biso   1.000  H
  H16      1.0000 0.70660  0.76840  0.31390  Biso   1.000  H
  C21      1.0000 0.80300  0.25730  0.00000  Biso   1.000  C
  C22      1.0000 0.19700  0.74270  0.00000  Biso   1.000  C
  C23      1.0000 0.69700  0.75730  0.50000  Biso   1.000  C
  C24      1.0000 0.30300  0.24270  0.50000  Biso   1.000  C
  C25      1.0000 0.84330  0.89250  0.73170  Biso   1.000  C
  C26      1.0000 0.15670  0.10750  0.73170  Biso   1.000  C
  C27      1.0000 0.65670  0.39250  0.76830  Biso   1.000  C
  C28      1.0000 0.34330  0.60750  0.76830  Biso   1.000  C
  C29      1.0000 0.15670  0.10750  0.26830  Biso   1.000  C
  C30      1.0000 0.84330  0.89250  0.26830  Biso   1.000  C
  C31      1.0000 0.34330  0.60750  0.23170  Biso   1.000  C
  C32      1.0000 0.65670  0.39250  0.23170  Biso   1.000  C
  O33      1.0000 0.26540  0.23530  0.00000  Biso   1.000  O
  O34      1.0000 0.73460  0.76470  0.00000  Biso   1.000  O
  O35      1.0000 0.23460  0.73530  0.50000  Biso   1.000  O
  O36      1.0000 0.76540  0.26470  0.50000  Biso   1.000  O
  C33      1.0000 0.23740  0.29130  0.93940  Biso   1.000  C
  C34      1.0000 0.76260  0.70870  0.93940  Biso   1.000  C
  C35      1.0000 0.26260  0.79130  0.56060  Biso   1.000  C
  C36      1.0000 0.73740  0.20870  0.56060  Biso   1.000  C
  C37      1.0000 0.76260  0.70870  0.06060  Biso   1.000  C
  C38      1.0000 0.23740  0.29130  0.06060  Biso   1.000  C
  C39      1.0000 0.73740  0.20870  0.43940  Biso   1.000  C
  C40      1.0000 0.26260  0.79130  0.43940  Biso   1.000  C
  N1       1.0000 0.28010  0.36070  0.95130  Biso   1.000  N
  N2       1.0000 0.71990  0.63930  0.95130  Biso   1.000  N
  N3       1.0000 0.21990  0.86070  0.54870  Biso   1.000  N
  N4       1.0000 0.78010  0.13930  0.54870  Biso   1.000  N
  N5       1.0000 0.71990  0.63930  0.04870  Biso   1.000  N
  N6       1.0000 0.28010  0.36070  0.04870  Biso   1.000  N
  N7       1.0000 0.78010  0.13930  0.45130  Biso   1.000  N
  N8       1.0000 0.21990  0.86070  0.45130  Biso   1.000  N
  C41      1.0000 0.35600  0.37800  0.06500  Biso   1.000  C
  C42      1.0000 0.64400  0.62200  0.06500  Biso   1.000  C
  C43      1.0000 0.14400  0.87800  0.43500  Biso   1.000  C
  C44      1.0000 0.85600  0.12200  0.43500  Biso   1.000  C
  C45      1.0000 0.64400  0.62200  0.93500  Biso   1.000  C
  C46      1.0000 0.35600  0.37800  0.93500  Biso   1.000  C
  C47      1.0000 0.85600  0.12200  0.56500  Biso   1.000  C
  C48      1.0000 0.14400  0.87800  0.56500  Biso   1.000  C
  C49      1.0000 0.30000  0.42600  0.86900  Biso   1.000  C
  C50      1.0000 0.70000  0.57400  0.86900  Biso   1.000  C
  C51      1.0000 0.20000  0.92600  0.63100  Biso   1.000  C
  C52      1.0000 0.80000  0.07400  0.63100  Biso   1.000  C
  C53      1.0000 0.70000  0.57400  0.13100  Biso   1.000  C
  C54      1.0000 0.30000  0.42600  0.13100  Biso   1.000  C
  C55      1.0000 0.80000  0.07400  0.36900  Biso   1.000  C
  C56      1.0000 0.20000  0.92600  0.36900  Biso   1.000  C
  O37      1.0000 0.16960  0.49430  0.50000  Biso   1.000  O
  O38      1.0000 0.83040  0.50570  0.50000  Biso   1.000  O
  O39      1.0000 0.33040  0.99430  0.00000  Biso   1.000  O
  O40      1.0000 0.66960  0.00570  0.00000  Biso   1.000  O
  C57      1.0000 0.12700  0.46980  0.59300  Biso   1.000  C
  C58      1.0000 0.87300  0.53020  0.59300  Biso   1.000  C
  C59      1.0000 0.37300  0.96980  0.90700  Biso   1.000  C
  C60      1.0000 0.62700  0.03020  0.90700  Biso   1.000  C
  C61      1.0000 0.87300  0.53020  0.40700  Biso   1.000  C
  C62      1.0000 0.12700  0.46980  0.40700  Biso   1.000  C
  C63      1.0000 0.62700  0.03020  0.09300  Biso   1.000  C
  C64      1.0000 0.37300  0.96980  0.09300  Biso   1.000  C
  N9       1.0000 0.07780  0.40520  0.61900  Biso   1.000  N
  N10      1.0000 0.92220  0.59480  0.61900  Biso   1.000  N
  N11      1.0000 0.42220  0.90520  0.88100  Biso   1.000  N
  N12      1.0000 0.57780  0.09480  0.88100  Biso   1.000  N
  N13      1.0000 0.92220  0.59480  0.38100  Biso   1.000  N
  N14      1.0000 0.07780  0.40520  0.38100  Biso   1.000  N
  N15      1.0000 0.57780  0.09480  0.11900  Biso   1.000  N
  N16      1.0000 0.42220  0.90520  0.11900  Biso   1.000  N
  C65      1.0000 0.03800  0.36260  0.50000  Biso   1.000  C
  C66      1.0000 0.96200  0.63740  0.50000  Biso   1.000  C
  C67      1.0000 0.46200  0.86260  0.00000  Biso   1.000  C
  C68      1.0000 0.53800  0.13740  0.00000  Biso   1.000  C
  C69      1.0000 0.00600  0.36600  0.70800  Biso   1.000  C
  C70      1.0000 0.99400  0.63400  0.70800  Biso   1.000  C
  C71      1.0000 0.49400  0.86600  0.79200  Biso   1.000  C
  C72      1.0000 0.50600  0.13400  0.79200  Biso   1.000  C
  C73      1.0000 0.99400  0.63400  0.29200  Biso   1.000  C
  C74      1.0000 0.00600  0.36600  0.29200  Biso   1.000  C
  C75      1.0000 0.50600  0.13400  0.20800  Biso   1.000  C
  C76      1.0000 0.49400  0.86600  0.20800  Biso   1.000  C
  O41      1.0000 0.02810  0.47780  0.00000  Biso   1.000  O
  O42      1.0000 0.97190  0.52220  0.00000  Biso   1.000  O
  O43      1.0000 0.47190  0.97780  0.50000  Biso   1.000  O
  O44      1.0000 0.52810  0.02220  0.50000  Biso   1.000  O
  C77      1.0000 0.02500  0.41650  0.94300  Biso   1.000  C
  C78      1.0000 0.97500  0.58350  0.94300  Biso   1.000  C
  C79      1.0000 0.47500  0.91650  0.55700  Biso   1.000  C
  C80      1.0000 0.52500  0.08350  0.55700  Biso   1.000  C
  C81      1.0000 0.97500  0.58350  0.05700  Biso   1.000  C
  C82      1.0000 0.02500  0.41650  0.05700  Biso   1.000  C
  C83      1.0000 0.52500  0.08350  0.44300  Biso   1.000  C
  C84      1.0000 0.47500  0.91650  0.44300  Biso   1.000  C
  N17      1.0000 0.05520  0.41140  0.82850  Biso   1.000  N
  N18      1.0000 0.94480  0.58860  0.82850  Biso   1.000  N
  N19      1.0000 0.44480  0.91140  0.67150  Biso   1.000  N
  N20      1.0000 0.55520  0.08860  0.67150  Biso   1.000  N
  N21      1.0000 0.94480  0.58860  0.17150  Biso   1.000  N
  N22      1.0000 0.05520  0.41140  0.17150  Biso   1.000  N
  N23      1.0000 0.55520  0.08860  0.32850  Biso   1.000  N
  N24      1.0000 0.44480  0.91140  0.32850  Biso   1.000  N
  C85      1.0000 0.18910  0.42500  0.83400  Biso   1.000  C
  C86      1.0000 0.81090  0.57500  0.83400  Biso   1.000  C
  C87      1.0000 0.31090  0.92500  0.66600  Biso   1.000  C
  C88      1.0000 0.68910  0.07500  0.66600  Biso   1.000  C
  C89      1.0000 0.81090  0.57500  0.16600  Biso   1.000  C
  C90      1.0000 0.18910  0.42500  0.16600  Biso   1.000  C
  C91      1.0000 0.68910  0.07500  0.33400  Biso   1.000  C
  C92      1.0000 0.31090  0.92500  0.33400  Biso   1.000  C
  C93      1.0000 0.04900  0.33870  0.75400  Biso   1.000  C
  C94      1.0000 0.95100  0.66130  0.75400  Biso   1.000  C
  C95      1.0000 0.45100  0.83870  0.74600  Biso   1.000  C
  C96      1.0000 0.54900  0.16130  0.74600  Biso   1.000  C
  C97      1.0000 0.95100  0.66130  0.24600  Biso   1.000  C
  C98      1.0000 0.04900  0.33870  0.24600  Biso   1.000  C
  C99      1.0000 0.54900  0.16130  0.25400  Biso   1.000  C
  C100     1.0000 0.45100  0.83870  0.25400  Biso   1.000  C
