data_image0
_cell_length_a       21.4622
_cell_length_b       4.9469
_cell_length_c       15.6955
_cell_angle_alpha    90
_cell_angle_beta     102.591
_cell_angle_gamma    90

_symmetry_space_group_name_H-M    "P 1"
_symmetry_int_tables_number       1

loop_
  _symmetry_equiv_pos_as_xyz
  'x, y, z'

loop_
  _atom_site_label
  _atom_site_occupancy
  _atom_site_fract_x
  _atom_site_fract_y
  _atom_site_fract_z
  _atom_site_thermal_displace_type
  _atom_site_B_iso_or_equiv
  _atom_site_type_symbol
  Cu1      1.0000 0.50000  0.00000  0.50000  Biso   1.000  Cu
  Cu2      1.0000 0.50000  0.00000  0.00000  Biso   1.000  Cu
  Cu3      1.0000 0.00000  0.50000  0.50000  Biso   1.000  Cu
  Cu4      1.0000 0.00000  0.50000  0.00000  Biso   1.000  Cu
  O1       1.0000 0.58478  0.16270  0.51957  Biso   1.000  O
  O2       1.0000 0.41522  0.16270  0.98043  Biso   1.000  O
  O3       1.0000 0.08478  0.66270  0.51957  Biso   1.000  O
  O4       1.0000 0.91522  0.66270  0.98043  Biso   1.000  O
  O5       1.0000 0.41522  0.83730  0.48043  Biso   1.000  O
  O6       1.0000 0.58478  0.83730  0.01957  Biso   1.000  O
  O7       1.0000 0.91522  0.33730  0.48043  Biso   1.000  O
  O8       1.0000 0.08478  0.33730  0.01957  Biso   1.000  O
  O9       1.0000 0.60129  0.88110  0.41612  Biso   1.000  O
  O10      1.0000 0.39871  0.88110  0.08388  Biso   1.000  O
  O11      1.0000 0.10129  0.38110  0.41612  Biso   1.000  O
  O12      1.0000 0.89871  0.38110  0.08388  Biso   1.000  O
  O13      1.0000 0.39871  0.11890  0.58388  Biso   1.000  O
  O14      1.0000 0.60129  0.11890  0.91612  Biso   1.000  O
  O15      1.0000 0.89871  0.61890  0.58388  Biso   1.000  O
  O16      1.0000 0.10129  0.61890  0.91612  Biso   1.000  O
  N1       1.0000 0.46747  0.25040  0.40232  Biso   1.000  N
  N2       1.0000 0.53253  0.25040  0.09768  Biso   1.000  N
  N3       1.0000 0.96747  0.75040  0.40232  Biso   1.000  N
  N4       1.0000 0.03253  0.75040  0.09768  Biso   1.000  N
  N5       1.0000 0.53253  0.74960  0.59768  Biso   1.000  N
  N6       1.0000 0.46747  0.74960  0.90232  Biso   1.000  N
  N7       1.0000 0.03253  0.24960  0.59768  Biso   1.000  N
  N8       1.0000 0.96747  0.24960  0.90232  Biso   1.000  N
  N9       1.0000 0.46984  0.56560  0.30486  Biso   1.000  N
  N10      1.0000 0.53016  0.56560  0.19514  Biso   1.000  N
  N11      1.0000 0.96984  0.06560  0.30486  Biso   1.000  N
  N12      1.0000 0.03016  0.06560  0.19514  Biso   1.000  N
  N13      1.0000 0.53016  0.43440  0.69514  Biso   1.000  N
  N14      1.0000 0.46984  0.43440  0.80486  Biso   1.000  N
  N15      1.0000 0.03016  0.93440  0.69514  Biso   1.000  N
  N16      1.0000 0.96984  0.93440  0.80486  Biso   1.000  N
  C1       1.0000 0.41064  0.24330  0.34011  Biso   1.000  C
  C2       1.0000 0.58936  0.24330  0.15989  Biso   1.000  C
  C3       1.0000 0.91064  0.74330  0.34011  Biso   1.000  C
  C4       1.0000 0.08936  0.74330  0.15989  Biso   1.000  C
  C5       1.0000 0.58936  0.75670  0.65989  Biso   1.000  C
  C6       1.0000 0.41064  0.75670  0.84011  Biso   1.000  C
  C7       1.0000 0.08936  0.25670  0.65989  Biso   1.000  C
  C8       1.0000 0.91064  0.25670  0.84011  Biso   1.000  C
  H1       1.0000 0.37620  0.12260  0.34030  Biso   1.000  H
  H2       1.0000 0.62380  0.12260  0.15970  Biso   1.000  H
  H3       1.0000 0.87620  0.62260  0.34030  Biso   1.000  H
  H4       1.0000 0.12380  0.62260  0.15970  Biso   1.000  H
  H5       1.0000 0.62380  0.87740  0.65970  Biso   1.000  H
  H6       1.0000 0.37620  0.87740  0.84030  Biso   1.000  H
  H7       1.0000 0.12380  0.37740  0.65970  Biso   1.000  H
  H8       1.0000 0.87620  0.37740  0.84030  Biso   1.000  H
  C9       1.0000 0.41191  0.43510  0.27914  Biso   1.000  C
  C10      1.0000 0.58809  0.43510  0.22086  Biso   1.000  C
  C11      1.0000 0.91191  0.93510  0.27914  Biso   1.000  C
  C12      1.0000 0.08809  0.93510  0.22086  Biso   1.000  C
  C13      1.0000 0.58809  0.56490  0.72086  Biso   1.000  C
  C14      1.0000 0.41191  0.56490  0.77914  Biso   1.000  C
  C15      1.0000 0.08809  0.06490  0.72086  Biso   1.000  C
  C16      1.0000 0.91191  0.06490  0.77914  Biso   1.000  C
  H9       1.0000 0.37950  0.47260  0.22880  Biso   1.000  H
  H10      1.0000 0.62050  0.47260  0.27120  Biso   1.000  H
  H11      1.0000 0.87950  0.97260  0.22880  Biso   1.000  H
  H12      1.0000 0.12050  0.97260  0.27120  Biso   1.000  H
  H13      1.0000 0.62050  0.52740  0.77120  Biso   1.000  H
  H14      1.0000 0.37950  0.52740  0.72880  Biso   1.000  H
  H15      1.0000 0.12050  0.02740  0.77120  Biso   1.000  H
  H16      1.0000 0.87950  0.02740  0.72880  Biso   1.000  H
  C17      1.0000 0.50161  0.44600  0.37835  Biso   1.000  C
  C18      1.0000 0.49839  0.44600  0.12165  Biso   1.000  C
  C19      1.0000 0.00161  0.94600  0.37835  Biso   1.000  C
  C20      1.0000 0.99839  0.94600  0.12165  Biso   1.000  C
  C21      1.0000 0.49839  0.55400  0.62165  Biso   1.000  C
  C22      1.0000 0.50161  0.55400  0.87835  Biso   1.000  C
  C23      1.0000 0.99839  0.05400  0.62165  Biso   1.000  C
  C24      1.0000 0.00161  0.05400  0.87835  Biso   1.000  C
  H17      1.0000 0.54320  0.49590  0.40900  Biso   1.000  H
  H18      1.0000 0.45680  0.49590  0.09100  Biso   1.000  H
  H19      1.0000 0.04320  0.99590  0.40900  Biso   1.000  H
  H20      1.0000 0.95680  0.99590  0.09100  Biso   1.000  H
  H21      1.0000 0.45680  0.50410  0.59100  Biso   1.000  H
  H22      1.0000 0.54320  0.50410  0.90900  Biso   1.000  H
  H23      1.0000 0.95680  0.00410  0.59100  Biso   1.000  H
  H24      1.0000 0.04320  0.00410  0.90900  Biso   1.000  H
  C25      1.0000 0.50000  0.73860  0.25000  Biso   1.000  C
  C26      1.0000 0.00000  0.23860  0.25000  Biso   1.000  C
  C27      1.0000 0.50000  0.26140  0.75000  Biso   1.000  C
  C28      1.0000 0.00000  0.76140  0.75000  Biso   1.000  C
  H25      1.0000 0.53240  0.85570  0.28690  Biso   1.000  H
  H26      1.0000 0.46760  0.85570  0.21310  Biso   1.000  H
  H27      1.0000 0.03240  0.35570  0.28690  Biso   1.000  H
  H28      1.0000 0.96760  0.35570  0.21310  Biso   1.000  H
  H29      1.0000 0.46760  0.14430  0.71310  Biso   1.000  H
  H30      1.0000 0.53240  0.14430  0.78690  Biso   1.000  H
  H31      1.0000 0.96760  0.64430  0.71310  Biso   1.000  H
  H32      1.0000 0.03240  0.64430  0.78690  Biso   1.000  H
  C29      1.0000 0.72859  0.05060  0.43856  Biso   1.000  C
  C30      1.0000 0.27141  0.05060  0.06144  Biso   1.000  C
  C31      1.0000 0.22859  0.55060  0.43856  Biso   1.000  C
  C32      1.0000 0.77141  0.55060  0.06144  Biso   1.000  C
  C33      1.0000 0.27141  0.94940  0.56144  Biso   1.000  C
  C34      1.0000 0.72859  0.94940  0.93856  Biso   1.000  C
  C35      1.0000 0.77141  0.44940  0.56144  Biso   1.000  C
  C36      1.0000 0.22859  0.44940  0.93856  Biso   1.000  C
  H33      1.0000 0.71390  0.91470  0.39620  Biso   1.000  H
  H34      1.0000 0.28610  0.91470  0.10380  Biso   1.000  H
  H35      1.0000 0.21390  0.41470  0.39620  Biso   1.000  H
  H36      1.0000 0.78610  0.41470  0.10380  Biso   1.000  H
  H37      1.0000 0.28610  0.08530  0.60380  Biso   1.000  H
  H38      1.0000 0.71390  0.08530  0.89620  Biso   1.000  H
  H39      1.0000 0.78610  0.58530  0.60380  Biso   1.000  H
  H40      1.0000 0.21390  0.58530  0.89620  Biso   1.000  H
  C37      1.0000 0.68740  0.15880  0.48694  Biso   1.000  C
  C38      1.0000 0.31260  0.15880  0.01306  Biso   1.000  C
  C39      1.0000 0.18740  0.65880  0.48694  Biso   1.000  C
  C40      1.0000 0.81260  0.65880  0.01306  Biso   1.000  C
  C41      1.0000 0.31260  0.84120  0.51306  Biso   1.000  C
  C42      1.0000 0.68740  0.84120  0.98694  Biso   1.000  C
  C43      1.0000 0.81260  0.34120  0.51306  Biso   1.000  C
  C44      1.0000 0.18740  0.34120  0.98694  Biso   1.000  C
  C45      1.0000 0.70885  0.35870  0.54766  Biso   1.000  C
  C46      1.0000 0.29115  0.35870  0.95234  Biso   1.000  C
  C47      1.0000 0.20885  0.85870  0.54766  Biso   1.000  C
  C48      1.0000 0.79115  0.85870  0.95234  Biso   1.000  C
  C49      1.0000 0.29115  0.64130  0.45234  Biso   1.000  C
  C50      1.0000 0.70885  0.64130  0.04766  Biso   1.000  C
  C51      1.0000 0.79115  0.14130  0.45234  Biso   1.000  C
  C52      1.0000 0.20885  0.14130  0.04766  Biso   1.000  C
  H41      1.0000 0.68060  0.43440  0.58020  Biso   1.000  H
  H42      1.0000 0.31940  0.43440  0.91980  Biso   1.000  H
  H43      1.0000 0.18060  0.93440  0.58020  Biso   1.000  H
  H44      1.0000 0.81940  0.93440  0.91980  Biso   1.000  H
  H45      1.0000 0.31940  0.56560  0.41980  Biso   1.000  H
  H46      1.0000 0.68060  0.56560  0.08020  Biso   1.000  H
  H47      1.0000 0.81940  0.06560  0.41980  Biso   1.000  H
  H48      1.0000 0.18060  0.06560  0.08020  Biso   1.000  H
  C53      1.0000 0.61966  0.05600  0.47157  Biso   1.000  C
  C54      1.0000 0.38034  0.05600  0.02843  Biso   1.000  C
  C55      1.0000 0.11966  0.55600  0.47157  Biso   1.000  C
  C56      1.0000 0.88034  0.55600  0.02843  Biso   1.000  C
  C57      1.0000 0.38034  0.94400  0.52843  Biso   1.000  C
  C58      1.0000 0.61966  0.94400  0.97157  Biso   1.000  C
  C59      1.0000 0.88034  0.44400  0.52843  Biso   1.000  C
  C60      1.0000 0.11966  0.44400  0.97157  Biso   1.000  C
