data_image0
_cell_length_a       15.363
_cell_length_b       6.0888
_cell_length_c       21.896
_cell_angle_alpha    90
_cell_angle_beta     103.67
_cell_angle_gamma    90

_symmetry_space_group_name_H-M    "P 1"
_symmetry_int_tables_number       1

loop_
  _symmetry_equiv_pos_as_xyz
  'x, y, z'

loop_
  _atom_site_label
  _atom_site_occupancy
  _atom_site_fract_x
  _atom_site_fract_y
  _atom_site_fract_z
  _atom_site_thermal_displace_type
  _atom_site_B_iso_or_equiv
  _atom_site_type_symbol
  Cu1      1.0000 0.00000  0.02668  0.25000  Biso   1.000  Cu
  Cu2      1.0000 0.50000  0.52668  0.25000  Biso   1.000  Cu
  Cu3      1.0000 0.00000  0.97332  0.75000  Biso   1.000  Cu
  Cu4      1.0000 0.50000  0.47332  0.75000  Biso   1.000  Cu
  O1       1.0000 0.91360  0.02710  0.16798  Biso   1.000  O
  O2       1.0000 0.08640  0.02710  0.33202  Biso   1.000  O
  O3       1.0000 0.41360  0.52710  0.16798  Biso   1.000  O
  O4       1.0000 0.58640  0.52710  0.33202  Biso   1.000  O
  O5       1.0000 0.08640  0.97290  0.83202  Biso   1.000  O
  O6       1.0000 0.91360  0.97290  0.66798  Biso   1.000  O
  O7       1.0000 0.58640  0.47290  0.83202  Biso   1.000  O
  O8       1.0000 0.41360  0.47290  0.66798  Biso   1.000  O
  O9       1.0000 0.93090  0.66620  0.15674  Biso   1.000  O
  O10      1.0000 0.06910  0.66620  0.34326  Biso   1.000  O
  O11      1.0000 0.43090  0.16620  0.15674  Biso   1.000  O
  O12      1.0000 0.56910  0.16620  0.34326  Biso   1.000  O
  O13      1.0000 0.06910  0.33380  0.84326  Biso   1.000  O
  O14      1.0000 0.93090  0.33380  0.65674  Biso   1.000  O
  O15      1.0000 0.56910  0.83380  0.84326  Biso   1.000  O
  O16      1.0000 0.43090  0.83380  0.65674  Biso   1.000  O
  O17      1.0000 0.85210  0.67940  0.03254  Biso   1.000  O
  O18      1.0000 0.14790  0.67940  0.46746  Biso   1.000  O
  O19      1.0000 0.35210  0.17940  0.03254  Biso   1.000  O
  O20      1.0000 0.64790  0.17940  0.46746  Biso   1.000  O
  O21      1.0000 0.14790  0.32060  0.96746  Biso   1.000  O
  O22      1.0000 0.85210  0.32060  0.53254  Biso   1.000  O
  O23      1.0000 0.64790  0.82060  0.96746  Biso   1.000  O
  O24      1.0000 0.35210  0.82060  0.53254  Biso   1.000  O
  C1       1.0000 0.90520  0.84730  0.13650  Biso   1.000  C
  C2       1.0000 0.09480  0.84730  0.36350  Biso   1.000  C
  C3       1.0000 0.40520  0.34730  0.13650  Biso   1.000  C
  C4       1.0000 0.59480  0.34730  0.36350  Biso   1.000  C
  C5       1.0000 0.09480  0.15270  0.86350  Biso   1.000  C
  C6       1.0000 0.90520  0.15270  0.63650  Biso   1.000  C
  C7       1.0000 0.59480  0.65270  0.86350  Biso   1.000  C
  C8       1.0000 0.40520  0.65270  0.63650  Biso   1.000  C
  C9       1.0000 0.85940  0.87810  0.06750  Biso   1.000  C
  C10      1.0000 0.14060  0.87810  0.43250  Biso   1.000  C
  C11      1.0000 0.35940  0.37810  0.06750  Biso   1.000  C
  C12      1.0000 0.64060  0.37810  0.43250  Biso   1.000  C
  C13      1.0000 0.14060  0.12190  0.93250  Biso   1.000  C
  C14      1.0000 0.85940  0.12190  0.56750  Biso   1.000  C
  C15      1.0000 0.64060  0.62190  0.93250  Biso   1.000  C
  C16      1.0000 0.35940  0.62190  0.56750  Biso   1.000  C
  H1       1.0000 0.79990  0.93770  0.06430  Biso   1.000  H
  H2       1.0000 0.20010  0.93770  0.43570  Biso   1.000  H
  H3       1.0000 0.29990  0.43770  0.06430  Biso   1.000  H
  H4       1.0000 0.70010  0.43770  0.43570  Biso   1.000  H
  H5       1.0000 0.20010  0.06230  0.93570  Biso   1.000  H
  H6       1.0000 0.79990  0.06230  0.56430  Biso   1.000  H
  H7       1.0000 0.70010  0.56230  0.93570  Biso   1.000  H
  H8       1.0000 0.29990  0.56230  0.56430  Biso   1.000  H
  H9       1.0000 0.89300  0.98400  0.04930  Biso   1.000  H
  H10      1.0000 0.10700  0.98400  0.45070  Biso   1.000  H
  H11      1.0000 0.39300  0.48400  0.04930  Biso   1.000  H
  H12      1.0000 0.60700  0.48400  0.45070  Biso   1.000  H
  H13      1.0000 0.10700  0.01600  0.95070  Biso   1.000  H
  H14      1.0000 0.89300  0.01600  0.54930  Biso   1.000  H
  H15      1.0000 0.60700  0.51600  0.95070  Biso   1.000  H
  H16      1.0000 0.39300  0.51600  0.54930  Biso   1.000  H
  C17      1.0000 0.92850  0.59750  0.01910  Biso   1.000  C
  C18      1.0000 0.07150  0.59750  0.48090  Biso   1.000  C
  C19      1.0000 0.42850  0.09750  0.01910  Biso   1.000  C
  C20      1.0000 0.57150  0.09750  0.48090  Biso   1.000  C
  C21      1.0000 0.07150  0.40250  0.98090  Biso   1.000  C
  C22      1.0000 0.92850  0.40250  0.51910  Biso   1.000  C
  C23      1.0000 0.57150  0.90250  0.98090  Biso   1.000  C
  C24      1.0000 0.42850  0.90250  0.51910  Biso   1.000  C
  C25      1.0000 0.01250  0.68940  0.03440  Biso   1.000  C
  C26      1.0000 0.98750  0.68940  0.46560  Biso   1.000  C
  C27      1.0000 0.51250  0.18940  0.03440  Biso   1.000  C
  C28      1.0000 0.48750  0.18940  0.46560  Biso   1.000  C
  C29      1.0000 0.98750  0.31060  0.96560  Biso   1.000  C
  C30      1.0000 0.01250  0.31060  0.53440  Biso   1.000  C
  C31      1.0000 0.48750  0.81060  0.96560  Biso   1.000  C
  C32      1.0000 0.51250  0.81060  0.53440  Biso   1.000  C
  H17      1.0000 0.02180  0.81820  0.05790  Biso   1.000  H
  H18      1.0000 0.97820  0.81820  0.44210  Biso   1.000  H
  H19      1.0000 0.52180  0.31820  0.05790  Biso   1.000  H
  H20      1.0000 0.47820  0.31820  0.44210  Biso   1.000  H
  H21      1.0000 0.97820  0.18180  0.94210  Biso   1.000  H
  H22      1.0000 0.02180  0.18180  0.55790  Biso   1.000  H
  H23      1.0000 0.47820  0.68180  0.94210  Biso   1.000  H
  H24      1.0000 0.52180  0.68180  0.55790  Biso   1.000  H
  C33      1.0000 0.91760  0.40480  0.98420  Biso   1.000  C
  C34      1.0000 0.08240  0.40480  0.51580  Biso   1.000  C
  C35      1.0000 0.41760  0.90480  0.98420  Biso   1.000  C
  C36      1.0000 0.58240  0.90480  0.51580  Biso   1.000  C
  C37      1.0000 0.08240  0.59520  0.01580  Biso   1.000  C
  C38      1.0000 0.91760  0.59520  0.48420  Biso   1.000  C
  C39      1.0000 0.58240  0.09520  0.01580  Biso   1.000  C
  C40      1.0000 0.41760  0.09520  0.48420  Biso   1.000  C
  H25      1.0000 0.86150  0.33870  0.97340  Biso   1.000  H
  H26      1.0000 0.13850  0.33870  0.52660  Biso   1.000  H
  H27      1.0000 0.36150  0.83870  0.97340  Biso   1.000  H
  H28      1.0000 0.63850  0.83870  0.52660  Biso   1.000  H
  H29      1.0000 0.13850  0.66130  0.02660  Biso   1.000  H
  H30      1.0000 0.86150  0.66130  0.47340  Biso   1.000  H
  H31      1.0000 0.63850  0.16130  0.02660  Biso   1.000  H
  H32      1.0000 0.36150  0.16130  0.47340  Biso   1.000  H
  N1       1.0000 0.09880  0.99110  0.20420  Biso   1.000  N
  N2       1.0000 0.90120  0.99110  0.29580  Biso   1.000  N
  N3       1.0000 0.59880  0.49110  0.20420  Biso   1.000  N
  N4       1.0000 0.40120  0.49110  0.29580  Biso   1.000  N
  N5       1.0000 0.90120  0.00890  0.79580  Biso   1.000  N
  N6       1.0000 0.09880  0.00890  0.70420  Biso   1.000  N
  N7       1.0000 0.40120  0.50890  0.79580  Biso   1.000  N
  N8       1.0000 0.59880  0.50890  0.70420  Biso   1.000  N
  C41      1.0000 0.15650  0.82410  0.21560  Biso   1.000  C
  C42      1.0000 0.84350  0.82410  0.28440  Biso   1.000  C
  C43      1.0000 0.65650  0.32410  0.21560  Biso   1.000  C
  C44      1.0000 0.34350  0.32410  0.28440  Biso   1.000  C
  C45      1.0000 0.84350  0.17590  0.78440  Biso   1.000  C
  C46      1.0000 0.15650  0.17590  0.71560  Biso   1.000  C
  C47      1.0000 0.34350  0.67590  0.78440  Biso   1.000  C
  C48      1.0000 0.65650  0.67590  0.71560  Biso   1.000  C
  H33      1.0000 0.15120  0.72280  0.24630  Biso   1.000  H
  H34      1.0000 0.84880  0.72280  0.25370  Biso   1.000  H
  H35      1.0000 0.65120  0.22280  0.24630  Biso   1.000  H
  H36      1.0000 0.34880  0.22280  0.25370  Biso   1.000  H
  H37      1.0000 0.84880  0.27720  0.75370  Biso   1.000  H
  H38      1.0000 0.15120  0.27720  0.74630  Biso   1.000  H
  H39      1.0000 0.34880  0.77720  0.75370  Biso   1.000  H
  H40      1.0000 0.65120  0.77720  0.74630  Biso   1.000  H
  C49      1.0000 0.22260  0.79390  0.18470  Biso   1.000  C
  C50      1.0000 0.77740  0.79390  0.31530  Biso   1.000  C
  C51      1.0000 0.72260  0.29390  0.18470  Biso   1.000  C
  C52      1.0000 0.27740  0.29390  0.31530  Biso   1.000  C
  C53      1.0000 0.77740  0.20610  0.81530  Biso   1.000  C
  C54      1.0000 0.22260  0.20610  0.68470  Biso   1.000  C
  C55      1.0000 0.27740  0.70610  0.81530  Biso   1.000  C
  C56      1.0000 0.72260  0.70610  0.68470  Biso   1.000  C
  H41      1.0000 0.26050  0.67310  0.19370  Biso   1.000  H
  H42      1.0000 0.73950  0.67310  0.30630  Biso   1.000  H
  H43      1.0000 0.76050  0.17310  0.19370  Biso   1.000  H
  H44      1.0000 0.23950  0.17310  0.30630  Biso   1.000  H
  H45      1.0000 0.73950  0.32690  0.80630  Biso   1.000  H
  H46      1.0000 0.26050  0.32690  0.69370  Biso   1.000  H
  H47      1.0000 0.23950  0.82690  0.80630  Biso   1.000  H
  H48      1.0000 0.76050  0.82690  0.69370  Biso   1.000  H
  C57      1.0000 0.23270  0.94170  0.14050  Biso   1.000  C
  C58      1.0000 0.76730  0.94170  0.35950  Biso   1.000  C
  C59      1.0000 0.73270  0.44170  0.14050  Biso   1.000  C
  C60      1.0000 0.26730  0.44170  0.35950  Biso   1.000  C
  C61      1.0000 0.76730  0.05830  0.85950  Biso   1.000  C
  C62      1.0000 0.23270  0.05830  0.64050  Biso   1.000  C
  C63      1.0000 0.26730  0.55830  0.85950  Biso   1.000  C
  C64      1.0000 0.73270  0.55830  0.64050  Biso   1.000  C
  H49      1.0000 0.27870  0.92700  0.11980  Biso   1.000  H
  H50      1.0000 0.72130  0.92700  0.38020  Biso   1.000  H
  H51      1.0000 0.77870  0.42700  0.11980  Biso   1.000  H
  H52      1.0000 0.22130  0.42700  0.38020  Biso   1.000  H
  H53      1.0000 0.72130  0.07300  0.88020  Biso   1.000  H
  H54      1.0000 0.27870  0.07300  0.61980  Biso   1.000  H
  H55      1.0000 0.22130  0.57300  0.88020  Biso   1.000  H
  H56      1.0000 0.77870  0.57300  0.61980  Biso   1.000  H
  C65      1.0000 0.17320  0.11400  0.12710  Biso   1.000  C
  C66      1.0000 0.82680  0.11400  0.37290  Biso   1.000  C
  C67      1.0000 0.67320  0.61400  0.12710  Biso   1.000  C
  C68      1.0000 0.32680  0.61400  0.37290  Biso   1.000  C
  C69      1.0000 0.82680  0.88600  0.87290  Biso   1.000  C
  C70      1.0000 0.17320  0.88600  0.62710  Biso   1.000  C
  C71      1.0000 0.32680  0.38600  0.87290  Biso   1.000  C
  C72      1.0000 0.67320  0.38600  0.62710  Biso   1.000  C
  H57      1.0000 0.17710  0.21560  0.09620  Biso   1.000  H
  H58      1.0000 0.82290  0.21560  0.40380  Biso   1.000  H
  H59      1.0000 0.67710  0.71560  0.09620  Biso   1.000  H
  H60      1.0000 0.32290  0.71560  0.40380  Biso   1.000  H
  H61      1.0000 0.82290  0.78440  0.90380  Biso   1.000  H
  H62      1.0000 0.17710  0.78440  0.59620  Biso   1.000  H
  H63      1.0000 0.32290  0.28440  0.90380  Biso   1.000  H
  H64      1.0000 0.67710  0.28440  0.59620  Biso   1.000  H
  C73      1.0000 0.10860  0.13330  0.15980  Biso   1.000  C
  C74      1.0000 0.89140  0.13330  0.34020  Biso   1.000  C
  C75      1.0000 0.60860  0.63330  0.15980  Biso   1.000  C
  C76      1.0000 0.39140  0.63330  0.34020  Biso   1.000  C
  C77      1.0000 0.89140  0.86670  0.84020  Biso   1.000  C
  C78      1.0000 0.10860  0.86670  0.65980  Biso   1.000  C
  C79      1.0000 0.39140  0.36670  0.84020  Biso   1.000  C
  C80      1.0000 0.60860  0.36670  0.65980  Biso   1.000  C
  H65      1.0000 0.06930  0.25140  0.15080  Biso   1.000  H
  H66      1.0000 0.93070  0.25140  0.34920  Biso   1.000  H
  H67      1.0000 0.56930  0.75140  0.15080  Biso   1.000  H
  H68      1.0000 0.43070  0.75140  0.34920  Biso   1.000  H
  H69      1.0000 0.93070  0.74860  0.84920  Biso   1.000  H
  H70      1.0000 0.06930  0.74860  0.65080  Biso   1.000  H
  H71      1.0000 0.43070  0.24860  0.84920  Biso   1.000  H
  H72      1.0000 0.56930  0.24860  0.65080  Biso   1.000  H
  O25      1.0000 0.00000  0.38670  0.25000  Biso   1.000  O
  O26      1.0000 0.50000  0.88670  0.25000  Biso   1.000  O
  O27      1.0000 0.00000  0.61330  0.75000  Biso   1.000  O
  O28      1.0000 0.50000  0.11330  0.75000  Biso   1.000  O
  H73      1.0000 0.02300  0.46300  0.28000  Biso   1.000  H
  H74      1.0000 0.97700  0.46300  0.22000  Biso   1.000  H
  H75      1.0000 0.52300  0.96300  0.28000  Biso   1.000  H
  H76      1.0000 0.47700  0.96300  0.22000  Biso   1.000  H
  H77      1.0000 0.97700  0.53700  0.72000  Biso   1.000  H
  H78      1.0000 0.02300  0.53700  0.78000  Biso   1.000  H
  H79      1.0000 0.47700  0.03700  0.72000  Biso   1.000  H
  H80      1.0000 0.52300  0.03700  0.78000  Biso   1.000  H
