data_image0
_cell_length_a       13.328
_cell_length_b       17.1434
_cell_length_c       10.739
_cell_angle_alpha    90
_cell_angle_beta     108.481
_cell_angle_gamma    90

_symmetry_space_group_name_H-M    "P 1"
_symmetry_int_tables_number       1

loop_
  _symmetry_equiv_pos_as_xyz
  'x, y, z'

loop_
  _atom_site_label
  _atom_site_occupancy
  _atom_site_fract_x
  _atom_site_fract_y
  _atom_site_fract_z
  _atom_site_thermal_displace_type
  _atom_site_B_iso_or_equiv
  _atom_site_type_symbol
  Cu1      1.0000 0.00000  0.00000  0.00000  Biso   1.000  Cu
  Cu2      1.0000 0.00000  0.00000  0.50000  Biso   1.000  Cu
  Cu3      1.0000 0.50000  0.50000  0.00000  Biso   1.000  Cu
  Cu4      1.0000 0.50000  0.50000  0.50000  Biso   1.000  Cu
  O1       1.0000 0.07772  0.07930  0.93097  Biso   1.000  O
  O2       1.0000 0.92228  0.07930  0.56903  Biso   1.000  O
  O3       1.0000 0.57772  0.57930  0.93097  Biso   1.000  O
  O4       1.0000 0.42228  0.57930  0.56903  Biso   1.000  O
  O5       1.0000 0.92228  0.92070  0.06903  Biso   1.000  O
  O6       1.0000 0.07772  0.92070  0.43097  Biso   1.000  O
  O7       1.0000 0.42228  0.42070  0.06903  Biso   1.000  O
  O8       1.0000 0.57772  0.42070  0.43097  Biso   1.000  O
  N1       1.0000 0.87284  0.06855  0.95546  Biso   1.000  N
  N2       1.0000 0.12716  0.06855  0.54454  Biso   1.000  N
  N3       1.0000 0.37284  0.56855  0.95546  Biso   1.000  N
  N4       1.0000 0.62716  0.56855  0.54454  Biso   1.000  N
  N5       1.0000 0.12716  0.93145  0.04454  Biso   1.000  N
  N6       1.0000 0.87284  0.93145  0.45546  Biso   1.000  N
  N7       1.0000 0.62716  0.43145  0.04454  Biso   1.000  N
  N8       1.0000 0.37284  0.43145  0.45546  Biso   1.000  N
  O9       1.0000 0.10913  0.10867  0.14011  Biso   1.000  O
  O10      1.0000 0.89087  0.10867  0.35989  Biso   1.000  O
  O11      1.0000 0.60913  0.60867  0.14011  Biso   1.000  O
  O12      1.0000 0.39087  0.60867  0.35989  Biso   1.000  O
  O13      1.0000 0.89087  0.89133  0.85989  Biso   1.000  O
  O14      1.0000 0.10913  0.89133  0.64011  Biso   1.000  O
  O15      1.0000 0.39087  0.39133  0.85989  Biso   1.000  O
  O16      1.0000 0.60913  0.39133  0.64011  Biso   1.000  O
  C1       1.0000 0.12054  0.12134  0.03160  Biso   1.000  C
  C2       1.0000 0.87946  0.12134  0.46840  Biso   1.000  C
  C3       1.0000 0.62054  0.62134  0.03160  Biso   1.000  C
  C4       1.0000 0.37946  0.62134  0.46840  Biso   1.000  C
  C5       1.0000 0.87946  0.87866  0.96840  Biso   1.000  C
  C6       1.0000 0.12054  0.87866  0.53160  Biso   1.000  C
  C7       1.0000 0.37946  0.37866  0.96840  Biso   1.000  C
  C8       1.0000 0.62054  0.37866  0.53160  Biso   1.000  C
  C9       1.0000 0.18792  0.18884  0.01433  Biso   1.000  C
  C10      1.0000 0.81208  0.18884  0.48567  Biso   1.000  C
  C11      1.0000 0.68792  0.68884  0.01433  Biso   1.000  C
  C12      1.0000 0.31208  0.68884  0.48567  Biso   1.000  C
  C13      1.0000 0.81208  0.81116  0.98567  Biso   1.000  C
  C14      1.0000 0.18792  0.81116  0.51433  Biso   1.000  C
  C15      1.0000 0.31208  0.31116  0.98567  Biso   1.000  C
  C16      1.0000 0.68792  0.31116  0.51433  Biso   1.000  C
  C17      1.0000 0.13967  0.25988  0.96765  Biso   1.000  C
  C18      1.0000 0.86033  0.25988  0.53235  Biso   1.000  C
  C19      1.0000 0.63967  0.75988  0.96765  Biso   1.000  C
  C20      1.0000 0.36033  0.75988  0.53235  Biso   1.000  C
  C21      1.0000 0.86033  0.74012  0.03235  Biso   1.000  C
  C22      1.0000 0.13967  0.74012  0.46765  Biso   1.000  C
  C23      1.0000 0.36033  0.24012  0.03235  Biso   1.000  C
  C24      1.0000 0.63967  0.24012  0.46765  Biso   1.000  C
  C25      1.0000 0.29738  0.17762  0.04732  Biso   1.000  C
  C26      1.0000 0.70262  0.17762  0.45268  Biso   1.000  C
  C27      1.0000 0.79738  0.67762  0.04732  Biso   1.000  C
  C28      1.0000 0.20262  0.67762  0.45268  Biso   1.000  C
  C29      1.0000 0.70262  0.82238  0.95268  Biso   1.000  C
  C30      1.0000 0.29738  0.82238  0.54732  Biso   1.000  C
  C31      1.0000 0.20262  0.32238  0.95268  Biso   1.000  C
  C32      1.0000 0.79738  0.32238  0.54732  Biso   1.000  C
  C33      1.0000 0.82624  0.08364  0.04630  Biso   1.000  C
  C34      1.0000 0.17376  0.08364  0.45370  Biso   1.000  C
  C35      1.0000 0.32624  0.58364  0.04630  Biso   1.000  C
  C36      1.0000 0.67376  0.58364  0.45370  Biso   1.000  C
  C37      1.0000 0.17376  0.91636  0.95370  Biso   1.000  C
  C38      1.0000 0.82624  0.91636  0.54630  Biso   1.000  C
  C39      1.0000 0.67376  0.41636  0.95370  Biso   1.000  C
  C40      1.0000 0.32624  0.41636  0.54630  Biso   1.000  C
  H1       1.0000 0.85450  0.06190  0.12940  Biso   1.000  H
  H2       1.0000 0.14550  0.06190  0.37060  Biso   1.000  H
  H3       1.0000 0.35450  0.56190  0.12940  Biso   1.000  H
  H4       1.0000 0.64550  0.56190  0.37060  Biso   1.000  H
  H5       1.0000 0.14550  0.93810  0.87060  Biso   1.000  H
  H6       1.0000 0.85450  0.93810  0.62940  Biso   1.000  H
  H7       1.0000 0.64550  0.43810  0.87060  Biso   1.000  H
  H8       1.0000 0.35450  0.43810  0.62940  Biso   1.000  H
  C41      1.0000 0.83253  0.10076  0.83650  Biso   1.000  C
  C42      1.0000 0.16747  0.10076  0.66350  Biso   1.000  C
  C43      1.0000 0.33253  0.60076  0.83650  Biso   1.000  C
  C44      1.0000 0.66747  0.60076  0.66350  Biso   1.000  C
  C45      1.0000 0.16747  0.89924  0.16350  Biso   1.000  C
  C46      1.0000 0.83253  0.89924  0.33650  Biso   1.000  C
  C47      1.0000 0.66747  0.39924  0.16350  Biso   1.000  C
  C48      1.0000 0.33253  0.39924  0.33650  Biso   1.000  C
  H9       1.0000 0.86480  0.09100  0.77300  Biso   1.000  H
  H10      1.0000 0.13520  0.09100  0.72700  Biso   1.000  H
  H11      1.0000 0.36480  0.59100  0.77300  Biso   1.000  H
  H12      1.0000 0.63520  0.59100  0.72700  Biso   1.000  H
  H13      1.0000 0.13520  0.90900  0.22700  Biso   1.000  H
  H14      1.0000 0.86480  0.90900  0.27300  Biso   1.000  H
  H15      1.0000 0.63520  0.40900  0.22700  Biso   1.000  H
  H16      1.0000 0.36480  0.40900  0.27300  Biso   1.000  H
  C49      1.0000 0.02162  0.26957  0.93760  Biso   1.000  C
  C50      1.0000 0.97838  0.26957  0.56240  Biso   1.000  C
  C51      1.0000 0.52162  0.76957  0.93760  Biso   1.000  C
  C52      1.0000 0.47838  0.76957  0.56240  Biso   1.000  C
  C53      1.0000 0.97838  0.73043  0.06240  Biso   1.000  C
  C54      1.0000 0.02162  0.73043  0.43760  Biso   1.000  C
  C55      1.0000 0.47838  0.23043  0.06240  Biso   1.000  C
  C56      1.0000 0.52162  0.23043  0.43760  Biso   1.000  C
  H17      1.0000 0.99150  0.22130  0.95380  Biso   1.000  H
  H18      1.0000 0.00850  0.22130  0.54620  Biso   1.000  H
  H19      1.0000 0.49150  0.72130  0.95380  Biso   1.000  H
  H20      1.0000 0.50850  0.72130  0.54620  Biso   1.000  H
  H21      1.0000 0.00850  0.77870  0.04620  Biso   1.000  H
  H22      1.0000 0.99150  0.77870  0.45380  Biso   1.000  H
  H23      1.0000 0.50850  0.27870  0.04620  Biso   1.000  H
  H24      1.0000 0.49150  0.27870  0.45380  Biso   1.000  H
  H25      1.0000 0.99030  0.28400  0.84720  Biso   1.000  H
  H26      1.0000 0.00970  0.28400  0.65280  Biso   1.000  H
  H27      1.0000 0.49030  0.78400  0.84720  Biso   1.000  H
  H28      1.0000 0.50970  0.78400  0.65280  Biso   1.000  H
  H29      1.0000 0.00970  0.71600  0.15280  Biso   1.000  H
  H30      1.0000 0.99030  0.71600  0.34720  Biso   1.000  H
  H31      1.0000 0.50970  0.21600  0.15280  Biso   1.000  H
  H32      1.0000 0.49030  0.21600  0.34720  Biso   1.000  H
  H33      1.0000 0.00810  0.30960  0.99270  Biso   1.000  H
  H34      1.0000 0.99190  0.30960  0.50730  Biso   1.000  H
  H35      1.0000 0.50810  0.80960  0.99270  Biso   1.000  H
  H36      1.0000 0.49190  0.80960  0.50730  Biso   1.000  H
  H37      1.0000 0.99190  0.69040  0.00730  Biso   1.000  H
  H38      1.0000 0.00810  0.69040  0.49270  Biso   1.000  H
  H39      1.0000 0.49190  0.19040  0.00730  Biso   1.000  H
  H40      1.0000 0.50810  0.19040  0.49270  Biso   1.000  H
  C57      1.0000 0.34512  0.09915  0.09560  Biso   1.000  C
  C58      1.0000 0.65488  0.09915  0.40440  Biso   1.000  C
  C59      1.0000 0.84512  0.59915  0.09560  Biso   1.000  C
  C60      1.0000 0.15488  0.59915  0.40440  Biso   1.000  C
  C61      1.0000 0.65488  0.90085  0.90440  Biso   1.000  C
  C62      1.0000 0.34512  0.90085  0.59560  Biso   1.000  C
  C63      1.0000 0.15488  0.40085  0.90440  Biso   1.000  C
  C64      1.0000 0.84512  0.40085  0.59560  Biso   1.000  C
  H41      1.0000 0.29040  0.06400  0.10010  Biso   1.000  H
  H42      1.0000 0.70960  0.06400  0.39990  Biso   1.000  H
  H43      1.0000 0.79040  0.56400  0.10010  Biso   1.000  H
  H44      1.0000 0.20960  0.56400  0.39990  Biso   1.000  H
  H45      1.0000 0.70960  0.93600  0.89990  Biso   1.000  H
  H46      1.0000 0.29040  0.93600  0.60010  Biso   1.000  H
  H47      1.0000 0.20960  0.43600  0.89990  Biso   1.000  H
  H48      1.0000 0.79040  0.43600  0.60010  Biso   1.000  H
  H49      1.0000 0.39610  0.10480  0.18130  Biso   1.000  H
  H50      1.0000 0.60390  0.10480  0.31870  Biso   1.000  H
  H51      1.0000 0.89610  0.60480  0.18130  Biso   1.000  H
  H52      1.0000 0.10390  0.60480  0.31870  Biso   1.000  H
  H53      1.0000 0.60390  0.89520  0.81870  Biso   1.000  H
  H54      1.0000 0.39610  0.89520  0.68130  Biso   1.000  H
  H55      1.0000 0.10390  0.39520  0.81870  Biso   1.000  H
  H56      1.0000 0.89610  0.39520  0.68130  Biso   1.000  H
  H57      1.0000 0.37930  0.07880  0.03610  Biso   1.000  H
  H58      1.0000 0.62070  0.07880  0.46390  Biso   1.000  H
  H59      1.0000 0.87930  0.57880  0.03610  Biso   1.000  H
  H60      1.0000 0.12070  0.57880  0.46390  Biso   1.000  H
  H61      1.0000 0.62070  0.92120  0.96390  Biso   1.000  H
  H62      1.0000 0.37930  0.92120  0.53610  Biso   1.000  H
  H63      1.0000 0.12070  0.42120  0.96390  Biso   1.000  H
  H64      1.0000 0.87930  0.42120  0.53610  Biso   1.000  H
  C65      1.0000 0.69640  0.16249  0.89980  Biso   1.000  C
  C66      1.0000 0.30360  0.16249  0.60020  Biso   1.000  C
  C67      1.0000 0.19640  0.66249  0.89980  Biso   1.000  C
  C68      1.0000 0.80360  0.66249  0.60020  Biso   1.000  C
  C69      1.0000 0.30360  0.83751  0.10020  Biso   1.000  C
  C70      1.0000 0.69640  0.83751  0.39980  Biso   1.000  C
  C71      1.0000 0.80360  0.33751  0.10020  Biso   1.000  C
  C72      1.0000 0.19640  0.33751  0.39980  Biso   1.000  C
  H65      1.0000 0.63640  0.19380  0.88070  Biso   1.000  H
  H66      1.0000 0.36360  0.19380  0.61930  Biso   1.000  H
  H67      1.0000 0.13640  0.69380  0.88070  Biso   1.000  H
  H68      1.0000 0.86360  0.69380  0.61930  Biso   1.000  H
  H69      1.0000 0.36360  0.80620  0.11930  Biso   1.000  H
  H70      1.0000 0.63640  0.80620  0.38070  Biso   1.000  H
  H71      1.0000 0.86360  0.30620  0.11930  Biso   1.000  H
  H72      1.0000 0.13640  0.30620  0.38070  Biso   1.000  H
  C73      1.0000 0.73810  0.13013  0.02100  Biso   1.000  C
  C74      1.0000 0.26190  0.13013  0.47900  Biso   1.000  C
  C75      1.0000 0.23810  0.63013  0.02100  Biso   1.000  C
  C76      1.0000 0.76190  0.63013  0.47900  Biso   1.000  C
  C77      1.0000 0.26190  0.86987  0.97900  Biso   1.000  C
  C78      1.0000 0.73810  0.86987  0.52100  Biso   1.000  C
  C79      1.0000 0.76190  0.36987  0.97900  Biso   1.000  C
  C80      1.0000 0.23810  0.36987  0.52100  Biso   1.000  C
  H73      1.0000 0.70720  0.13940  0.08610  Biso   1.000  H
  H74      1.0000 0.29280  0.13940  0.41390  Biso   1.000  H
  H75      1.0000 0.20720  0.63940  0.08610  Biso   1.000  H
  H76      1.0000 0.79280  0.63940  0.41390  Biso   1.000  H
  H77      1.0000 0.29280  0.86060  0.91390  Biso   1.000  H
  H78      1.0000 0.70720  0.86060  0.58610  Biso   1.000  H
  H79      1.0000 0.79280  0.36060  0.91390  Biso   1.000  H
  H80      1.0000 0.20720  0.36060  0.58610  Biso   1.000  H
  C81      1.0000 0.74440  0.14817  0.80580  Biso   1.000  C
  C82      1.0000 0.25560  0.14817  0.69420  Biso   1.000  C
  C83      1.0000 0.24440  0.64817  0.80580  Biso   1.000  C
  C84      1.0000 0.75560  0.64817  0.69420  Biso   1.000  C
  C85      1.0000 0.25560  0.85183  0.19420  Biso   1.000  C
  C86      1.0000 0.74440  0.85183  0.30580  Biso   1.000  C
  C87      1.0000 0.75560  0.35183  0.19420  Biso   1.000  C
  C88      1.0000 0.24440  0.35183  0.30580  Biso   1.000  C
  H81      1.0000 0.71770  0.17020  0.72260  Biso   1.000  H
  H82      1.0000 0.28230  0.17020  0.77740  Biso   1.000  H
  H83      1.0000 0.21770  0.67020  0.72260  Biso   1.000  H
  H84      1.0000 0.78230  0.67020  0.77740  Biso   1.000  H
  H85      1.0000 0.28230  0.82980  0.27740  Biso   1.000  H
  H86      1.0000 0.71770  0.82980  0.22260  Biso   1.000  H
  H87      1.0000 0.78230  0.32980  0.27740  Biso   1.000  H
  H88      1.0000 0.21770  0.32980  0.22260  Biso   1.000  H
  O17      1.0000 0.00000  0.21858  0.25000  Biso   1.000  O
  O18      1.0000 0.50000  0.71858  0.25000  Biso   1.000  O
  O19      1.0000 0.00000  0.78142  0.75000  Biso   1.000  O
  O20      1.0000 0.50000  0.28142  0.75000  Biso   1.000  O
  H89      1.0000 0.04000  0.18610  0.21600  Biso   1.000  H
  H90      1.0000 0.96000  0.18610  0.28400  Biso   1.000  H
  H91      1.0000 0.54000  0.68610  0.21600  Biso   1.000  H
  H92      1.0000 0.46000  0.68610  0.28400  Biso   1.000  H
  H93      1.0000 0.96000  0.81390  0.78400  Biso   1.000  H
  H94      1.0000 0.04000  0.81390  0.71600  Biso   1.000  H
  H95      1.0000 0.46000  0.31390  0.78400  Biso   1.000  H
  H96      1.0000 0.54000  0.31390  0.71600  Biso   1.000  H
