data_image0
_cell_length_a       8.6142
_cell_length_b       9.0554
_cell_length_c       12.1094
_cell_angle_alpha    99.688
_cell_angle_beta     106.542
_cell_angle_gamma    98.184

_symmetry_space_group_name_H-M    "P 1"
_symmetry_int_tables_number       1

loop_
  _symmetry_equiv_pos_as_xyz
  'x, y, z'

loop_
  _atom_site_label
  _atom_site_occupancy
  _atom_site_fract_x
  _atom_site_fract_y
  _atom_site_fract_z
  _atom_site_thermal_displace_type
  _atom_site_B_iso_or_equiv
  _atom_site_type_symbol
  Cu1      1.0000 0.32660  0.82971  0.58802  Biso   1.000  Cu
  Cu2      1.0000 0.67340  0.17029  0.41198  Biso   1.000  Cu
  P1       1.0000 0.32369  0.03977  0.85348  Biso   1.000  P
  P2       1.0000 0.67631  0.96023  0.14652  Biso   1.000  P
  P3       1.0000 0.66351  0.05190  0.64714  Biso   1.000  P
  P4       1.0000 0.33649  0.94810  0.35286  Biso   1.000  P
  O1       1.0000 0.31787  0.03279  0.72590  Biso   1.000  O
  O2       1.0000 0.68213  0.96721  0.27410  Biso   1.000  O
  O3       1.0000 0.33003  0.88390  0.88644  Biso   1.000  O
  O4       1.0000 0.66997  0.11610  0.11356  Biso   1.000  O
  H1       1.0000 0.37200  0.89690  0.95990  Biso   1.000  H
  H2       1.0000 0.62800  0.10310  0.04010  Biso   1.000  H
  O5       1.0000 0.46333  0.16671  0.94061  Biso   1.000  O
  O6       1.0000 0.53667  0.83329  0.05939  Biso   1.000  O
  O7       1.0000 0.56398  0.89210  0.62759  Biso   1.000  O
  O8       1.0000 0.43602  0.10790  0.37241  Biso   1.000  O
  O9       1.0000 0.55920  0.17467  0.67394  Biso   1.000  O
  O10      1.0000 0.44080  0.82533  0.32606  Biso   1.000  O
  H3       1.0000 0.48190  0.13480  0.69560  Biso   1.000  H
  H4       1.0000 0.51810  0.86520  0.30440  Biso   1.000  H
  O11      1.0000 0.73089  0.08135  0.54895  Biso   1.000  O
  O12      1.0000 0.26911  0.91865  0.45105  Biso   1.000  O
  N1       1.0000 0.08640  0.74100  0.55889  Biso   1.000  N
  N2       1.0000 0.91360  0.25900  0.44111  Biso   1.000  N
  N3       1.0000 0.35700  0.67200  0.68729  Biso   1.000  N
  N4       1.0000 0.64300  0.32800  0.31271  Biso   1.000  N
  C1       1.0000 0.13220  0.08720  0.86658  Biso   1.000  C
  C2       1.0000 0.86780  0.91280  0.13342  Biso   1.000  C
  C3       1.0000 0.98950  0.05040  0.76856  Biso   1.000  C
  C4       1.0000 0.01050  0.94960  0.23144  Biso   1.000  C
  H5       1.0000 0.99380  0.00020  0.69430  Biso   1.000  H
  H6       1.0000 0.00620  0.99980  0.30570  Biso   1.000  H
  C5       1.0000 0.84040  0.08640  0.77792  Biso   1.000  C
  C6       1.0000 0.15960  0.91360  0.22208  Biso   1.000  C
  C7       1.0000 0.83330  0.15710  0.88791  Biso   1.000  C
  C8       1.0000 0.16670  0.84290  0.11209  Biso   1.000  C
  H7       1.0000 0.73220  0.18080  0.89530  Biso   1.000  H
  H8       1.0000 0.26780  0.81920  0.10470  Biso   1.000  H
  C9       1.0000 0.97510  0.19300  0.98692  Biso   1.000  C
  C10      1.0000 0.02490  0.80700  0.01308  Biso   1.000  C
  H9       1.0000 0.97020  0.24040  0.06170  Biso   1.000  H
  H10      1.0000 0.02980  0.75960  0.93830  Biso   1.000  H
  C11      1.0000 0.12350  0.15920  0.97584  Biso   1.000  C
  C12      1.0000 0.87650  0.84080  0.02416  Biso   1.000  C
  H11      1.0000 0.21980  0.18530  0.04310  Biso   1.000  H
  H12      1.0000 0.78020  0.81470  0.95690  Biso   1.000  H
  C13      1.0000 0.95260  0.77730  0.49048  Biso   1.000  C
  C14      1.0000 0.04740  0.22270  0.50952  Biso   1.000  C
  H13      1.0000 0.96600  0.84470  0.44010  Biso   1.000  H
  H14      1.0000 0.03400  0.15530  0.55990  Biso   1.000  H
  C15      1.0000 0.79240  0.71900  0.49042  Biso   1.000  C
  C16      1.0000 0.20760  0.28100  0.50958  Biso   1.000  C
  H15      1.0000 0.69930  0.74710  0.44080  Biso   1.000  H
  H16      1.0000 0.30070  0.25290  0.55920  Biso   1.000  H
  C17      1.0000 0.77140  0.62100  0.56286  Biso   1.000  C
  C18      1.0000 0.22860  0.37900  0.43714  Biso   1.000  C
  H17      1.0000 0.66360  0.58120  0.56360  Biso   1.000  H
  H18      1.0000 0.33640  0.41880  0.43640  Biso   1.000  H
  C19      1.0000 0.91050  0.57980  0.63595  Biso   1.000  C
  C20      1.0000 0.08950  0.42020  0.36405  Biso   1.000  C
  C21      1.0000 0.06610  0.64370  0.62948  Biso   1.000  C
  C22      1.0000 0.93390  0.35630  0.37052  Biso   1.000  C
  C23      1.0000 0.90440  0.47950  0.71530  Biso   1.000  C
  C24      1.0000 0.09560  0.52050  0.28470  Biso   1.000  C
  H19      1.0000 0.80060  0.43630  0.72090  Biso   1.000  H
  H20      1.0000 0.19940  0.56370  0.27910  Biso   1.000  H
  C25      1.0000 0.04450  0.44510  0.78248  Biso   1.000  C
  C26      1.0000 0.95550  0.55490  0.21752  Biso   1.000  C
  H21      1.0000 0.03700  0.37980  0.83530  Biso   1.000  H
  H22      1.0000 0.96300  0.62020  0.16470  Biso   1.000  H
  C27      1.0000 0.20380  0.50590  0.77509  Biso   1.000  C
  C28      1.0000 0.79620  0.49410  0.22491  Biso   1.000  C
  C29      1.0000 0.21330  0.60590  0.69964  Biso   1.000  C
  C30      1.0000 0.78670  0.39410  0.30036  Biso   1.000  C
  C31      1.0000 0.35330  0.47000  0.83802  Biso   1.000  C
  C32      1.0000 0.64670  0.53000  0.16198  Biso   1.000  C
  H23      1.0000 0.35340  0.40100  0.88910  Biso   1.000  H
  H24      1.0000 0.64660  0.59900  0.11090  Biso   1.000  H
  C33      1.0000 0.49900  0.53590  0.82459  Biso   1.000  C
  C34      1.0000 0.50100  0.46410  0.17541  Biso   1.000  C
  H25      1.0000 0.60050  0.51200  0.86590  Biso   1.000  H
  H26      1.0000 0.39950  0.48800  0.13410  Biso   1.000  H
  C35      1.0000 0.49710  0.63870  0.74959  Biso   1.000  C
  C36      1.0000 0.50290  0.36130  0.25041  Biso   1.000  C
  H27      1.0000 0.59880  0.68600  0.74300  Biso   1.000  H
  H28      1.0000 0.40120  0.31400  0.25700  Biso   1.000  H
