data_image0
_cell_length_a       21.778
_cell_length_b       13.0387
_cell_length_c       12.38
_cell_angle_alpha    90
_cell_angle_beta     90
_cell_angle_gamma    90

_symmetry_space_group_name_H-M    "P 1"
_symmetry_int_tables_number       1

loop_
  _symmetry_equiv_pos_as_xyz
  'x, y, z'

loop_
  _atom_site_label
  _atom_site_occupancy
  _atom_site_fract_x
  _atom_site_fract_y
  _atom_site_fract_z
  _atom_site_thermal_displace_type
  _atom_site_B_iso_or_equiv
  _atom_site_type_symbol
  Cu1      1.0000 0.41085  0.14426  0.06815  Biso   1.000  Cu
  Cu2      1.0000 0.58915  0.35574  0.56815  Biso   1.000  Cu
  Cu3      1.0000 0.58915  0.64426  0.43185  Biso   1.000  Cu
  Cu4      1.0000 0.41085  0.85574  0.93185  Biso   1.000  Cu
  Cu5      1.0000 0.91085  0.64426  0.06815  Biso   1.000  Cu
  Cu6      1.0000 0.08915  0.85574  0.56815  Biso   1.000  Cu
  Cu7      1.0000 0.08915  0.14426  0.43185  Biso   1.000  Cu
  Cu8      1.0000 0.91085  0.35574  0.93185  Biso   1.000  Cu
  Cu9      1.0000 0.58915  0.85574  0.93185  Biso   1.000  Cu
  Cu10     1.0000 0.41085  0.64426  0.43185  Biso   1.000  Cu
  Cu11     1.0000 0.41085  0.35574  0.56815  Biso   1.000  Cu
  Cu12     1.0000 0.58915  0.14426  0.06815  Biso   1.000  Cu
  Cu13     1.0000 0.08915  0.35574  0.93185  Biso   1.000  Cu
  Cu14     1.0000 0.91085  0.14426  0.43185  Biso   1.000  Cu
  Cu15     1.0000 0.91085  0.85574  0.56815  Biso   1.000  Cu
  Cu16     1.0000 0.08915  0.64426  0.06815  Biso   1.000  Cu
  Mn1      1.0000 0.25000  0.12380  0.75000  Biso   1.000  Mn
  Mn2      1.0000 0.75000  0.37620  0.25000  Biso   1.000  Mn
  Mn3      1.0000 0.75000  0.62380  0.75000  Biso   1.000  Mn
  Mn4      1.0000 0.25000  0.87620  0.25000  Biso   1.000  Mn
  Mn5      1.0000 0.75000  0.87620  0.25000  Biso   1.000  Mn
  Mn6      1.0000 0.25000  0.62380  0.75000  Biso   1.000  Mn
  Mn7      1.0000 0.25000  0.37620  0.25000  Biso   1.000  Mn
  Mn8      1.0000 0.75000  0.12380  0.75000  Biso   1.000  Mn
  C1       1.0000 0.50000  0.11410  0.35140  Biso   1.000  C
  C2       1.0000 0.50000  0.38590  0.85140  Biso   1.000  C
  C3       1.0000 0.50000  0.61410  0.14860  Biso   1.000  C
  C4       1.0000 0.50000  0.88590  0.64860  Biso   1.000  C
  C5       1.0000 0.00000  0.61410  0.35140  Biso   1.000  C
  C6       1.0000 0.00000  0.88590  0.85140  Biso   1.000  C
  C7       1.0000 0.00000  0.11410  0.14860  Biso   1.000  C
  C8       1.0000 0.00000  0.38590  0.64860  Biso   1.000  C
  H1       1.0000 0.50000  0.10540  0.42590  Biso   1.000  H
  H2       1.0000 0.50000  0.39460  0.92590  Biso   1.000  H
  H3       1.0000 0.50000  0.60540  0.07410  Biso   1.000  H
  H4       1.0000 0.50000  0.89460  0.57410  Biso   1.000  H
  H5       1.0000 0.00000  0.60540  0.42590  Biso   1.000  H
  H6       1.0000 0.00000  0.89460  0.92590  Biso   1.000  H
  H7       1.0000 0.00000  0.10540  0.07410  Biso   1.000  H
  H8       1.0000 0.00000  0.39460  0.57410  Biso   1.000  H
  C9       1.0000 0.45010  0.12210  0.28320  Biso   1.000  C
  C10      1.0000 0.54990  0.37790  0.78320  Biso   1.000  C
  C11      1.0000 0.54990  0.62210  0.21680  Biso   1.000  C
  C12      1.0000 0.45010  0.87790  0.71680  Biso   1.000  C
  C13      1.0000 0.95010  0.62210  0.28320  Biso   1.000  C
  C14      1.0000 0.04990  0.87790  0.78320  Biso   1.000  C
  C15      1.0000 0.04990  0.12210  0.21680  Biso   1.000  C
  C16      1.0000 0.95010  0.37790  0.71680  Biso   1.000  C
  C17      1.0000 0.54990  0.87790  0.71680  Biso   1.000  C
  C18      1.0000 0.45010  0.62210  0.21680  Biso   1.000  C
  C19      1.0000 0.45010  0.37790  0.78320  Biso   1.000  C
  C20      1.0000 0.54990  0.12210  0.28320  Biso   1.000  C
  C21      1.0000 0.04990  0.37790  0.71680  Biso   1.000  C
  C22      1.0000 0.95010  0.12210  0.21680  Biso   1.000  C
  C23      1.0000 0.95010  0.87790  0.78320  Biso   1.000  C
  C24      1.0000 0.04990  0.62210  0.28320  Biso   1.000  C
  C25      1.0000 0.38210  0.11940  0.28850  Biso   1.000  C
  C26      1.0000 0.61790  0.38060  0.78850  Biso   1.000  C
  C27      1.0000 0.61790  0.61940  0.21150  Biso   1.000  C
  C28      1.0000 0.38210  0.88060  0.71150  Biso   1.000  C
  C29      1.0000 0.88210  0.61940  0.28850  Biso   1.000  C
  C30      1.0000 0.11790  0.88060  0.78850  Biso   1.000  C
  C31      1.0000 0.11790  0.11940  0.21150  Biso   1.000  C
  C32      1.0000 0.88210  0.38060  0.71150  Biso   1.000  C
  C33      1.0000 0.61790  0.88060  0.71150  Biso   1.000  C
  C34      1.0000 0.38210  0.61940  0.21150  Biso   1.000  C
  C35      1.0000 0.38210  0.38060  0.78850  Biso   1.000  C
  C36      1.0000 0.61790  0.11940  0.28850  Biso   1.000  C
  C37      1.0000 0.11790  0.38060  0.71150  Biso   1.000  C
  C38      1.0000 0.88210  0.11940  0.21150  Biso   1.000  C
  C39      1.0000 0.88210  0.88060  0.78850  Biso   1.000  C
  C40      1.0000 0.11790  0.61940  0.28850  Biso   1.000  C
  C41      1.0000 0.50000  0.12120  0.78310  Biso   1.000  C
  C42      1.0000 0.50000  0.37880  0.28310  Biso   1.000  C
  C43      1.0000 0.50000  0.62120  0.71690  Biso   1.000  C
  C44      1.0000 0.50000  0.87880  0.21690  Biso   1.000  C
  C45      1.0000 0.00000  0.62120  0.78310  Biso   1.000  C
  C46      1.0000 0.00000  0.87880  0.28310  Biso   1.000  C
  C47      1.0000 0.00000  0.12120  0.71690  Biso   1.000  C
  C48      1.0000 0.00000  0.37880  0.21690  Biso   1.000  C
  H9       1.0000 0.50000  0.11780  0.70810  Biso   1.000  H
  H10      1.0000 0.50000  0.38220  0.20810  Biso   1.000  H
  H11      1.0000 0.50000  0.61780  0.79190  Biso   1.000  H
  H12      1.0000 0.50000  0.88220  0.29190  Biso   1.000  H
  H13      1.0000 0.00000  0.61780  0.70810  Biso   1.000  H
  H14      1.0000 0.00000  0.88220  0.20810  Biso   1.000  H
  H15      1.0000 0.00000  0.11780  0.79190  Biso   1.000  H
  H16      1.0000 0.00000  0.38220  0.29190  Biso   1.000  H
  C49      1.0000 0.44970  0.12440  0.85320  Biso   1.000  C
  C50      1.0000 0.55030  0.37560  0.35320  Biso   1.000  C
  C51      1.0000 0.55030  0.62440  0.64680  Biso   1.000  C
  C52      1.0000 0.44970  0.87560  0.14680  Biso   1.000  C
  C53      1.0000 0.94970  0.62440  0.85320  Biso   1.000  C
  C54      1.0000 0.05030  0.87560  0.35320  Biso   1.000  C
  C55      1.0000 0.05030  0.12440  0.64680  Biso   1.000  C
  C56      1.0000 0.94970  0.37560  0.14680  Biso   1.000  C
  C57      1.0000 0.55030  0.87560  0.14680  Biso   1.000  C
  C58      1.0000 0.44970  0.62440  0.64680  Biso   1.000  C
  C59      1.0000 0.44970  0.37560  0.35320  Biso   1.000  C
  C60      1.0000 0.55030  0.12440  0.85320  Biso   1.000  C
  C61      1.0000 0.05030  0.37560  0.14680  Biso   1.000  C
  C62      1.0000 0.94970  0.12440  0.64680  Biso   1.000  C
  C63      1.0000 0.94970  0.87560  0.35320  Biso   1.000  C
  C64      1.0000 0.05030  0.62440  0.85320  Biso   1.000  C
  C65      1.0000 0.38090  0.12490  0.84910  Biso   1.000  C
  C66      1.0000 0.61910  0.37510  0.34910  Biso   1.000  C
  C67      1.0000 0.61910  0.62490  0.65090  Biso   1.000  C
  C68      1.0000 0.38090  0.87510  0.15090  Biso   1.000  C
  C69      1.0000 0.88090  0.62490  0.84910  Biso   1.000  C
  C70      1.0000 0.11910  0.87510  0.34910  Biso   1.000  C
  C71      1.0000 0.11910  0.12490  0.65090  Biso   1.000  C
  C72      1.0000 0.88090  0.37510  0.15090  Biso   1.000  C
  C73      1.0000 0.61910  0.87510  0.15090  Biso   1.000  C
  C74      1.0000 0.38090  0.62490  0.65090  Biso   1.000  C
  C75      1.0000 0.38090  0.37510  0.34910  Biso   1.000  C
  C76      1.0000 0.61910  0.12490  0.84910  Biso   1.000  C
  C77      1.0000 0.11910  0.37510  0.15090  Biso   1.000  C
  C78      1.0000 0.88090  0.12490  0.65090  Biso   1.000  C
  C79      1.0000 0.88090  0.87510  0.34910  Biso   1.000  C
  C80      1.0000 0.11910  0.62490  0.84910  Biso   1.000  C
  N1       1.0000 0.47006  0.13420  0.18140  Biso   1.000  N
  N2       1.0000 0.52994  0.36580  0.68140  Biso   1.000  N
  N3       1.0000 0.52994  0.63420  0.31860  Biso   1.000  N
  N4       1.0000 0.47006  0.86580  0.81860  Biso   1.000  N
  N5       1.0000 0.97006  0.63420  0.18140  Biso   1.000  N
  N6       1.0000 0.02994  0.86580  0.68140  Biso   1.000  N
  N7       1.0000 0.02994  0.13420  0.31860  Biso   1.000  N
  N8       1.0000 0.97006  0.36580  0.81860  Biso   1.000  N
  N9       1.0000 0.52994  0.86580  0.81860  Biso   1.000  N
  N10      1.0000 0.47006  0.63420  0.31860  Biso   1.000  N
  N11      1.0000 0.47006  0.36580  0.68140  Biso   1.000  N
  N12      1.0000 0.52994  0.13420  0.18140  Biso   1.000  N
  N13      1.0000 0.02994  0.36580  0.81860  Biso   1.000  N
  N14      1.0000 0.97006  0.13420  0.31860  Biso   1.000  N
  N15      1.0000 0.97006  0.86580  0.68140  Biso   1.000  N
  N16      1.0000 0.02994  0.63420  0.18140  Biso   1.000  N
  N17      1.0000 0.46982  0.12900  0.95440  Biso   1.000  N
  N18      1.0000 0.53018  0.37100  0.45440  Biso   1.000  N
  N19      1.0000 0.53018  0.62900  0.54560  Biso   1.000  N
  N20      1.0000 0.46982  0.87100  0.04560  Biso   1.000  N
  N21      1.0000 0.96982  0.62900  0.95440  Biso   1.000  N
  N22      1.0000 0.03018  0.87100  0.45440  Biso   1.000  N
  N23      1.0000 0.03018  0.12900  0.54560  Biso   1.000  N
  N24      1.0000 0.96982  0.37100  0.04560  Biso   1.000  N
  N25      1.0000 0.53018  0.87100  0.04560  Biso   1.000  N
  N26      1.0000 0.46982  0.62900  0.54560  Biso   1.000  N
  N27      1.0000 0.46982  0.37100  0.45440  Biso   1.000  N
  N28      1.0000 0.53018  0.12900  0.95440  Biso   1.000  N
  N29      1.0000 0.03018  0.37100  0.04560  Biso   1.000  N
  N30      1.0000 0.96982  0.12900  0.54560  Biso   1.000  N
  N31      1.0000 0.96982  0.87100  0.45440  Biso   1.000  N
  N32      1.0000 0.03018  0.62900  0.95440  Biso   1.000  N
  O1       1.0000 0.35447  0.11240  0.37550  Biso   1.000  O
  O2       1.0000 0.64553  0.38760  0.87550  Biso   1.000  O
  O3       1.0000 0.64553  0.61240  0.12450  Biso   1.000  O
  O4       1.0000 0.35447  0.88760  0.62450  Biso   1.000  O
  O5       1.0000 0.85447  0.61240  0.37550  Biso   1.000  O
  O6       1.0000 0.14553  0.88760  0.87550  Biso   1.000  O
  O7       1.0000 0.14553  0.11240  0.12450  Biso   1.000  O
  O8       1.0000 0.85447  0.38760  0.62450  Biso   1.000  O
  O9       1.0000 0.64553  0.88760  0.62450  Biso   1.000  O
  O10      1.0000 0.35447  0.61240  0.12450  Biso   1.000  O
  O11      1.0000 0.35447  0.38760  0.87550  Biso   1.000  O
  O12      1.0000 0.64553  0.11240  0.37550  Biso   1.000  O
  O13      1.0000 0.14553  0.38760  0.62450  Biso   1.000  O
  O14      1.0000 0.85447  0.11240  0.12450  Biso   1.000  O
  O15      1.0000 0.85447  0.88760  0.87550  Biso   1.000  O
  O16      1.0000 0.14553  0.61240  0.37550  Biso   1.000  O
  O17      1.0000 0.35551  0.12360  0.19670  Biso   1.000  O
  O18      1.0000 0.64449  0.37640  0.69670  Biso   1.000  O
  O19      1.0000 0.64449  0.62360  0.30330  Biso   1.000  O
  O20      1.0000 0.35551  0.87640  0.80330  Biso   1.000  O
  O21      1.0000 0.85551  0.62360  0.19670  Biso   1.000  O
  O22      1.0000 0.14449  0.87640  0.69670  Biso   1.000  O
  O23      1.0000 0.14449  0.12360  0.30330  Biso   1.000  O
  O24      1.0000 0.85551  0.37640  0.80330  Biso   1.000  O
  O25      1.0000 0.64449  0.87640  0.80330  Biso   1.000  O
  O26      1.0000 0.35551  0.62360  0.30330  Biso   1.000  O
  O27      1.0000 0.35551  0.37640  0.69670  Biso   1.000  O
  O28      1.0000 0.64449  0.12360  0.19670  Biso   1.000  O
  O29      1.0000 0.14449  0.37640  0.80330  Biso   1.000  O
  O30      1.0000 0.85551  0.12360  0.30330  Biso   1.000  O
  O31      1.0000 0.85551  0.87640  0.69670  Biso   1.000  O
  O32      1.0000 0.14449  0.62360  0.19670  Biso   1.000  O
  O33      1.0000 0.35519  0.12750  0.94170  Biso   1.000  O
  O34      1.0000 0.64481  0.37250  0.44170  Biso   1.000  O
  O35      1.0000 0.64481  0.62750  0.55830  Biso   1.000  O
  O36      1.0000 0.35519  0.87250  0.05830  Biso   1.000  O
  O37      1.0000 0.85519  0.62750  0.94170  Biso   1.000  O
  O38      1.0000 0.14481  0.87250  0.44170  Biso   1.000  O
  O39      1.0000 0.14481  0.12750  0.55830  Biso   1.000  O
  O40      1.0000 0.85519  0.37250  0.05830  Biso   1.000  O
  O41      1.0000 0.64481  0.87250  0.05830  Biso   1.000  O
  O42      1.0000 0.35519  0.62750  0.55830  Biso   1.000  O
  O43      1.0000 0.35519  0.37250  0.44170  Biso   1.000  O
  O44      1.0000 0.64481  0.12750  0.94170  Biso   1.000  O
  O45      1.0000 0.14481  0.37250  0.05830  Biso   1.000  O
  O46      1.0000 0.85519  0.12750  0.55830  Biso   1.000  O
  O47      1.0000 0.85519  0.87250  0.44170  Biso   1.000  O
  O48      1.0000 0.14481  0.62750  0.94170  Biso   1.000  O
  O49      1.0000 0.35220  0.12360  0.76230  Biso   1.000  O
  O50      1.0000 0.64780  0.37640  0.26230  Biso   1.000  O
  O51      1.0000 0.64780  0.62360  0.73770  Biso   1.000  O
  O52      1.0000 0.35220  0.87640  0.23770  Biso   1.000  O
  O53      1.0000 0.85220  0.62360  0.76230  Biso   1.000  O
  O54      1.0000 0.14780  0.87640  0.26230  Biso   1.000  O
  O55      1.0000 0.14780  0.12360  0.73770  Biso   1.000  O
  O56      1.0000 0.85220  0.37640  0.23770  Biso   1.000  O
  O57      1.0000 0.64780  0.87640  0.23770  Biso   1.000  O
  O58      1.0000 0.35220  0.62360  0.73770  Biso   1.000  O
  O59      1.0000 0.35220  0.37640  0.26230  Biso   1.000  O
  O60      1.0000 0.64780  0.12360  0.76230  Biso   1.000  O
  O61      1.0000 0.14780  0.37640  0.23770  Biso   1.000  O
  O62      1.0000 0.85220  0.12360  0.73770  Biso   1.000  O
  O63      1.0000 0.85220  0.87640  0.26230  Biso   1.000  O
  O64      1.0000 0.14780  0.62360  0.76230  Biso   1.000  O
  O65      1.0000 0.40300  0.31390  0.06710  Biso   1.000  O
  O66      1.0000 0.59700  0.18610  0.56710  Biso   1.000  O
  O67      1.0000 0.59700  0.81390  0.43290  Biso   1.000  O
  O68      1.0000 0.40300  0.68610  0.93290  Biso   1.000  O
  O69      1.0000 0.90300  0.81390  0.06710  Biso   1.000  O
  O70      1.0000 0.09700  0.68610  0.56710  Biso   1.000  O
  O71      1.0000 0.09700  0.31390  0.43290  Biso   1.000  O
  O72      1.0000 0.90300  0.18610  0.93290  Biso   1.000  O
  O73      1.0000 0.59700  0.68610  0.93290  Biso   1.000  O
  O74      1.0000 0.40300  0.81390  0.43290  Biso   1.000  O
  O75      1.0000 0.40300  0.18610  0.56710  Biso   1.000  O
  O76      1.0000 0.59700  0.31390  0.06710  Biso   1.000  O
  O77      1.0000 0.09700  0.18610  0.93290  Biso   1.000  O
  O78      1.0000 0.90300  0.31390  0.43290  Biso   1.000  O
  O79      1.0000 0.90300  0.68610  0.56710  Biso   1.000  O
  O80      1.0000 0.09700  0.81390  0.06710  Biso   1.000  O
  H17      1.0000 0.38570  0.33420  0.12480  Biso   1.000  H
  H18      1.0000 0.61430  0.16580  0.62480  Biso   1.000  H
  H19      1.0000 0.61430  0.83420  0.37520  Biso   1.000  H
  H20      1.0000 0.38570  0.66580  0.87520  Biso   1.000  H
  H21      1.0000 0.88570  0.83420  0.12480  Biso   1.000  H
  H22      1.0000 0.11430  0.66580  0.62480  Biso   1.000  H
  H23      1.0000 0.11430  0.33420  0.37520  Biso   1.000  H
  H24      1.0000 0.88570  0.16580  0.87520  Biso   1.000  H
  H25      1.0000 0.61430  0.66580  0.87520  Biso   1.000  H
  H26      1.0000 0.38570  0.83420  0.37520  Biso   1.000  H
  H27      1.0000 0.38570  0.16580  0.62480  Biso   1.000  H
  H28      1.0000 0.61430  0.33420  0.12480  Biso   1.000  H
  H29      1.0000 0.11430  0.16580  0.87520  Biso   1.000  H
  H30      1.0000 0.88570  0.33420  0.37520  Biso   1.000  H
  H31      1.0000 0.88570  0.66580  0.62480  Biso   1.000  H
  H32      1.0000 0.11430  0.83420  0.12480  Biso   1.000  H
  H33      1.0000 0.38230  0.33980  0.01570  Biso   1.000  H
  H34      1.0000 0.61770  0.16020  0.51570  Biso   1.000  H
  H35      1.0000 0.61770  0.83980  0.48430  Biso   1.000  H
  H36      1.0000 0.38230  0.66020  0.98430  Biso   1.000  H
  H37      1.0000 0.88230  0.83980  0.01570  Biso   1.000  H
  H38      1.0000 0.11770  0.66020  0.51570  Biso   1.000  H
  H39      1.0000 0.11770  0.33980  0.48430  Biso   1.000  H
  H40      1.0000 0.88230  0.16020  0.98430  Biso   1.000  H
  H41      1.0000 0.61770  0.66020  0.98430  Biso   1.000  H
  H42      1.0000 0.38230  0.83980  0.48430  Biso   1.000  H
  H43      1.0000 0.38230  0.16020  0.51570  Biso   1.000  H
  H44      1.0000 0.61770  0.33980  0.01570  Biso   1.000  H
  H45      1.0000 0.11770  0.16020  0.98430  Biso   1.000  H
  H46      1.0000 0.88230  0.33980  0.48430  Biso   1.000  H
  H47      1.0000 0.88230  0.66020  0.51570  Biso   1.000  H
  H48      1.0000 0.11770  0.83980  0.01570  Biso   1.000  H
  O81      1.0000 0.25010  0.98750  0.64970  Biso   1.000  O
  O82      1.0000 0.74990  0.51250  0.14970  Biso   1.000  O
  O83      1.0000 0.74990  0.48750  0.85030  Biso   1.000  O
  O84      1.0000 0.25010  0.01250  0.35030  Biso   1.000  O
  O85      1.0000 0.75010  0.48750  0.64970  Biso   1.000  O
  O86      1.0000 0.24990  0.01250  0.14970  Biso   1.000  O
  O87      1.0000 0.24990  0.98750  0.85030  Biso   1.000  O
  O88      1.0000 0.75010  0.51250  0.35030  Biso   1.000  O
  O89      1.0000 0.74990  0.01250  0.35030  Biso   1.000  O
  O90      1.0000 0.25010  0.48750  0.85030  Biso   1.000  O
  O91      1.0000 0.25010  0.51250  0.14970  Biso   1.000  O
  O92      1.0000 0.74990  0.98750  0.64970  Biso   1.000  O
  O93      1.0000 0.24990  0.51250  0.35030  Biso   1.000  O
  O94      1.0000 0.75010  0.98750  0.85030  Biso   1.000  O
  O95      1.0000 0.75010  0.01250  0.14970  Biso   1.000  O
  O96      1.0000 0.24990  0.48750  0.64970  Biso   1.000  O
  H49      1.0000 0.26770  0.93470  0.67550  Biso   1.000  H
  H50      1.0000 0.73230  0.56530  0.17550  Biso   1.000  H
  H51      1.0000 0.73230  0.43470  0.82450  Biso   1.000  H
  H52      1.0000 0.26770  0.06530  0.32450  Biso   1.000  H
  H53      1.0000 0.76770  0.43470  0.67550  Biso   1.000  H
  H54      1.0000 0.23230  0.06530  0.17550  Biso   1.000  H
  H55      1.0000 0.23230  0.93470  0.82450  Biso   1.000  H
  H56      1.0000 0.76770  0.56530  0.32450  Biso   1.000  H
  H57      1.0000 0.73230  0.06530  0.32450  Biso   1.000  H
  H58      1.0000 0.26770  0.43470  0.82450  Biso   1.000  H
  H59      1.0000 0.26770  0.56530  0.17550  Biso   1.000  H
  H60      1.0000 0.73230  0.93470  0.67550  Biso   1.000  H
  H61      1.0000 0.23230  0.56530  0.32450  Biso   1.000  H
  H62      1.0000 0.76770  0.93470  0.82450  Biso   1.000  H
  H63      1.0000 0.76770  0.06530  0.17550  Biso   1.000  H
  H64      1.0000 0.23230  0.43470  0.67550  Biso   1.000  H
  H65      1.0000 0.21210  0.97410  0.64330  Biso   1.000  H
  H66      1.0000 0.78790  0.52590  0.14330  Biso   1.000  H
  H67      1.0000 0.78790  0.47410  0.85670  Biso   1.000  H
  H68      1.0000 0.21210  0.02590  0.35670  Biso   1.000  H
  H69      1.0000 0.71210  0.47410  0.64330  Biso   1.000  H
  H70      1.0000 0.28790  0.02590  0.14330  Biso   1.000  H
  H71      1.0000 0.28790  0.97410  0.85670  Biso   1.000  H
  H72      1.0000 0.71210  0.52590  0.35670  Biso   1.000  H
  H73      1.0000 0.78790  0.02590  0.35670  Biso   1.000  H
  H74      1.0000 0.21210  0.47410  0.85670  Biso   1.000  H
  H75      1.0000 0.21210  0.52590  0.14330  Biso   1.000  H
  H76      1.0000 0.78790  0.97410  0.64330  Biso   1.000  H
  H77      1.0000 0.28790  0.52590  0.35670  Biso   1.000  H
  H78      1.0000 0.71210  0.97410  0.85670  Biso   1.000  H
  H79      1.0000 0.71210  0.02590  0.14330  Biso   1.000  H
  H80      1.0000 0.28790  0.47410  0.64330  Biso   1.000  H
  O97      1.0000 0.24360  0.26400  0.84250  Biso   1.000  O
  O98      1.0000 0.75640  0.23600  0.34250  Biso   1.000  O
  O99      1.0000 0.75640  0.76400  0.65750  Biso   1.000  O
  O100     1.0000 0.24360  0.73600  0.15750  Biso   1.000  O
  O101     1.0000 0.74360  0.76400  0.84250  Biso   1.000  O
  O102     1.0000 0.25640  0.73600  0.34250  Biso   1.000  O
  O103     1.0000 0.25640  0.26400  0.65750  Biso   1.000  O
  O104     1.0000 0.74360  0.23600  0.15750  Biso   1.000  O
  O105     1.0000 0.75640  0.73600  0.15750  Biso   1.000  O
  O106     1.0000 0.24360  0.76400  0.65750  Biso   1.000  O
  O107     1.0000 0.24360  0.23600  0.34250  Biso   1.000  O
  O108     1.0000 0.75640  0.26400  0.84250  Biso   1.000  O
  O109     1.0000 0.25640  0.23600  0.15750  Biso   1.000  O
  O110     1.0000 0.74360  0.26400  0.65750  Biso   1.000  O
  O111     1.0000 0.74360  0.73600  0.34250  Biso   1.000  O
  O112     1.0000 0.25640  0.76400  0.84250  Biso   1.000  O
  H81      1.0000 0.21150  0.29760  0.82580  Biso   1.000  H
  H82      1.0000 0.78850  0.20240  0.32580  Biso   1.000  H
  H83      1.0000 0.78850  0.79760  0.67420  Biso   1.000  H
  H84      1.0000 0.21150  0.70240  0.17420  Biso   1.000  H
  H85      1.0000 0.71150  0.79760  0.82580  Biso   1.000  H
  H86      1.0000 0.28850  0.70240  0.32580  Biso   1.000  H
  H87      1.0000 0.28850  0.29760  0.67420  Biso   1.000  H
  H88      1.0000 0.71150  0.20240  0.17420  Biso   1.000  H
  H89      1.0000 0.78850  0.70240  0.17420  Biso   1.000  H
  H90      1.0000 0.21150  0.79760  0.67420  Biso   1.000  H
  H91      1.0000 0.21150  0.20240  0.32580  Biso   1.000  H
  H92      1.0000 0.78850  0.29760  0.82580  Biso   1.000  H
  H93      1.0000 0.28850  0.20240  0.17420  Biso   1.000  H
  H94      1.0000 0.71150  0.29760  0.67420  Biso   1.000  H
  H95      1.0000 0.71150  0.70240  0.32580  Biso   1.000  H
  H96      1.0000 0.28850  0.79760  0.82580  Biso   1.000  H
  H97      1.0000 0.27520  0.30150  0.85130  Biso   1.000  H
  H98      1.0000 0.72480  0.19850  0.35130  Biso   1.000  H
  H99      1.0000 0.72480  0.80150  0.64870  Biso   1.000  H
  H100     1.0000 0.27520  0.69850  0.14870  Biso   1.000  H
  H101     1.0000 0.77520  0.80150  0.85130  Biso   1.000  H
  H102     1.0000 0.22480  0.69850  0.35130  Biso   1.000  H
  H103     1.0000 0.22480  0.30150  0.64870  Biso   1.000  H
  H104     1.0000 0.77520  0.19850  0.14870  Biso   1.000  H
  H105     1.0000 0.72480  0.69850  0.14870  Biso   1.000  H
  H106     1.0000 0.27520  0.80150  0.64870  Biso   1.000  H
  H107     1.0000 0.27520  0.19850  0.35130  Biso   1.000  H
  H108     1.0000 0.72480  0.30150  0.85130  Biso   1.000  H
  H109     1.0000 0.22480  0.19850  0.14870  Biso   1.000  H
  H110     1.0000 0.77520  0.30150  0.64870  Biso   1.000  H
  H111     1.0000 0.77520  0.69850  0.35130  Biso   1.000  H
  H112     1.0000 0.22480  0.80150  0.85130  Biso   1.000  H
  O113     1.0000 0.26440  0.03510  0.60510  Biso   1.000  O
  O114     1.0000 0.73560  0.46490  0.10510  Biso   1.000  O
  O115     1.0000 0.73560  0.53510  0.89490  Biso   1.000  O
  O116     1.0000 0.26440  0.96490  0.39490  Biso   1.000  O
  O117     1.0000 0.76440  0.53510  0.60510  Biso   1.000  O
  O118     1.0000 0.23560  0.96490  0.10510  Biso   1.000  O
  O119     1.0000 0.23560  0.03510  0.89490  Biso   1.000  O
  O120     1.0000 0.76440  0.46490  0.39490  Biso   1.000  O
  O121     1.0000 0.73560  0.96490  0.39490  Biso   1.000  O
  O122     1.0000 0.26440  0.53510  0.89490  Biso   1.000  O
  O123     1.0000 0.26440  0.46490  0.10510  Biso   1.000  O
  O124     1.0000 0.73560  0.03510  0.60510  Biso   1.000  O
  O125     1.0000 0.23560  0.46490  0.39490  Biso   1.000  O
  O126     1.0000 0.76440  0.03510  0.89490  Biso   1.000  O
  O127     1.0000 0.76440  0.96490  0.10510  Biso   1.000  O
  O128     1.0000 0.23560  0.53510  0.60510  Biso   1.000  O
  H113     1.0000 0.24640  0.05630  0.54840  Biso   1.000  H
  H114     1.0000 0.75360  0.44370  0.04840  Biso   1.000  H
  H115     1.0000 0.75360  0.55630  0.95160  Biso   1.000  H
  H116     1.0000 0.24640  0.94370  0.45160  Biso   1.000  H
  H117     1.0000 0.74640  0.55630  0.54840  Biso   1.000  H
  H118     1.0000 0.25360  0.94370  0.04840  Biso   1.000  H
  H119     1.0000 0.25360  0.05630  0.95160  Biso   1.000  H
  H120     1.0000 0.74640  0.44370  0.45160  Biso   1.000  H
  H121     1.0000 0.75360  0.94370  0.45160  Biso   1.000  H
  H122     1.0000 0.24640  0.55630  0.95160  Biso   1.000  H
  H123     1.0000 0.24640  0.44370  0.04840  Biso   1.000  H
  H124     1.0000 0.75360  0.05630  0.54840  Biso   1.000  H
  H125     1.0000 0.25360  0.44370  0.45160  Biso   1.000  H
  H126     1.0000 0.74640  0.05630  0.95160  Biso   1.000  H
  H127     1.0000 0.74640  0.94370  0.04840  Biso   1.000  H
  H128     1.0000 0.25360  0.55630  0.54840  Biso   1.000  H
  H129     1.0000 0.30280  0.04200  0.59550  Biso   1.000  H
  H130     1.0000 0.69720  0.45800  0.09550  Biso   1.000  H
  H131     1.0000 0.69720  0.54200  0.90450  Biso   1.000  H
  H132     1.0000 0.30280  0.95800  0.40450  Biso   1.000  H
  H133     1.0000 0.80280  0.54200  0.59550  Biso   1.000  H
  H134     1.0000 0.19720  0.95800  0.09550  Biso   1.000  H
  H135     1.0000 0.19720  0.04200  0.90450  Biso   1.000  H
  H136     1.0000 0.80280  0.45800  0.40450  Biso   1.000  H
  H137     1.0000 0.69720  0.95800  0.40450  Biso   1.000  H
  H138     1.0000 0.30280  0.54200  0.90450  Biso   1.000  H
  H139     1.0000 0.30280  0.45800  0.09550  Biso   1.000  H
  H140     1.0000 0.69720  0.04200  0.59550  Biso   1.000  H
  H141     1.0000 0.19720  0.45800  0.40450  Biso   1.000  H
  H142     1.0000 0.80280  0.04200  0.90450  Biso   1.000  H
  H143     1.0000 0.80280  0.95800  0.09550  Biso   1.000  H
  H144     1.0000 0.19720  0.54200  0.59550  Biso   1.000  H
  O129     1.0000 0.24150  0.21430  0.89860  Biso   1.000  O
  O130     1.0000 0.75850  0.28570  0.39860  Biso   1.000  O
  O131     1.0000 0.75850  0.71430  0.60140  Biso   1.000  O
  O132     1.0000 0.24150  0.78570  0.10140  Biso   1.000  O
  O133     1.0000 0.74150  0.71430  0.89860  Biso   1.000  O
  O134     1.0000 0.25850  0.78570  0.39860  Biso   1.000  O
  O135     1.0000 0.25850  0.21430  0.60140  Biso   1.000  O
  O136     1.0000 0.74150  0.28570  0.10140  Biso   1.000  O
  O137     1.0000 0.75850  0.78570  0.10140  Biso   1.000  O
  O138     1.0000 0.24150  0.71430  0.60140  Biso   1.000  O
  O139     1.0000 0.24150  0.28570  0.39860  Biso   1.000  O
  O140     1.0000 0.75850  0.21430  0.89860  Biso   1.000  O
  O141     1.0000 0.25850  0.28570  0.10140  Biso   1.000  O
  O142     1.0000 0.74150  0.21430  0.60140  Biso   1.000  O
  O143     1.0000 0.74150  0.78570  0.39860  Biso   1.000  O
  O144     1.0000 0.25850  0.71430  0.89860  Biso   1.000  O
  H145     1.0000 0.21520  0.17550  0.92870  Biso   1.000  H
  H146     1.0000 0.78480  0.32450  0.42870  Biso   1.000  H
  H147     1.0000 0.78480  0.67550  0.57130  Biso   1.000  H
  H148     1.0000 0.21520  0.82450  0.07130  Biso   1.000  H
  H149     1.0000 0.71520  0.67550  0.92870  Biso   1.000  H
  H150     1.0000 0.28480  0.82450  0.42870  Biso   1.000  H
  H151     1.0000 0.28480  0.17550  0.57130  Biso   1.000  H
  H152     1.0000 0.71520  0.32450  0.07130  Biso   1.000  H
  H153     1.0000 0.78480  0.82450  0.07130  Biso   1.000  H
  H154     1.0000 0.21520  0.67550  0.57130  Biso   1.000  H
  H155     1.0000 0.21520  0.32450  0.42870  Biso   1.000  H
  H156     1.0000 0.78480  0.17550  0.92870  Biso   1.000  H
  H157     1.0000 0.28480  0.32450  0.07130  Biso   1.000  H
  H158     1.0000 0.71520  0.17550  0.57130  Biso   1.000  H
  H159     1.0000 0.71520  0.82450  0.42870  Biso   1.000  H
  H160     1.0000 0.28480  0.67550  0.92870  Biso   1.000  H
  H161     1.0000 0.27030  0.19780  0.94160  Biso   1.000  H
  H162     1.0000 0.72970  0.30220  0.44160  Biso   1.000  H
  H163     1.0000 0.72970  0.69780  0.55840  Biso   1.000  H
  H164     1.0000 0.27030  0.80220  0.05840  Biso   1.000  H
  H165     1.0000 0.77030  0.69780  0.94160  Biso   1.000  H
  H166     1.0000 0.22970  0.80220  0.44160  Biso   1.000  H
  H167     1.0000 0.22970  0.19780  0.55840  Biso   1.000  H
  H168     1.0000 0.77030  0.30220  0.05840  Biso   1.000  H
  H169     1.0000 0.72970  0.80220  0.05840  Biso   1.000  H
  H170     1.0000 0.27030  0.69780  0.55840  Biso   1.000  H
  H171     1.0000 0.27030  0.30220  0.44160  Biso   1.000  H
  H172     1.0000 0.72970  0.19780  0.94160  Biso   1.000  H
  H173     1.0000 0.22970  0.30220  0.05840  Biso   1.000  H
  H174     1.0000 0.77030  0.19780  0.55840  Biso   1.000  H
  H175     1.0000 0.77030  0.80220  0.44160  Biso   1.000  H
  H176     1.0000 0.22970  0.69780  0.94160  Biso   1.000  H
