data_image0
_cell_length_a       9.5602
_cell_length_b       10.4627
_cell_length_c       16.641
_cell_angle_alpha    81.109
_cell_angle_beta     84.51
_cell_angle_gamma    82.103

_symmetry_space_group_name_H-M    "P 1"
_symmetry_int_tables_number       1

loop_
  _symmetry_equiv_pos_as_xyz
  'x, y, z'

loop_
  _atom_site_label
  _atom_site_occupancy
  _atom_site_fract_x
  _atom_site_fract_y
  _atom_site_fract_z
  _atom_site_thermal_displace_type
  _atom_site_B_iso_or_equiv
  _atom_site_type_symbol
  Cu1      1.0000 0.26658  0.92586  0.39159  Biso   1.000  Cu
  Cu2      1.0000 0.73342  0.07414  0.60841  Biso   1.000  Cu
  S1       1.0000 0.28996  0.45706  0.41030  Biso   1.000  S
  S2       1.0000 0.71004  0.54294  0.58970  Biso   1.000  S
  O1       1.0000 0.20000  0.10790  0.39820  Biso   1.000  O
  O2       1.0000 0.80000  0.89210  0.60180  Biso   1.000  O
  O3       1.0000 0.28100  0.74130  0.38030  Biso   1.000  O
  O4       1.0000 0.71900  0.25870  0.61970  Biso   1.000  O
  N1       1.0000 0.29380  0.97170  0.26940  Biso   1.000  N
  N2       1.0000 0.70620  0.02830  0.73060  Biso   1.000  N
  O5       1.0000 0.07050  0.74150  0.79950  Biso   1.000  O
  O6       1.0000 0.92950  0.25850  0.20050  Biso   1.000  O
  O7       1.0000 0.04830  0.79000  0.37090  Biso   1.000  O
  O8       1.0000 0.95170  0.21000  0.62910  Biso   1.000  O
  O9       1.0000 0.39890  0.17120  0.43130  Biso   1.000  O
  O10      1.0000 0.60110  0.82880  0.56870  Biso   1.000  O
  O11      1.0000 0.36830  0.90590  0.98390  Biso   1.000  O
  O12      1.0000 0.63170  0.09410  0.01610  Biso   1.000  O
  C1       1.0000 0.39410  0.90500  0.22570  Biso   1.000  C
  C2       1.0000 0.60590  0.09500  0.77430  Biso   1.000  C
  H1       1.0000 0.46160  0.84330  0.25390  Biso   1.000  H
  H2       1.0000 0.53840  0.15670  0.74610  Biso   1.000  H
  N3       1.0000 0.23710  0.87710  0.51390  Biso   1.000  N
  N4       1.0000 0.76290  0.12290  0.48610  Biso   1.000  N
  N5       1.0000 0.30270  0.74370  0.81770  Biso   1.000  N
  N6       1.0000 0.69730  0.25630  0.18230  Biso   1.000  N
  C3       1.0000 0.16010  0.95640  0.56160  Biso   1.000  C
  C4       1.0000 0.83990  0.04360  0.43840  Biso   1.000  C
  H3       1.0000 0.11400  0.03720  0.53690  Biso   1.000  H
  H4       1.0000 0.88600  0.96280  0.46310  Biso   1.000  H
  C5       1.0000 0.55160  0.65750  0.78990  Biso   1.000  C
  C6       1.0000 0.44840  0.34250  0.21010  Biso   1.000  C
  H5       1.0000 0.64780  0.68400  0.77740  Biso   1.000  H
  H6       1.0000 0.35220  0.31600  0.22260  Biso   1.000  H
  H7       1.0000 0.53280  0.60900  0.74640  Biso   1.000  H
  H8       1.0000 0.46720  0.39100  0.25360  Biso   1.000  H
  C7       1.0000 0.21440  0.80880  0.68250  Biso   1.000  C
  C8       1.0000 0.78560  0.19120  0.31750  Biso   1.000  C
  N7       1.0000 0.25870  0.11010  0.95710  Biso   1.000  N
  N8       1.0000 0.74130  0.88990  0.04290  Biso   1.000  N
  C9       1.0000 0.20340  0.07980  0.14410  Biso   1.000  C
  C10      1.0000 0.79660  0.92020  0.85590  Biso   1.000  C
  H9       1.0000 0.13360  0.14110  0.11760  Biso   1.000  H
  H10      1.0000 0.86640  0.85890  0.88240  Biso   1.000  H
  C11      1.0000 0.15590  0.71050  0.37700  Biso   1.000  C
  C12      1.0000 0.84410  0.28950  0.62300  Biso   1.000  C
  C13      1.0000 0.30820  0.01020  0.09870  Biso   1.000  C
  C14      1.0000 0.69180  0.98980  0.90130  Biso   1.000  C
  C15      1.0000 0.14680  0.56690  0.38400  Biso   1.000  C
  C16      1.0000 0.85320  0.43310  0.61600  Biso   1.000  C
  C17      1.0000 0.54690  0.56730  0.87210  Biso   1.000  C
  C18      1.0000 0.45310  0.43270  0.12790  Biso   1.000  C
  H11      1.0000 0.58130  0.61240  0.91370  Biso   1.000  H
  H12      1.0000 0.41870  0.38760  0.08630  Biso   1.000  H
  C19      1.0000 0.31560  0.00730  0.00810  Biso   1.000  C
  C20      1.0000 0.68440  0.99270  0.99190  Biso   1.000  C
  C21      1.0000 0.14500  0.92520  0.64510  Biso   1.000  C
  C22      1.0000 0.85500  0.07480  0.35490  Biso   1.000  C
  H13      1.0000 0.08740  0.98290  0.67710  Biso   1.000  H
  H14      1.0000 0.91260  0.01710  0.32290  Biso   1.000  H
  C23      1.0000 0.79690  0.43750  0.86820  Biso   1.000  C
  C24      1.0000 0.20310  0.56250  0.13180  Biso   1.000  C
  H15      1.0000 0.82100  0.46950  0.91750  Biso   1.000  H
  H16      1.0000 0.17900  0.53050  0.08250  Biso   1.000  H
  H17      1.0000 0.83000  0.49630  0.81970  Biso   1.000  H
  H18      1.0000 0.17000  0.50370  0.18030  Biso   1.000  H
  C25      1.0000 0.20160  0.05880  0.22830  Biso   1.000  C
  C26      1.0000 0.79840  0.94120  0.77170  Biso   1.000  C
  H19      1.0000 0.13100  0.10900  0.25840  Biso   1.000  H
  H20      1.0000 0.86900  0.89100  0.74160  Biso   1.000  H
  C27      1.0000 0.40460  0.92110  0.14180  Biso   1.000  C
  C28      1.0000 0.59540  0.07890  0.85820  Biso   1.000  C
  H21      1.0000 0.47800  0.87100  0.11350  Biso   1.000  H
  H22      1.0000 0.52200  0.12900  0.88650  Biso   1.000  H
  C29      1.0000 0.19060  0.76320  0.77260  Biso   1.000  C
  C30      1.0000 0.80940  0.23680  0.22740  Biso   1.000  C
  C31      1.0000 0.22130  0.24430  0.97190  Biso   1.000  C
  C32      1.0000 0.77870  0.75570  0.02810  Biso   1.000  C
  H23      1.0000 0.28110  0.30100  0.93430  Biso   1.000  H
  H24      1.0000 0.71890  0.69900  0.06570  Biso   1.000  H
  H25      1.0000 0.24000  0.25120  0.02850  Biso   1.000  H
  H26      1.0000 0.76000  0.74880  0.97150  Biso   1.000  H
  C33      1.0000 0.27280  0.19390  0.41220  Biso   1.000  C
  C34      1.0000 0.72720  0.80610  0.58780  Biso   1.000  C
  C35      1.0000 0.29380  0.72660  0.63270  Biso   1.000  C
  C36      1.0000 0.70620  0.27340  0.36730  Biso   1.000  C
  H27      1.0000 0.34160  0.64540  0.65560  Biso   1.000  H
  H28      1.0000 0.65840  0.35460  0.34440  Biso   1.000  H
  C37      1.0000 0.39310  0.54450  0.89810  Biso   1.000  C
  C38      1.0000 0.60690  0.45550  0.10190  Biso   1.000  C
  H29      1.0000 0.36100  0.49230  0.86020  Biso   1.000  H
  H30      1.0000 0.63900  0.50770  0.13980  Biso   1.000  H
  H31      1.0000 0.38930  0.49290  0.95330  Biso   1.000  H
  H32      1.0000 0.61070  0.50710  0.04670  Biso   1.000  H
  C39      1.0000 0.63790  0.43840  0.87000  Biso   1.000  C
  C40      1.0000 0.36210  0.56160  0.13000  Biso   1.000  C
  H33      1.0000 0.61740  0.40260  0.82130  Biso   1.000  H
  H34      1.0000 0.38260  0.59740  0.17870  Biso   1.000  H
  H35      1.0000 0.60820  0.37790  0.91850  Biso   1.000  H
  H36      1.0000 0.39180  0.62210  0.08150  Biso   1.000  H
  C41      1.0000 0.08090  0.13320  0.85980  Biso   1.000  C
  C42      1.0000 0.91910  0.86680  0.14020  Biso   1.000  C
  H37      1.0000 0.02480  0.07240  0.89670  Biso   1.000  H
  H38      1.0000 0.97520  0.92760  0.10330  Biso   1.000  H
  H39      1.0000 0.06520  0.12450  0.80310  Biso   1.000  H
  H40      1.0000 0.93480  0.87550  0.19690  Biso   1.000  H
  C43      1.0000 0.29250  0.66910  0.89940  Biso   1.000  C
  C44      1.0000 0.70750  0.33090  0.10060  Biso   1.000  C
  H41      1.0000 0.19440  0.64900  0.91450  Biso   1.000  H
  H42      1.0000 0.80560  0.35100  0.08550  Biso   1.000  H
  H43      1.0000 0.31880  0.71990  0.93990  Biso   1.000  H
  H44      1.0000 0.68120  0.28010  0.06010  Biso   1.000  H
  C45      1.0000 0.23550  0.09410  0.87300  Biso   1.000  C
  C46      1.0000 0.76450  0.90590  0.12700  Biso   1.000  C
  H45      1.0000 0.26340  0.00210  0.86460  Biso   1.000  H
  H46      1.0000 0.73660  0.99790  0.13540  Biso   1.000  H
  H47      1.0000 0.29390  0.14940  0.83350  Biso   1.000  H
  H48      1.0000 0.70610  0.85060  0.16650  Biso   1.000  H
  C47      1.0000 0.20180  0.32830  0.40090  Biso   1.000  C
  C48      1.0000 0.79820  0.67170  0.59910  Biso   1.000  C
  C49      1.0000 0.44540  0.77740  0.79010  Biso   1.000  C
  C50      1.0000 0.55460  0.22260  0.20990  Biso   1.000  C
  H49      1.0000 0.47370  0.83410  0.82660  Biso   1.000  H
  H50      1.0000 0.52630  0.16590  0.17340  Biso   1.000  H
  H51      1.0000 0.44430  0.82680  0.73430  Biso   1.000  H
  H52      1.0000 0.55570  0.17320  0.26570  Biso   1.000  H
  C51      1.0000 0.03570  0.50730  0.36980  Biso   1.000  C
  C52      1.0000 0.96430  0.49270  0.63020  Biso   1.000  C
  H53      1.0000 0.94620  0.55220  0.35570  Biso   1.000  H
  H54      1.0000 0.05380  0.44780  0.64430  Biso   1.000  H
  C53      1.0000 0.06700  0.29050  0.95930  Biso   1.000  C
  C54      1.0000 0.93300  0.70950  0.04070  Biso   1.000  C
  H55      1.0000 0.04680  0.38400  0.96540  Biso   1.000  H
  H56      1.0000 0.95320  0.61600  0.03460  Biso   1.000  H
  H57      1.0000 0.00740  0.24160  0.00200  Biso   1.000  H
  H58      1.0000 0.99260  0.75840  0.99800  Biso   1.000  H
  C55      1.0000 0.06910  0.37170  0.37850  Biso   1.000  C
  C56      1.0000 0.93090  0.62830  0.62150  Biso   1.000  C
  H59      1.0000 0.00440  0.31510  0.36950  Biso   1.000  H
  H60      1.0000 0.99560  0.68490  0.63050  Biso   1.000  H
  C57      1.0000 0.02760  0.27170  0.87480  Biso   1.000  C
  C58      1.0000 0.97240  0.72830  0.12520  Biso   1.000  C
  H61      1.0000 0.07660  0.33280  0.83270  Biso   1.000  H
  H62      1.0000 0.92340  0.66720  0.16730  Biso   1.000  H
  C59      1.0000 0.30230  0.76420  0.54990  Biso   1.000  C
  C60      1.0000 0.69770  0.23580  0.45010  Biso   1.000  C
  H63      1.0000 0.35720  0.70730  0.51640  Biso   1.000  H
  H64      1.0000 0.64280  0.29270  0.48360  Biso   1.000  H
  C61      1.0000 0.87030  0.29960  0.86510  Biso   1.000  C
  C62      1.0000 0.12970  0.70040  0.13490  Biso   1.000  C
  H65      1.0000 0.82250  0.24090  0.90830  Biso   1.000  H
  H66      1.0000 0.17750  0.75910  0.09170  Biso   1.000  H
  H67      1.0000 0.85340  0.27470  0.81210  Biso   1.000  H
  H68      1.0000 0.14660  0.72530  0.18790  Biso   1.000  H
  O13      1.0000 0.51550  0.92870  0.40530  Biso   1.000  O
  O14      1.0000 0.48450  0.07130  0.59470  Biso   1.000  O
  H69      1.0000 0.56750  0.89360  0.36530  Biso   1.000  H
  H70      1.0000 0.43250  0.10640  0.63470  Biso   1.000  H
  H71      1.0000 0.53940  0.88290  0.45260  Biso   1.000  H
  H72      1.0000 0.46060  0.11710  0.54740  Biso   1.000  H
  O15      1.0000 0.76350  0.77500  0.33800  Biso   1.000  O
  O16      1.0000 0.23650  0.22500  0.66200  Biso   1.000  O
  H73      1.0000 0.75630  0.74540  0.38990  Biso   1.000  H
  H74      1.0000 0.24370  0.25460  0.61010  Biso   1.000  H
  H75      1.0000 0.84680  0.80000  0.32460  Biso   1.000  H
  H76      1.0000 0.15320  0.20000  0.67540  Biso   1.000  H
  O17      1.0000 0.58280  0.60140  0.31020  Biso   1.000  O
  O18      1.0000 0.41720  0.39860  0.68980  Biso   1.000  O
  H77      1.0000 0.64740  0.65370  0.30490  Biso   1.000  H
  H78      1.0000 0.35260  0.34630  0.69510  Biso   1.000  H
  H79      1.0000 0.53810  0.60100  0.35830  Biso   1.000  H
  H80      1.0000 0.46190  0.39900  0.64170  Biso   1.000  H
