data_image0
_cell_length_a       10.92
_cell_length_b       14.03
_cell_length_c       19.96
_cell_angle_alpha    90
_cell_angle_beta     90
_cell_angle_gamma    90

_symmetry_space_group_name_H-M    "P 1"
_symmetry_int_tables_number       1

loop_
  _symmetry_equiv_pos_as_xyz
  'x, y, z'

loop_
  _atom_site_label
  _atom_site_occupancy
  _atom_site_fract_x
  _atom_site_fract_y
  _atom_site_fract_z
  _atom_site_thermal_displace_type
  _atom_site_B_iso_or_equiv
  _atom_site_type_symbol
  Cu1      1.0000 0.87840  0.00000  0.00000  Biso   1.000  Cu
  Cu2      1.0000 0.12160  0.00000  0.00000  Biso   1.000  Cu
  Cu3      1.0000 0.37840  0.50000  0.50000  Biso   1.000  Cu
  Cu4      1.0000 0.62160  0.50000  0.50000  Biso   1.000  Cu
  O1       1.0000 0.91260  0.11560  0.05860  Biso   1.000  O
  O2       1.0000 0.08740  0.88440  0.05860  Biso   1.000  O
  O3       1.0000 0.08740  0.11560  0.94140  Biso   1.000  O
  O4       1.0000 0.91260  0.88440  0.94140  Biso   1.000  O
  O5       1.0000 0.41260  0.61560  0.55860  Biso   1.000  O
  O6       1.0000 0.58740  0.38440  0.55860  Biso   1.000  O
  O7       1.0000 0.58740  0.61560  0.44140  Biso   1.000  O
  O8       1.0000 0.41260  0.38440  0.44140  Biso   1.000  O
  O9       1.0000 0.11520  0.08290  0.07820  Biso   1.000  O
  O10      1.0000 0.88480  0.91710  0.07820  Biso   1.000  O
  O11      1.0000 0.88480  0.08290  0.92180  Biso   1.000  O
  O12      1.0000 0.11520  0.91710  0.92180  Biso   1.000  O
  O13      1.0000 0.61520  0.58290  0.57820  Biso   1.000  O
  O14      1.0000 0.38480  0.41710  0.57820  Biso   1.000  O
  O15      1.0000 0.38480  0.58290  0.42180  Biso   1.000  O
  O16      1.0000 0.61520  0.41710  0.42180  Biso   1.000  O
  O17      1.0000 0.68020  0.00000  0.00000  Biso   1.000  O
  O18      1.0000 0.31980  0.00000  0.00000  Biso   1.000  O
  O19      1.0000 0.18020  0.50000  0.50000  Biso   1.000  O
  O20      1.0000 0.81980  0.50000  0.50000  Biso   1.000  O
  O21      1.0000 0.15300  0.54920  0.34290  Biso   1.000  O
  O22      1.0000 0.84700  0.45080  0.34290  Biso   1.000  O
  O23      1.0000 0.84700  0.54920  0.65710  Biso   1.000  O
  O24      1.0000 0.15300  0.45080  0.65710  Biso   1.000  O
  O25      1.0000 0.65300  0.04920  0.84290  Biso   1.000  O
  O26      1.0000 0.34700  0.95080  0.84290  Biso   1.000  O
  O27      1.0000 0.34700  0.04920  0.15710  Biso   1.000  O
  O28      1.0000 0.65300  0.95080  0.15710  Biso   1.000  O
  H1       1.0000 0.21940  0.55200  0.36220  Biso   1.000  H
  H2       1.0000 0.78060  0.44800  0.36220  Biso   1.000  H
  H3       1.0000 0.78060  0.55200  0.63780  Biso   1.000  H
  H4       1.0000 0.21940  0.44800  0.63780  Biso   1.000  H
  H5       1.0000 0.71940  0.05200  0.86220  Biso   1.000  H
  H6       1.0000 0.28060  0.94800  0.86220  Biso   1.000  H
  H7       1.0000 0.28060  0.05200  0.13780  Biso   1.000  H
  H8       1.0000 0.71940  0.94800  0.13780  Biso   1.000  H
  C1       1.0000 0.05100  0.46400  0.25940  Biso   1.000  C
  C2       1.0000 0.94900  0.53600  0.25940  Biso   1.000  C
  C3       1.0000 0.94900  0.46400  0.74060  Biso   1.000  C
  C4       1.0000 0.05100  0.53600  0.74060  Biso   1.000  C
  C5       1.0000 0.55100  0.96400  0.75940  Biso   1.000  C
  C6       1.0000 0.44900  0.03600  0.75940  Biso   1.000  C
  C7       1.0000 0.44900  0.96400  0.24060  Biso   1.000  C
  C8       1.0000 0.55100  0.03600  0.24060  Biso   1.000  C
  C9       1.0000 0.15200  0.47170  0.30030  Biso   1.000  C
  C10      1.0000 0.84800  0.52830  0.30030  Biso   1.000  C
  C11      1.0000 0.84800  0.47170  0.69970  Biso   1.000  C
  C12      1.0000 0.15200  0.52830  0.69970  Biso   1.000  C
  C13      1.0000 0.65200  0.97170  0.80030  Biso   1.000  C
  C14      1.0000 0.34800  0.02830  0.80030  Biso   1.000  C
  C15      1.0000 0.34800  0.97170  0.19970  Biso   1.000  C
  C16      1.0000 0.65200  0.02830  0.19970  Biso   1.000  C
  C17      1.0000 0.24900  0.40500  0.29640  Biso   1.000  C
  C18      1.0000 0.75100  0.59500  0.29640  Biso   1.000  C
  C19      1.0000 0.75100  0.40500  0.70360  Biso   1.000  C
  C20      1.0000 0.24900  0.59500  0.70360  Biso   1.000  C
  C21      1.0000 0.74900  0.90500  0.79640  Biso   1.000  C
  C22      1.0000 0.25100  0.09500  0.79640  Biso   1.000  C
  C23      1.0000 0.25100  0.90500  0.20360  Biso   1.000  C
  C24      1.0000 0.74900  0.09500  0.20360  Biso   1.000  C
  H9       1.0000 0.31890  0.41450  0.32200  Biso   1.000  H
  H10      1.0000 0.68110  0.58550  0.32200  Biso   1.000  H
  H11      1.0000 0.68110  0.41450  0.67800  Biso   1.000  H
  H12      1.0000 0.31890  0.58550  0.67800  Biso   1.000  H
  H13      1.0000 0.81890  0.91450  0.82200  Biso   1.000  H
  H14      1.0000 0.18110  0.08550  0.82200  Biso   1.000  H
  H15      1.0000 0.18110  0.91450  0.17800  Biso   1.000  H
  H16      1.0000 0.81890  0.08550  0.17800  Biso   1.000  H
  C25      1.0000 0.24000  0.32680  0.25520  Biso   1.000  C
  C26      1.0000 0.76000  0.67320  0.25520  Biso   1.000  C
  C27      1.0000 0.76000  0.32680  0.74480  Biso   1.000  C
  C28      1.0000 0.24000  0.67320  0.74480  Biso   1.000  C
  C29      1.0000 0.74000  0.82680  0.75520  Biso   1.000  C
  C30      1.0000 0.26000  0.17320  0.75520  Biso   1.000  C
  C31      1.0000 0.26000  0.82680  0.24480  Biso   1.000  C
  C32      1.0000 0.74000  0.17320  0.24480  Biso   1.000  C
  H17      1.0000 0.30330  0.28220  0.25460  Biso   1.000  H
  H18      1.0000 0.69670  0.71780  0.25460  Biso   1.000  H
  H19      1.0000 0.69670  0.28220  0.74540  Biso   1.000  H
  H20      1.0000 0.30330  0.71780  0.74540  Biso   1.000  H
  H21      1.0000 0.80330  0.78220  0.75460  Biso   1.000  H
  H22      1.0000 0.19670  0.21780  0.75460  Biso   1.000  H
  H23      1.0000 0.19670  0.78220  0.24540  Biso   1.000  H
  H24      1.0000 0.80330  0.21780  0.24540  Biso   1.000  H
  C33      1.0000 0.13200  0.23270  0.17100  Biso   1.000  C
  C34      1.0000 0.86800  0.76730  0.17100  Biso   1.000  C
  C35      1.0000 0.86800  0.23270  0.82900  Biso   1.000  C
  C36      1.0000 0.13200  0.76730  0.82900  Biso   1.000  C
  C37      1.0000 0.63200  0.73270  0.67100  Biso   1.000  C
  C38      1.0000 0.36800  0.26730  0.67100  Biso   1.000  C
  C39      1.0000 0.36800  0.73270  0.32900  Biso   1.000  C
  C40      1.0000 0.63200  0.26730  0.32900  Biso   1.000  C
  H25      1.0000 0.19560  0.18870  0.16940  Biso   1.000  H
  H26      1.0000 0.80440  0.81130  0.16940  Biso   1.000  H
  H27      1.0000 0.80440  0.18870  0.83060  Biso   1.000  H
  H28      1.0000 0.19560  0.81130  0.83060  Biso   1.000  H
  H29      1.0000 0.69560  0.68870  0.66940  Biso   1.000  H
  H30      1.0000 0.30440  0.31130  0.66940  Biso   1.000  H
  H31      1.0000 0.30440  0.68870  0.33060  Biso   1.000  H
  H32      1.0000 0.69560  0.31130  0.33060  Biso   1.000  H
  C41      1.0000 0.02700  0.22100  0.13090  Biso   1.000  C
  C42      1.0000 0.97300  0.77900  0.13090  Biso   1.000  C
  C43      1.0000 0.97300  0.22100  0.86910  Biso   1.000  C
  C44      1.0000 0.02700  0.77900  0.86910  Biso   1.000  C
  C45      1.0000 0.52700  0.72100  0.63090  Biso   1.000  C
  C46      1.0000 0.47300  0.27900  0.63090  Biso   1.000  C
  C47      1.0000 0.47300  0.72100  0.36910  Biso   1.000  C
  C48      1.0000 0.52700  0.27900  0.36910  Biso   1.000  C
  C49      1.0000 0.93460  0.28810  0.12950  Biso   1.000  C
  C50      1.0000 0.06540  0.71190  0.12950  Biso   1.000  C
  C51      1.0000 0.06540  0.28810  0.87050  Biso   1.000  C
  C52      1.0000 0.93460  0.71190  0.87050  Biso   1.000  C
  C53      1.0000 0.43460  0.78810  0.62950  Biso   1.000  C
  C54      1.0000 0.56540  0.21190  0.62950  Biso   1.000  C
  C55      1.0000 0.56540  0.78810  0.37050  Biso   1.000  C
  C56      1.0000 0.43460  0.21190  0.37050  Biso   1.000  C
  H33      1.0000 0.86800  0.27970  0.10110  Biso   1.000  H
  H34      1.0000 0.13200  0.72030  0.10110  Biso   1.000  H
  H35      1.0000 0.13200  0.27970  0.89890  Biso   1.000  H
  H36      1.0000 0.86800  0.72030  0.89890  Biso   1.000  H
  H37      1.0000 0.36800  0.77970  0.60110  Biso   1.000  H
  H38      1.0000 0.63200  0.22030  0.60110  Biso   1.000  H
  H39      1.0000 0.63200  0.77970  0.39890  Biso   1.000  H
  H40      1.0000 0.36800  0.22030  0.39890  Biso   1.000  H
  C57      1.0000 0.94040  0.36860  0.17040  Biso   1.000  C
  C58      1.0000 0.05960  0.63140  0.17040  Biso   1.000  C
  C59      1.0000 0.05960  0.36860  0.82960  Biso   1.000  C
  C60      1.0000 0.94040  0.63140  0.82960  Biso   1.000  C
  C61      1.0000 0.44040  0.86860  0.67040  Biso   1.000  C
  C62      1.0000 0.55960  0.13140  0.67040  Biso   1.000  C
  C63      1.0000 0.55960  0.86860  0.32960  Biso   1.000  C
  C64      1.0000 0.44040  0.13140  0.32960  Biso   1.000  C
  H41      1.0000 0.87780  0.41340  0.16920  Biso   1.000  H
  H42      1.0000 0.12220  0.58660  0.16920  Biso   1.000  H
  H43      1.0000 0.12220  0.41340  0.83080  Biso   1.000  H
  H44      1.0000 0.87780  0.58660  0.83080  Biso   1.000  H
  H45      1.0000 0.37780  0.91340  0.66920  Biso   1.000  H
  H46      1.0000 0.62220  0.08660  0.66920  Biso   1.000  H
  H47      1.0000 0.62220  0.91340  0.33080  Biso   1.000  H
  H48      1.0000 0.37780  0.08660  0.33080  Biso   1.000  H
  C65      1.0000 0.03900  0.38180  0.21260  Biso   1.000  C
  C66      1.0000 0.96100  0.61820  0.21260  Biso   1.000  C
  C67      1.0000 0.96100  0.38180  0.78740  Biso   1.000  C
  C68      1.0000 0.03900  0.61820  0.78740  Biso   1.000  C
  C69      1.0000 0.53900  0.88180  0.71260  Biso   1.000  C
  C70      1.0000 0.46100  0.11820  0.71260  Biso   1.000  C
  C71      1.0000 0.46100  0.88180  0.28740  Biso   1.000  C
  C72      1.0000 0.53900  0.11820  0.28740  Biso   1.000  C
  C73      1.0000 0.13800  0.31380  0.21420  Biso   1.000  C
  C74      1.0000 0.86200  0.68620  0.21420  Biso   1.000  C
  C75      1.0000 0.86200  0.31380  0.78580  Biso   1.000  C
  C76      1.0000 0.13800  0.68620  0.78580  Biso   1.000  C
  C77      1.0000 0.63800  0.81380  0.71420  Biso   1.000  C
  C78      1.0000 0.36200  0.18620  0.71420  Biso   1.000  C
  C79      1.0000 0.36200  0.81380  0.28580  Biso   1.000  C
  C80      1.0000 0.63800  0.18620  0.28580  Biso   1.000  C
  C81      1.0000 0.01900  0.13260  0.08420  Biso   1.000  C
  C82      1.0000 0.98100  0.86740  0.08420  Biso   1.000  C
  C83      1.0000 0.98100  0.13260  0.91580  Biso   1.000  C
  C84      1.0000 0.01900  0.86740  0.91580  Biso   1.000  C
  C85      1.0000 0.51900  0.63260  0.58420  Biso   1.000  C
  C86      1.0000 0.48100  0.36740  0.58420  Biso   1.000  C
  C87      1.0000 0.48100  0.63260  0.41580  Biso   1.000  C
  C88      1.0000 0.51900  0.36740  0.41580  Biso   1.000  C
  C89      1.0000 0.24200  0.93300  0.47400  Biso   1.000  C
  C90      1.0000 0.75800  0.06700  0.47400  Biso   1.000  C
  C91      1.0000 0.75800  0.93300  0.52600  Biso   1.000  C
  C92      1.0000 0.24200  0.06700  0.52600  Biso   1.000  C
  C93      1.0000 0.74200  0.43300  0.97400  Biso   1.000  C
  C94      1.0000 0.25800  0.56700  0.97400  Biso   1.000  C
  C95      1.0000 0.25800  0.43300  0.02600  Biso   1.000  C
  C96      1.0000 0.74200  0.56700  0.02600  Biso   1.000  C
  O29      1.0000 0.32300  0.00000  0.50000  Biso   1.000  O
  O30      1.0000 0.67700  0.00000  0.50000  Biso   1.000  O
  O31      1.0000 0.82300  0.50000  0.00000  Biso   1.000  O
  O32      1.0000 0.17700  0.50000  0.00000  Biso   1.000  O
  O33      1.0000 0.01700  0.37200  0.44400  Biso   1.000  O
  O34      1.0000 0.98300  0.62800  0.44400  Biso   1.000  O
  O35      1.0000 0.98300  0.37200  0.55600  Biso   1.000  O
  O36      1.0000 0.01700  0.62800  0.55600  Biso   1.000  O
  O37      1.0000 0.51700  0.87200  0.94400  Biso   1.000  O
  O38      1.0000 0.48300  0.12800  0.94400  Biso   1.000  O
  O39      1.0000 0.48300  0.87200  0.05600  Biso   1.000  O
  O40      1.0000 0.51700  0.12800  0.05600  Biso   1.000  O
  O41      1.0000 0.02700  0.25000  0.39100  Biso   1.000  O
  O42      1.0000 0.97300  0.75000  0.39100  Biso   1.000  O
  O43      1.0000 0.97300  0.25000  0.60900  Biso   1.000  O
  O44      1.0000 0.02700  0.75000  0.60900  Biso   1.000  O
  O45      1.0000 0.52700  0.75000  0.89100  Biso   1.000  O
  O46      1.0000 0.47300  0.25000  0.89100  Biso   1.000  O
  O47      1.0000 0.47300  0.75000  0.10900  Biso   1.000  O
  O48      1.0000 0.52700  0.25000  0.10900  Biso   1.000  O
