data_image0
_cell_length_a       18.175
_cell_length_b       8.735
_cell_length_c       30.413
_cell_angle_alpha    90
_cell_angle_beta     90
_cell_angle_gamma    90

_symmetry_space_group_name_H-M    "P 1"
_symmetry_int_tables_number       1

loop_
  _symmetry_equiv_pos_as_xyz
  'x, y, z'

loop_
  _atom_site_label
  _atom_site_occupancy
  _atom_site_fract_x
  _atom_site_fract_y
  _atom_site_fract_z
  _atom_site_thermal_displace_type
  _atom_site_B_iso_or_equiv
  _atom_site_type_symbol
  Cu1      1.0000 0.69693  0.39150  0.66113  Biso   1.000  Cu
  Cu2      1.0000 0.80307  0.10850  0.16113  Biso   1.000  Cu
  Cu3      1.0000 0.30307  0.39150  0.83887  Biso   1.000  Cu
  Cu4      1.0000 0.19693  0.10850  0.33887  Biso   1.000  Cu
  Cu5      1.0000 0.30307  0.60850  0.33887  Biso   1.000  Cu
  Cu6      1.0000 0.19693  0.89150  0.83887  Biso   1.000  Cu
  Cu7      1.0000 0.69693  0.60850  0.16113  Biso   1.000  Cu
  Cu8      1.0000 0.80307  0.89150  0.66113  Biso   1.000  Cu
  S1       1.0000 0.85658  0.49742  0.67157  Biso   1.000  S
  S2       1.0000 0.64342  0.00258  0.17157  Biso   1.000  S
  S3       1.0000 0.14342  0.49742  0.82843  Biso   1.000  S
  S4       1.0000 0.35658  0.00258  0.32843  Biso   1.000  S
  S5       1.0000 0.14342  0.50258  0.32843  Biso   1.000  S
  S6       1.0000 0.35658  0.99742  0.82843  Biso   1.000  S
  S7       1.0000 0.85658  0.50258  0.17157  Biso   1.000  S
  S8       1.0000 0.64342  0.99742  0.67157  Biso   1.000  S
  O1       1.0000 0.80411  0.36650  0.66539  Biso   1.000  O
  O2       1.0000 0.69589  0.13350  0.16539  Biso   1.000  O
  O3       1.0000 0.19589  0.36650  0.83461  Biso   1.000  O
  O4       1.0000 0.30411  0.13350  0.33461  Biso   1.000  O
  O5       1.0000 0.19589  0.63350  0.33461  Biso   1.000  O
  O6       1.0000 0.30411  0.86650  0.83461  Biso   1.000  O
  O7       1.0000 0.80411  0.63350  0.16539  Biso   1.000  O
  O8       1.0000 0.69589  0.86650  0.66539  Biso   1.000  O
  O9       1.0000 0.81470  0.63960  0.66682  Biso   1.000  O
  O10      1.0000 0.68530  0.86040  0.16682  Biso   1.000  O
  O11      1.0000 0.18530  0.63960  0.83318  Biso   1.000  O
  O12      1.0000 0.31470  0.86040  0.33318  Biso   1.000  O
  O13      1.0000 0.18530  0.36040  0.33318  Biso   1.000  O
  O14      1.0000 0.31470  0.13960  0.83318  Biso   1.000  O
  O15      1.0000 0.81470  0.36040  0.16682  Biso   1.000  O
  O16      1.0000 0.68530  0.13960  0.66682  Biso   1.000  O
  O17      1.0000 0.91200  0.48800  0.63731  Biso   1.000  O
  O18      1.0000 0.58800  0.01200  0.13731  Biso   1.000  O
  O19      1.0000 0.08800  0.48800  0.86269  Biso   1.000  O
  O20      1.0000 0.41200  0.01200  0.36269  Biso   1.000  O
  O21      1.0000 0.08800  0.51200  0.36269  Biso   1.000  O
  O22      1.0000 0.41200  0.98800  0.86269  Biso   1.000  O
  O23      1.0000 0.91200  0.51200  0.13731  Biso   1.000  O
  O24      1.0000 0.58800  0.98800  0.63731  Biso   1.000  O
  O25      1.0000 0.88870  0.48560  0.71436  Biso   1.000  O
  O26      1.0000 0.61130  0.01440  0.21436  Biso   1.000  O
  O27      1.0000 0.11130  0.48560  0.78564  Biso   1.000  O
  O28      1.0000 0.38870  0.01440  0.28564  Biso   1.000  O
  O29      1.0000 0.11130  0.51440  0.28564  Biso   1.000  O
  O30      1.0000 0.38870  0.98560  0.78564  Biso   1.000  O
  O31      1.0000 0.88870  0.51440  0.21436  Biso   1.000  O
  O32      1.0000 0.61130  0.98560  0.71436  Biso   1.000  O
  N1       1.0000 0.70420  0.37420  0.59402  Biso   1.000  N
  N2       1.0000 0.79580  0.12580  0.09402  Biso   1.000  N
  N3       1.0000 0.29580  0.37420  0.90598  Biso   1.000  N
  N4       1.0000 0.20420  0.12580  0.40598  Biso   1.000  N
  N5       1.0000 0.29580  0.62580  0.40598  Biso   1.000  N
  N6       1.0000 0.20420  0.87420  0.90598  Biso   1.000  N
  N7       1.0000 0.70420  0.62580  0.09402  Biso   1.000  N
  N8       1.0000 0.79580  0.87420  0.59402  Biso   1.000  N
  N9       1.0000 0.40830  0.54300  0.34908  Biso   1.000  N
  N10      1.0000 0.09170  0.95700  0.84908  Biso   1.000  N
  N11      1.0000 0.59170  0.54300  0.15092  Biso   1.000  N
  N12      1.0000 0.90830  0.95700  0.65092  Biso   1.000  N
  N13      1.0000 0.59170  0.45700  0.65092  Biso   1.000  N
  N14      1.0000 0.90830  0.04300  0.15092  Biso   1.000  N
  N15      1.0000 0.40830  0.45700  0.84908  Biso   1.000  N
  N16      1.0000 0.09170  0.04300  0.34908  Biso   1.000  N
  N17      1.0000 0.68760  0.55860  0.22549  Biso   1.000  N
  N18      1.0000 0.81240  0.94140  0.72549  Biso   1.000  N
  N19      1.0000 0.31240  0.55860  0.27451  Biso   1.000  N
  N20      1.0000 0.18760  0.94140  0.77451  Biso   1.000  N
  N21      1.0000 0.31240  0.44140  0.77451  Biso   1.000  N
  N22      1.0000 0.18760  0.05860  0.27451  Biso   1.000  N
  N23      1.0000 0.68760  0.44140  0.72549  Biso   1.000  N
  N24      1.0000 0.81240  0.05860  0.22549  Biso   1.000  N
  N25      1.0000 0.98730  0.31230  0.47430  Biso   1.000  N
  N26      1.0000 0.51270  0.18770  0.97430  Biso   1.000  N
  N27      1.0000 0.01270  0.31230  0.02570  Biso   1.000  N
  N28      1.0000 0.48730  0.18770  0.52570  Biso   1.000  N
  N29      1.0000 0.01270  0.68770  0.52570  Biso   1.000  N
  N30      1.0000 0.48730  0.81230  0.02570  Biso   1.000  N
  N31      1.0000 0.98730  0.68770  0.97430  Biso   1.000  N
  N32      1.0000 0.51270  0.81230  0.47430  Biso   1.000  N
  C1       1.0000 0.70470  0.37750  0.45278  Biso   1.000  C
  C2       1.0000 0.79530  0.12250  0.95278  Biso   1.000  C
  C3       1.0000 0.29530  0.37750  0.04722  Biso   1.000  C
  C4       1.0000 0.20470  0.12250  0.54722  Biso   1.000  C
  C5       1.0000 0.29530  0.62250  0.54722  Biso   1.000  C
  C6       1.0000 0.20470  0.87750  0.04722  Biso   1.000  C
  C7       1.0000 0.70470  0.62250  0.95278  Biso   1.000  C
  C8       1.0000 0.79530  0.87750  0.45278  Biso   1.000  C
  C9       1.0000 0.63660  0.39400  0.43302  Biso   1.000  C
  C10      1.0000 0.86340  0.10600  0.93302  Biso   1.000  C
  C11      1.0000 0.36340  0.39400  0.06698  Biso   1.000  C
  C12      1.0000 0.13660  0.10600  0.56698  Biso   1.000  C
  C13      1.0000 0.36340  0.60600  0.56698  Biso   1.000  C
  C14      1.0000 0.13660  0.89400  0.06698  Biso   1.000  C
  C15      1.0000 0.63660  0.60600  0.93302  Biso   1.000  C
  C16      1.0000 0.86340  0.89400  0.43302  Biso   1.000  C
  H1       1.0000 0.59480  0.37990  0.45020  Biso   1.000  H
  H2       1.0000 0.90520  0.12010  0.95020  Biso   1.000  H
  H3       1.0000 0.40520  0.37990  0.04980  Biso   1.000  H
  H4       1.0000 0.09480  0.12010  0.54980  Biso   1.000  H
  H5       1.0000 0.40520  0.62010  0.54980  Biso   1.000  H
  H6       1.0000 0.09480  0.87990  0.04980  Biso   1.000  H
  H7       1.0000 0.59480  0.62010  0.95020  Biso   1.000  H
  H8       1.0000 0.90520  0.87990  0.45020  Biso   1.000  H
  C17      1.0000 0.62730  0.43060  0.38898  Biso   1.000  C
  C18      1.0000 0.87270  0.06940  0.88898  Biso   1.000  C
  C19      1.0000 0.37270  0.43060  0.11102  Biso   1.000  C
  C20      1.0000 0.12730  0.06940  0.61102  Biso   1.000  C
  C21      1.0000 0.37270  0.56940  0.61102  Biso   1.000  C
  C22      1.0000 0.12730  0.93060  0.11102  Biso   1.000  C
  C23      1.0000 0.62730  0.56940  0.88898  Biso   1.000  C
  C24      1.0000 0.87270  0.93060  0.38898  Biso   1.000  C
  C25      1.0000 0.69080  0.44870  0.36299  Biso   1.000  C
  C26      1.0000 0.80920  0.05130  0.86299  Biso   1.000  C
  C27      1.0000 0.30920  0.44870  0.13701  Biso   1.000  C
  C28      1.0000 0.19080  0.05130  0.63701  Biso   1.000  C
  C29      1.0000 0.30920  0.55130  0.63701  Biso   1.000  C
  C30      1.0000 0.19080  0.94870  0.13701  Biso   1.000  C
  C31      1.0000 0.69080  0.55130  0.86299  Biso   1.000  C
  C32      1.0000 0.80920  0.94870  0.36299  Biso   1.000  C
  C33      1.0000 0.75920  0.42380  0.38253  Biso   1.000  C
  C34      1.0000 0.74080  0.07620  0.88253  Biso   1.000  C
  C35      1.0000 0.24080  0.42380  0.11747  Biso   1.000  C
  C36      1.0000 0.25920  0.07620  0.61747  Biso   1.000  C
  C37      1.0000 0.24080  0.57620  0.61747  Biso   1.000  C
  C38      1.0000 0.25920  0.92380  0.11747  Biso   1.000  C
  C39      1.0000 0.75920  0.57620  0.88253  Biso   1.000  C
  C40      1.0000 0.74080  0.92380  0.38253  Biso   1.000  C
  H9       1.0000 0.80090  0.43030  0.36490  Biso   1.000  H
  H10      1.0000 0.69910  0.06970  0.86490  Biso   1.000  H
  H11      1.0000 0.19910  0.43030  0.13510  Biso   1.000  H
  H12      1.0000 0.30090  0.06970  0.63510  Biso   1.000  H
  H13      1.0000 0.19910  0.56970  0.63510  Biso   1.000  H
  H14      1.0000 0.30090  0.93030  0.13510  Biso   1.000  H
  H15      1.0000 0.80090  0.56970  0.86490  Biso   1.000  H
  H16      1.0000 0.69910  0.93030  0.36490  Biso   1.000  H
  C41      1.0000 0.76830  0.39000  0.42647  Biso   1.000  C
  C42      1.0000 0.73170  0.11000  0.92647  Biso   1.000  C
  C43      1.0000 0.23170  0.39000  0.07353  Biso   1.000  C
  C44      1.0000 0.26830  0.11000  0.57353  Biso   1.000  C
  C45      1.0000 0.23170  0.61000  0.57353  Biso   1.000  C
  C46      1.0000 0.26830  0.89000  0.07353  Biso   1.000  C
  C47      1.0000 0.76830  0.61000  0.92647  Biso   1.000  C
  C48      1.0000 0.73170  0.89000  0.42647  Biso   1.000  C
  C49      1.0000 0.70690  0.37030  0.50193  Biso   1.000  C
  C50      1.0000 0.79310  0.12970  0.00193  Biso   1.000  C
  C51      1.0000 0.29310  0.37030  0.99807  Biso   1.000  C
  C52      1.0000 0.20690  0.12970  0.49807  Biso   1.000  C
  C53      1.0000 0.29310  0.62970  0.49807  Biso   1.000  C
  C54      1.0000 0.20690  0.87030  0.99807  Biso   1.000  C
  C55      1.0000 0.70690  0.62970  0.00193  Biso   1.000  C
  C56      1.0000 0.79310  0.87030  0.50193  Biso   1.000  C
  C57      1.0000 0.65370  0.29180  0.52588  Biso   1.000  C
  C58      1.0000 0.84630  0.20820  0.02588  Biso   1.000  C
  C59      1.0000 0.34630  0.29180  0.97412  Biso   1.000  C
  C60      1.0000 0.15370  0.20820  0.47412  Biso   1.000  C
  C61      1.0000 0.34630  0.70820  0.47412  Biso   1.000  C
  C62      1.0000 0.15370  0.79180  0.97412  Biso   1.000  C
  C63      1.0000 0.65370  0.70820  0.02588  Biso   1.000  C
  C64      1.0000 0.84630  0.79180  0.52588  Biso   1.000  C
  H17      1.0000 0.61780  0.23540  0.51130  Biso   1.000  H
  H18      1.0000 0.88220  0.26460  0.01130  Biso   1.000  H
  H19      1.0000 0.38220  0.23540  0.98870  Biso   1.000  H
  H20      1.0000 0.11780  0.26460  0.48870  Biso   1.000  H
  H21      1.0000 0.38220  0.76460  0.48870  Biso   1.000  H
  H22      1.0000 0.11780  0.73540  0.98870  Biso   1.000  H
  H23      1.0000 0.61780  0.76460  0.01130  Biso   1.000  H
  H24      1.0000 0.88220  0.73540  0.51130  Biso   1.000  H
  C65      1.0000 0.65430  0.29750  0.57105  Biso   1.000  C
  C66      1.0000 0.84570  0.20250  0.07105  Biso   1.000  C
  C67      1.0000 0.34570  0.29750  0.92895  Biso   1.000  C
  C68      1.0000 0.15430  0.20250  0.42895  Biso   1.000  C
  C69      1.0000 0.34570  0.70250  0.42895  Biso   1.000  C
  C70      1.0000 0.15430  0.79750  0.92895  Biso   1.000  C
  C71      1.0000 0.65430  0.70250  0.07105  Biso   1.000  C
  C72      1.0000 0.84570  0.79750  0.57105  Biso   1.000  C
  H25      1.0000 0.61780  0.24490  0.58630  Biso   1.000  H
  H26      1.0000 0.88220  0.25510  0.08630  Biso   1.000  H
  H27      1.0000 0.38220  0.24490  0.91370  Biso   1.000  H
  H28      1.0000 0.11780  0.25510  0.41370  Biso   1.000  H
  H29      1.0000 0.38220  0.75510  0.41370  Biso   1.000  H
  H30      1.0000 0.11780  0.74490  0.91370  Biso   1.000  H
  H31      1.0000 0.61780  0.75510  0.08630  Biso   1.000  H
  H32      1.0000 0.88220  0.74490  0.58630  Biso   1.000  H
  C73      1.0000 0.75500  0.45020  0.57146  Biso   1.000  C
  C74      1.0000 0.74500  0.04980  0.07146  Biso   1.000  C
  C75      1.0000 0.24500  0.45020  0.92854  Biso   1.000  C
  C76      1.0000 0.25500  0.04980  0.42854  Biso   1.000  C
  C77      1.0000 0.24500  0.54980  0.42854  Biso   1.000  C
  C78      1.0000 0.25500  0.95020  0.92854  Biso   1.000  C
  C79      1.0000 0.75500  0.54980  0.07146  Biso   1.000  C
  C80      1.0000 0.74500  0.95020  0.57146  Biso   1.000  C
  H33      1.0000 0.78990  0.50590  0.58710  Biso   1.000  H
  H34      1.0000 0.71010  0.99410  0.08710  Biso   1.000  H
  H35      1.0000 0.21010  0.50590  0.91290  Biso   1.000  H
  H36      1.0000 0.28990  0.99410  0.41290  Biso   1.000  H
  H37      1.0000 0.21010  0.49410  0.41290  Biso   1.000  H
  H38      1.0000 0.28990  0.00590  0.91290  Biso   1.000  H
  H39      1.0000 0.78990  0.49410  0.08710  Biso   1.000  H
  H40      1.0000 0.71010  0.00590  0.58710  Biso   1.000  H
  C81      1.0000 0.75880  0.45130  0.52666  Biso   1.000  C
  C82      1.0000 0.74120  0.04870  0.02666  Biso   1.000  C
  C83      1.0000 0.24120  0.45130  0.97334  Biso   1.000  C
  C84      1.0000 0.25880  0.04870  0.47334  Biso   1.000  C
  C85      1.0000 0.24120  0.54870  0.47334  Biso   1.000  C
  C86      1.0000 0.25880  0.95130  0.97334  Biso   1.000  C
  C87      1.0000 0.75880  0.54870  0.02666  Biso   1.000  C
  C88      1.0000 0.74120  0.95130  0.52666  Biso   1.000  C
  H41      1.0000 0.79590  0.50580  0.51260  Biso   1.000  H
  H42      1.0000 0.70410  0.99420  0.01260  Biso   1.000  H
  H43      1.0000 0.20410  0.50580  0.98740  Biso   1.000  H
  H44      1.0000 0.29590  0.99420  0.48740  Biso   1.000  H
  H45      1.0000 0.20410  0.49420  0.48740  Biso   1.000  H
  H46      1.0000 0.29590  0.00580  0.98740  Biso   1.000  H
  H47      1.0000 0.79590  0.49420  0.01260  Biso   1.000  H
  H48      1.0000 0.70410  0.00580  0.51260  Biso   1.000  H
  C89      1.0000 0.55180  0.46610  0.37317  Biso   1.000  C
  C90      1.0000 0.94820  0.03390  0.87317  Biso   1.000  C
  C91      1.0000 0.44820  0.46610  0.12683  Biso   1.000  C
  C92      1.0000 0.05180  0.03390  0.62683  Biso   1.000  C
  C93      1.0000 0.44820  0.53390  0.62683  Biso   1.000  C
  C94      1.0000 0.05180  0.96610  0.12683  Biso   1.000  C
  C95      1.0000 0.55180  0.53390  0.87317  Biso   1.000  C
  C96      1.0000 0.94820  0.96610  0.37317  Biso   1.000  C
  C97      1.0000 0.53580  0.60540  0.35339  Biso   1.000  C
  C98      1.0000 0.96420  0.89460  0.85339  Biso   1.000  C
  C99      1.0000 0.46420  0.60540  0.14661  Biso   1.000  C
  C100     1.0000 0.03580  0.89460  0.64661  Biso   1.000  C
  C101     1.0000 0.46420  0.39460  0.64661  Biso   1.000  C
  C102     1.0000 0.03580  0.10540  0.14661  Biso   1.000  C
  C103     1.0000 0.53580  0.39460  0.85339  Biso   1.000  C
  C104     1.0000 0.96420  0.10540  0.35339  Biso   1.000  C
  H49      1.0000 0.57300  0.67580  0.34790  Biso   1.000  H
  H50      1.0000 0.92700  0.82420  0.84790  Biso   1.000  H
  H51      1.0000 0.42700  0.67580  0.15210  Biso   1.000  H
  H52      1.0000 0.07300  0.82420  0.65210  Biso   1.000  H
  H53      1.0000 0.42700  0.32420  0.65210  Biso   1.000  H
  H54      1.0000 0.07300  0.17580  0.15210  Biso   1.000  H
  H55      1.0000 0.57300  0.32420  0.84790  Biso   1.000  H
  H56      1.0000 0.92700  0.17580  0.34790  Biso   1.000  H
  C105     1.0000 0.46430  0.63850  0.34192  Biso   1.000  C
  C106     1.0000 0.03570  0.86150  0.84192  Biso   1.000  C
  C107     1.0000 0.53570  0.63850  0.15808  Biso   1.000  C
  C108     1.0000 0.96430  0.86150  0.65808  Biso   1.000  C
  C109     1.0000 0.53570  0.36150  0.65808  Biso   1.000  C
  C110     1.0000 0.96430  0.13850  0.15808  Biso   1.000  C
  C111     1.0000 0.46430  0.36150  0.84192  Biso   1.000  C
  C112     1.0000 0.03570  0.13850  0.34192  Biso   1.000  C
  H57      1.0000 0.45460  0.73210  0.32850  Biso   1.000  H
  H58      1.0000 0.04540  0.76790  0.82850  Biso   1.000  H
  H59      1.0000 0.54540  0.73210  0.17150  Biso   1.000  H
  H60      1.0000 0.95460  0.76790  0.67150  Biso   1.000  H
  H61      1.0000 0.54540  0.26790  0.67150  Biso   1.000  H
  H62      1.0000 0.95460  0.23210  0.17150  Biso   1.000  H
  H63      1.0000 0.45460  0.26790  0.82850  Biso   1.000  H
  H64      1.0000 0.04540  0.23210  0.32850  Biso   1.000  H
  C113     1.0000 0.42320  0.40720  0.36768  Biso   1.000  C
  C114     1.0000 0.07680  0.09280  0.86768  Biso   1.000  C
  C115     1.0000 0.57680  0.40720  0.13232  Biso   1.000  C
  C116     1.0000 0.92320  0.09280  0.63232  Biso   1.000  C
  C117     1.0000 0.57680  0.59280  0.63232  Biso   1.000  C
  C118     1.0000 0.92320  0.90720  0.13232  Biso   1.000  C
  C119     1.0000 0.42320  0.59280  0.86768  Biso   1.000  C
  C120     1.0000 0.07680  0.90720  0.36768  Biso   1.000  C
  H65      1.0000 0.38500  0.33790  0.37210  Biso   1.000  H
  H66      1.0000 0.11500  0.16210  0.87210  Biso   1.000  H
  H67      1.0000 0.61500  0.33790  0.12790  Biso   1.000  H
  H68      1.0000 0.88500  0.16210  0.62790  Biso   1.000  H
  H69      1.0000 0.61500  0.66210  0.62790  Biso   1.000  H
  H70      1.0000 0.88500  0.83790  0.12790  Biso   1.000  H
  H71      1.0000 0.38500  0.66210  0.87210  Biso   1.000  H
  H72      1.0000 0.11500  0.83790  0.37210  Biso   1.000  H
  C121     1.0000 0.49380  0.36700  0.38047  Biso   1.000  C
  C122     1.0000 0.00620  0.13300  0.88047  Biso   1.000  C
  C123     1.0000 0.50620  0.36700  0.11953  Biso   1.000  C
  C124     1.0000 0.99380  0.13300  0.61953  Biso   1.000  C
  C125     1.0000 0.50620  0.63300  0.61953  Biso   1.000  C
  C126     1.0000 0.99380  0.86700  0.11953  Biso   1.000  C
  C127     1.0000 0.49380  0.63300  0.88047  Biso   1.000  C
  C128     1.0000 0.00620  0.86700  0.38047  Biso   1.000  C
  H73      1.0000 0.50210  0.27320  0.39400  Biso   1.000  H
  H74      1.0000 0.99790  0.22680  0.89400  Biso   1.000  H
  H75      1.0000 0.49790  0.27320  0.10600  Biso   1.000  H
  H76      1.0000 0.00210  0.22680  0.60600  Biso   1.000  H
  H77      1.0000 0.49790  0.72680  0.60600  Biso   1.000  H
  H78      1.0000 0.00210  0.77320  0.10600  Biso   1.000  H
  H79      1.0000 0.50210  0.72680  0.89400  Biso   1.000  H
  H80      1.0000 0.99790  0.77320  0.39400  Biso   1.000  H
  C129     1.0000 0.68780  0.48720  0.31519  Biso   1.000  C
  C130     1.0000 0.81220  0.01280  0.81519  Biso   1.000  C
  C131     1.0000 0.31220  0.48720  0.18481  Biso   1.000  C
  C132     1.0000 0.18780  0.01280  0.68481  Biso   1.000  C
  C133     1.0000 0.31220  0.51280  0.68481  Biso   1.000  C
  C134     1.0000 0.18780  0.98720  0.18481  Biso   1.000  C
  C135     1.0000 0.68780  0.51280  0.81519  Biso   1.000  C
  C136     1.0000 0.81220  0.98720  0.31519  Biso   1.000  C
  C137     1.0000 0.73360  0.59730  0.29821  Biso   1.000  C
  C138     1.0000 0.76640  0.90270  0.79821  Biso   1.000  C
  C139     1.0000 0.26640  0.59730  0.20179  Biso   1.000  C
  C140     1.0000 0.23360  0.90270  0.70179  Biso   1.000  C
  C141     1.0000 0.26640  0.40270  0.70179  Biso   1.000  C
  C142     1.0000 0.23360  0.09730  0.20179  Biso   1.000  C
  C143     1.0000 0.73360  0.40270  0.79821  Biso   1.000  C
  C144     1.0000 0.76640  0.09730  0.29821  Biso   1.000  C
  H81      1.0000 0.76590  0.64950  0.31660  Biso   1.000  H
  H82      1.0000 0.73410  0.85050  0.81660  Biso   1.000  H
  H83      1.0000 0.23410  0.64950  0.18340  Biso   1.000  H
  H84      1.0000 0.26590  0.85050  0.68340  Biso   1.000  H
  H85      1.0000 0.23410  0.35050  0.68340  Biso   1.000  H
  H86      1.0000 0.26590  0.14950  0.18340  Biso   1.000  H
  H87      1.0000 0.76590  0.35050  0.81660  Biso   1.000  H
  H88      1.0000 0.73410  0.14950  0.31660  Biso   1.000  H
  C145     1.0000 0.73170  0.63050  0.25384  Biso   1.000  C
  C146     1.0000 0.76830  0.86950  0.75384  Biso   1.000  C
  C147     1.0000 0.26830  0.63050  0.24616  Biso   1.000  C
  C148     1.0000 0.23170  0.86950  0.74616  Biso   1.000  C
  C149     1.0000 0.26830  0.36950  0.74616  Biso   1.000  C
  C150     1.0000 0.23170  0.13050  0.24616  Biso   1.000  C
  C151     1.0000 0.73170  0.36950  0.75384  Biso   1.000  C
  C152     1.0000 0.76830  0.13050  0.25384  Biso   1.000  C
  H89      1.0000 0.76260  0.70680  0.24320  Biso   1.000  H
  H90      1.0000 0.73740  0.79320  0.74320  Biso   1.000  H
  H91      1.0000 0.23740  0.70680  0.25680  Biso   1.000  H
  H92      1.0000 0.26260  0.79320  0.75680  Biso   1.000  H
  H93      1.0000 0.23740  0.29320  0.75680  Biso   1.000  H
  H94      1.0000 0.26260  0.20680  0.25680  Biso   1.000  H
  H95      1.0000 0.76260  0.29320  0.74320  Biso   1.000  H
  H96      1.0000 0.73740  0.20680  0.24320  Biso   1.000  H
  C153     1.0000 0.64280  0.45110  0.24247  Biso   1.000  C
  C154     1.0000 0.85720  0.04890  0.74247  Biso   1.000  C
  C155     1.0000 0.35720  0.45110  0.25753  Biso   1.000  C
  C156     1.0000 0.14280  0.04890  0.75753  Biso   1.000  C
  C157     1.0000 0.35720  0.54890  0.75753  Biso   1.000  C
  C158     1.0000 0.14280  0.95110  0.25753  Biso   1.000  C
  C159     1.0000 0.64280  0.54890  0.74247  Biso   1.000  C
  C160     1.0000 0.85720  0.95110  0.24247  Biso   1.000  C
  H97      1.0000 0.61160  0.39920  0.22340  Biso   1.000  H
  H98      1.0000 0.88840  0.10080  0.72340  Biso   1.000  H
  H99      1.0000 0.38840  0.39920  0.27660  Biso   1.000  H
  H100     1.0000 0.11160  0.10080  0.77660  Biso   1.000  H
  H101     1.0000 0.38840  0.60080  0.77660  Biso   1.000  H
  H102     1.0000 0.11160  0.89920  0.27660  Biso   1.000  H
  H103     1.0000 0.61160  0.60080  0.72340  Biso   1.000  H
  H104     1.0000 0.88840  0.89920  0.22340  Biso   1.000  H
  C161     1.0000 0.64040  0.41350  0.28606  Biso   1.000  C
  C162     1.0000 0.85960  0.08650  0.78606  Biso   1.000  C
  C163     1.0000 0.35960  0.41350  0.21394  Biso   1.000  C
  C164     1.0000 0.14040  0.08650  0.71394  Biso   1.000  C
  C165     1.0000 0.35960  0.58650  0.71394  Biso   1.000  C
  C166     1.0000 0.14040  0.91350  0.21394  Biso   1.000  C
  C167     1.0000 0.64040  0.58650  0.78606  Biso   1.000  C
  C168     1.0000 0.85960  0.91350  0.28606  Biso   1.000  C
  H105     1.0000 0.60750  0.33980  0.29610  Biso   1.000  H
  H106     1.0000 0.89250  0.16020  0.79610  Biso   1.000  H
  H107     1.0000 0.39250  0.33980  0.20390  Biso   1.000  H
  H108     1.0000 0.10750  0.16020  0.70390  Biso   1.000  H
  H109     1.0000 0.39250  0.66020  0.70390  Biso   1.000  H
  H110     1.0000 0.10750  0.83980  0.20390  Biso   1.000  H
  H111     1.0000 0.60750  0.66020  0.79610  Biso   1.000  H
  H112     1.0000 0.89250  0.83980  0.29610  Biso   1.000  H
  C169     1.0000 0.84360  0.36310  0.44333  Biso   1.000  C
  C170     1.0000 0.65640  0.13690  0.94333  Biso   1.000  C
  C171     1.0000 0.15640  0.36310  0.05667  Biso   1.000  C
  C172     1.0000 0.34360  0.13690  0.55667  Biso   1.000  C
  C173     1.0000 0.15640  0.63690  0.55667  Biso   1.000  C
  C174     1.0000 0.34360  0.86310  0.05667  Biso   1.000  C
  C175     1.0000 0.84360  0.63690  0.94333  Biso   1.000  C
  C176     1.0000 0.65640  0.86310  0.44333  Biso   1.000  C
  C177     1.0000 0.85960  0.24590  0.47230  Biso   1.000  C
  C178     1.0000 0.64040  0.25410  0.97230  Biso   1.000  C
  C179     1.0000 0.14040  0.24590  0.02770  Biso   1.000  C
  C180     1.0000 0.35960  0.25410  0.52770  Biso   1.000  C
  C181     1.0000 0.14040  0.75410  0.52770  Biso   1.000  C
  C182     1.0000 0.35960  0.74590  0.02770  Biso   1.000  C
  C183     1.0000 0.85960  0.75410  0.97230  Biso   1.000  C
  C184     1.0000 0.64040  0.74590  0.47230  Biso   1.000  C
  H113     1.0000 0.82270  0.18050  0.48210  Biso   1.000  H
  H114     1.0000 0.67730  0.31950  0.98210  Biso   1.000  H
  H115     1.0000 0.17730  0.18050  0.01790  Biso   1.000  H
  H116     1.0000 0.32270  0.31950  0.51790  Biso   1.000  H
  H117     1.0000 0.17730  0.81950  0.51790  Biso   1.000  H
  H118     1.0000 0.32270  0.68050  0.01790  Biso   1.000  H
  H119     1.0000 0.82270  0.81950  0.98210  Biso   1.000  H
  H120     1.0000 0.67730  0.68050  0.48210  Biso   1.000  H
  C185     1.0000 0.93130  0.22720  0.48640  Biso   1.000  C
  C186     1.0000 0.56870  0.27280  0.98640  Biso   1.000  C
  C187     1.0000 0.06870  0.22720  0.01360  Biso   1.000  C
  C188     1.0000 0.43130  0.27280  0.51360  Biso   1.000  C
  C189     1.0000 0.06870  0.77280  0.51360  Biso   1.000  C
  C190     1.0000 0.43130  0.72720  0.01360  Biso   1.000  C
  C191     1.0000 0.93130  0.77280  0.98640  Biso   1.000  C
  C192     1.0000 0.56870  0.72720  0.48640  Biso   1.000  C
  H121     1.0000 0.94060  0.14800  0.50610  Biso   1.000  H
  H122     1.0000 0.55940  0.35200  0.00610  Biso   1.000  H
  H123     1.0000 0.05940  0.14800  0.99390  Biso   1.000  H
  H124     1.0000 0.44060  0.35200  0.49390  Biso   1.000  H
  H125     1.0000 0.05940  0.85200  0.49390  Biso   1.000  H
  H126     1.0000 0.44060  0.64800  0.99390  Biso   1.000  H
  H127     1.0000 0.94060  0.85200  0.00610  Biso   1.000  H
  H128     1.0000 0.55940  0.64800  0.50610  Biso   1.000  H
  C193     1.0000 0.97140  0.42140  0.44640  Biso   1.000  C
  C194     1.0000 0.52860  0.07860  0.94640  Biso   1.000  C
  C195     1.0000 0.02860  0.42140  0.05360  Biso   1.000  C
  C196     1.0000 0.47140  0.07860  0.55360  Biso   1.000  C
  C197     1.0000 0.02860  0.57860  0.55360  Biso   1.000  C
  C198     1.0000 0.47140  0.92140  0.05360  Biso   1.000  C
  C199     1.0000 0.97140  0.57860  0.94640  Biso   1.000  C
  C200     1.0000 0.52860  0.92140  0.44640  Biso   1.000  C
  H129     1.0000 0.01010  0.48240  0.43660  Biso   1.000  H
  H130     1.0000 0.48990  0.01760  0.93660  Biso   1.000  H
  H131     1.0000 0.98990  0.48240  0.06340  Biso   1.000  H
  H132     1.0000 0.51010  0.01760  0.56340  Biso   1.000  H
  H133     1.0000 0.98990  0.51760  0.56340  Biso   1.000  H
  H134     1.0000 0.51010  0.98240  0.06340  Biso   1.000  H
  H135     1.0000 0.01010  0.51760  0.93660  Biso   1.000  H
  H136     1.0000 0.48990  0.98240  0.43660  Biso   1.000  H
  C201     1.0000 0.90180  0.45400  0.43000  Biso   1.000  C
  C202     1.0000 0.59820  0.04600  0.93000  Biso   1.000  C
  C203     1.0000 0.09820  0.45400  0.07000  Biso   1.000  C
  C204     1.0000 0.40180  0.04600  0.57000  Biso   1.000  C
  C205     1.0000 0.09820  0.54600  0.57000  Biso   1.000  C
  C206     1.0000 0.40180  0.95400  0.07000  Biso   1.000  C
  C207     1.0000 0.90180  0.54600  0.93000  Biso   1.000  C
  C208     1.0000 0.59820  0.95400  0.43000  Biso   1.000  C
  H137     1.0000 0.89450  0.53490  0.41060  Biso   1.000  H
  H138     1.0000 0.60550  0.96510  0.91060  Biso   1.000  H
  H139     1.0000 0.10550  0.53490  0.08940  Biso   1.000  H
  H140     1.0000 0.39450  0.96510  0.58940  Biso   1.000  H
  H141     1.0000 0.10550  0.46510  0.58940  Biso   1.000  H
  H142     1.0000 0.39450  0.03490  0.08940  Biso   1.000  H
  H143     1.0000 0.89450  0.46510  0.91060  Biso   1.000  H
  H144     1.0000 0.60550  0.03490  0.41060  Biso   1.000  H
  O33      1.0000 0.50000  0.20220  0.25000  Biso   1.000  O
  O34      1.0000 0.00000  0.29780  0.75000  Biso   1.000  O
  O35      1.0000 0.50000  0.79780  0.75000  Biso   1.000  O
  O36      1.0000 0.00000  0.70220  0.25000  Biso   1.000  O
  O37      1.0000 0.56730  0.02250  0.32780  Biso   1.000  O
  O38      1.0000 0.93270  0.47750  0.82780  Biso   1.000  O
  O39      1.0000 0.43270  0.02250  0.17220  Biso   1.000  O
  O40      1.0000 0.06730  0.47750  0.67220  Biso   1.000  O
  O41      1.0000 0.43270  0.97750  0.67220  Biso   1.000  O
  O42      1.0000 0.06730  0.52250  0.17220  Biso   1.000  O
  O43      1.0000 0.56730  0.97750  0.82780  Biso   1.000  O
  O44      1.0000 0.93270  0.52250  0.32780  Biso   1.000  O
  O45      1.0000 0.56660  0.80630  0.26840  Biso   1.000  O
  O46      1.0000 0.93340  0.69370  0.76840  Biso   1.000  O
  O47      1.0000 0.43340  0.80630  0.23160  Biso   1.000  O
  O48      1.0000 0.06660  0.69370  0.73160  Biso   1.000  O
  O49      1.0000 0.43340  0.19370  0.73160  Biso   1.000  O
  O50      1.0000 0.06660  0.30630  0.23160  Biso   1.000  O
  O51      1.0000 0.56660  0.19370  0.76840  Biso   1.000  O
  O52      1.0000 0.93340  0.30630  0.26840  Biso   1.000  O
