data_image0
_cell_length_a       32.147
_cell_length_b       5.7642
_cell_length_c       24.298
_cell_angle_alpha    90
_cell_angle_beta     118.134
_cell_angle_gamma    90

_symmetry_space_group_name_H-M    "P 1"
_symmetry_int_tables_number       1

loop_
  _symmetry_equiv_pos_as_xyz
  'x, y, z'

loop_
  _atom_site_label
  _atom_site_occupancy
  _atom_site_fract_x
  _atom_site_fract_y
  _atom_site_fract_z
  _atom_site_thermal_displace_type
  _atom_site_B_iso_or_equiv
  _atom_site_type_symbol
  Cu1      1.0000 0.02522  0.07453  0.42911  Biso   1.000  Cu
  Cu2      1.0000 0.97478  0.07453  0.07088  Biso   1.000  Cu
  Cu3      1.0000 0.52522  0.57453  0.42911  Biso   1.000  Cu
  Cu4      1.0000 0.47478  0.57453  0.07088  Biso   1.000  Cu
  Cu5      1.0000 0.97478  0.92547  0.57088  Biso   1.000  Cu
  Cu6      1.0000 0.02522  0.92547  0.92911  Biso   1.000  Cu
  Cu7      1.0000 0.47478  0.42547  0.57088  Biso   1.000  Cu
  Cu8      1.0000 0.52522  0.42547  0.92911  Biso   1.000  Cu
  Cu9      1.0000 0.25000  0.25000  0.50000  Biso   1.000  Cu
  Cu10     1.0000 0.75000  0.25000  0.00000  Biso   1.000  Cu
  Cu11     1.0000 0.75000  0.75000  0.50000  Biso   1.000  Cu
  Cu12     1.0000 0.25000  0.75000  0.00000  Biso   1.000  Cu
  O1       1.0000 0.22947  0.44740  0.54693  Biso   1.000  O
  O2       1.0000 0.77053  0.44740  0.95307  Biso   1.000  O
  O3       1.0000 0.72947  0.94740  0.54693  Biso   1.000  O
  O4       1.0000 0.27053  0.94740  0.95307  Biso   1.000  O
  O5       1.0000 0.77053  0.55260  0.45307  Biso   1.000  O
  O6       1.0000 0.22947  0.55260  0.04693  Biso   1.000  O
  O7       1.0000 0.27053  0.05260  0.45307  Biso   1.000  O
  O8       1.0000 0.72947  0.05260  0.04693  Biso   1.000  O
  O9       1.0000 0.16836  0.20890  0.51243  Biso   1.000  O
  O10      1.0000 0.83164  0.20890  0.98757  Biso   1.000  O
  O11      1.0000 0.66836  0.70890  0.51243  Biso   1.000  O
  O12      1.0000 0.33164  0.70890  0.98757  Biso   1.000  O
  O13      1.0000 0.83164  0.79110  0.48757  Biso   1.000  O
  O14      1.0000 0.16836  0.79110  0.01243  Biso   1.000  O
  O15      1.0000 0.33164  0.29110  0.48757  Biso   1.000  O
  O16      1.0000 0.66836  0.29110  0.01243  Biso   1.000  O
  O17      1.0000 0.08109  0.50560  0.43649  Biso   1.000  O
  O18      1.0000 0.91891  0.50560  0.06351  Biso   1.000  O
  O19      1.0000 0.58109  0.00560  0.43649  Biso   1.000  O
  O20      1.0000 0.41891  0.00560  0.06351  Biso   1.000  O
  O21      1.0000 0.91891  0.49440  0.56351  Biso   1.000  O
  O22      1.0000 0.08109  0.49440  0.93649  Biso   1.000  O
  O23      1.0000 0.41891  0.99440  0.56351  Biso   1.000  O
  O24      1.0000 0.58109  0.99440  0.93649  Biso   1.000  O
  O25      1.0000 0.06605  0.26970  0.49837  Biso   1.000  O
  O26      1.0000 0.93395  0.26970  0.00163  Biso   1.000  O
  O27      1.0000 0.56605  0.76970  0.49837  Biso   1.000  O
  O28      1.0000 0.43395  0.76970  0.00163  Biso   1.000  O
  O29      1.0000 0.93395  0.73030  0.50163  Biso   1.000  O
  O30      1.0000 0.06605  0.73030  0.99837  Biso   1.000  O
  O31      1.0000 0.43395  0.23030  0.50163  Biso   1.000  O
  O32      1.0000 0.56605  0.23030  0.99837  Biso   1.000  O
  O33      1.0000 0.02581  0.78480  0.48988  Biso   1.000  O
  O34      1.0000 0.97419  0.78480  0.01012  Biso   1.000  O
  O35      1.0000 0.52581  0.28480  0.48988  Biso   1.000  O
  O36      1.0000 0.47419  0.28480  0.01012  Biso   1.000  O
  O37      1.0000 0.97419  0.21520  0.51012  Biso   1.000  O
  O38      1.0000 0.02581  0.21520  0.98988  Biso   1.000  O
  O39      1.0000 0.47419  0.71520  0.51012  Biso   1.000  O
  O40      1.0000 0.52581  0.71520  0.98988  Biso   1.000  O
  O41      1.0000 0.03366  0.77410  0.58659  Biso   1.000  O
  O42      1.0000 0.96634  0.77410  0.91341  Biso   1.000  O
  O43      1.0000 0.53366  0.27410  0.58659  Biso   1.000  O
  O44      1.0000 0.46634  0.27410  0.91341  Biso   1.000  O
  O45      1.0000 0.96634  0.22590  0.41341  Biso   1.000  O
  O46      1.0000 0.03366  0.22590  0.08659  Biso   1.000  O
  O47      1.0000 0.46634  0.72590  0.41341  Biso   1.000  O
  O48      1.0000 0.53366  0.72590  0.08659  Biso   1.000  O
  O49      1.0000 0.19570  0.00050  0.74388  Biso   1.000  O
  O50      1.0000 0.80430  0.00050  0.75612  Biso   1.000  O
  O51      1.0000 0.69570  0.50050  0.74388  Biso   1.000  O
  O52      1.0000 0.30430  0.50050  0.75612  Biso   1.000  O
  O53      1.0000 0.80430  0.99950  0.25612  Biso   1.000  O
  O54      1.0000 0.19570  0.99950  0.24388  Biso   1.000  O
  O55      1.0000 0.30430  0.49950  0.25612  Biso   1.000  O
  O56      1.0000 0.69570  0.49950  0.24388  Biso   1.000  O
  O57      1.0000 0.25087  0.98840  0.71671  Biso   1.000  O
  O58      1.0000 0.74913  0.98840  0.78329  Biso   1.000  O
  O59      1.0000 0.75087  0.48840  0.71671  Biso   1.000  O
  O60      1.0000 0.24913  0.48840  0.78329  Biso   1.000  O
  O61      1.0000 0.74913  0.01160  0.28329  Biso   1.000  O
  O62      1.0000 0.25087  0.01160  0.21671  Biso   1.000  O
  O63      1.0000 0.24913  0.51160  0.28329  Biso   1.000  O
  O64      1.0000 0.75087  0.51160  0.21671  Biso   1.000  O
  N1       1.0000 0.21109  0.94480  0.70820  Biso   1.000  N
  N2       1.0000 0.78891  0.94480  0.79180  Biso   1.000  N
  N3       1.0000 0.71109  0.44480  0.70820  Biso   1.000  N
  N4       1.0000 0.28891  0.44480  0.79180  Biso   1.000  N
  N5       1.0000 0.78891  0.05520  0.29180  Biso   1.000  N
  N6       1.0000 0.21109  0.05520  0.20820  Biso   1.000  N
  N7       1.0000 0.28891  0.55520  0.29180  Biso   1.000  N
  N8       1.0000 0.71109  0.55520  0.20820  Biso   1.000  N
  N9       1.0000 0.20705  0.42390  0.42011  Biso   1.000  N
  N10      1.0000 0.79295  0.42390  0.07989  Biso   1.000  N
  N11      1.0000 0.70705  0.92390  0.42011  Biso   1.000  N
  N12      1.0000 0.29295  0.92390  0.07989  Biso   1.000  N
  N13      1.0000 0.79295  0.57610  0.57989  Biso   1.000  N
  N14      1.0000 0.20705  0.57610  0.92011  Biso   1.000  N
  N15      1.0000 0.29295  0.07610  0.57989  Biso   1.000  N
  N16      1.0000 0.70705  0.07610  0.92011  Biso   1.000  N
  N17      1.0000 0.01793  0.89510  0.14763  Biso   1.000  N
  N18      1.0000 0.98207  0.89510  0.35237  Biso   1.000  N
  N19      1.0000 0.51793  0.39510  0.14763  Biso   1.000  N
  N20      1.0000 0.48207  0.39510  0.35237  Biso   1.000  N
  N21      1.0000 0.98207  0.10490  0.85237  Biso   1.000  N
  N22      1.0000 0.01793  0.10490  0.64763  Biso   1.000  N
  N23      1.0000 0.48207  0.60490  0.85237  Biso   1.000  N
  N24      1.0000 0.51793  0.60490  0.64763  Biso   1.000  N
  C1       1.0000 0.16883  0.54550  0.57079  Biso   1.000  C
  C2       1.0000 0.83117  0.54550  0.92921  Biso   1.000  C
  C3       1.0000 0.66883  0.04550  0.57079  Biso   1.000  C
  C4       1.0000 0.33117  0.04550  0.92921  Biso   1.000  C
  C5       1.0000 0.83117  0.45450  0.42921  Biso   1.000  C
  C6       1.0000 0.16883  0.45450  0.07079  Biso   1.000  C
  C7       1.0000 0.33117  0.95450  0.42921  Biso   1.000  C
  C8       1.0000 0.66883  0.95450  0.07079  Biso   1.000  C
  C9       1.0000 0.11983  0.57010  0.54613  Biso   1.000  C
  C10      1.0000 0.88017  0.57010  0.95387  Biso   1.000  C
  C11      1.0000 0.61983  0.07010  0.54613  Biso   1.000  C
  C12      1.0000 0.38017  0.07010  0.95387  Biso   1.000  C
  C13      1.0000 0.88017  0.42990  0.45387  Biso   1.000  C
  C14      1.0000 0.11983  0.42990  0.04613  Biso   1.000  C
  C15      1.0000 0.38017  0.92990  0.45387  Biso   1.000  C
  C16      1.0000 0.61983  0.92990  0.04613  Biso   1.000  C
  C17      1.0000 0.10135  0.71810  0.57537  Biso   1.000  C
  C18      1.0000 0.89865  0.71810  0.92463  Biso   1.000  C
  C19      1.0000 0.60135  0.21810  0.57537  Biso   1.000  C
  C20      1.0000 0.39865  0.21810  0.92463  Biso   1.000  C
  C21      1.0000 0.89865  0.28190  0.42463  Biso   1.000  C
  C22      1.0000 0.10135  0.28190  0.07537  Biso   1.000  C
  C23      1.0000 0.39865  0.78190  0.42463  Biso   1.000  C
  C24      1.0000 0.60135  0.78190  0.07537  Biso   1.000  C
  C25      1.0000 0.13166  0.83540  0.62935  Biso   1.000  C
  C26      1.0000 0.86834  0.83540  0.87065  Biso   1.000  C
  C27      1.0000 0.63166  0.33540  0.62935  Biso   1.000  C
  C28      1.0000 0.36834  0.33540  0.87065  Biso   1.000  C
  C29      1.0000 0.86834  0.16460  0.37065  Biso   1.000  C
  C30      1.0000 0.13166  0.16460  0.12935  Biso   1.000  C
  C31      1.0000 0.36834  0.66460  0.37065  Biso   1.000  C
  C32      1.0000 0.63166  0.66460  0.12935  Biso   1.000  C
  H1       1.0000 0.11980  0.92760  0.65020  Biso   1.000  H
  H2       1.0000 0.88020  0.92760  0.84980  Biso   1.000  H
  H3       1.0000 0.61980  0.42760  0.65020  Biso   1.000  H
  H4       1.0000 0.38020  0.42760  0.84980  Biso   1.000  H
  H5       1.0000 0.88020  0.07240  0.34980  Biso   1.000  H
  H6       1.0000 0.11980  0.07240  0.15020  Biso   1.000  H
  H7       1.0000 0.38020  0.57240  0.34980  Biso   1.000  H
  H8       1.0000 0.61980  0.57240  0.15020  Biso   1.000  H
  C33      1.0000 0.17973  0.81320  0.65174  Biso   1.000  C
  C34      1.0000 0.82027  0.81320  0.84826  Biso   1.000  C
  C35      1.0000 0.67973  0.31320  0.65174  Biso   1.000  C
  C36      1.0000 0.32027  0.31320  0.84826  Biso   1.000  C
  C37      1.0000 0.82027  0.18680  0.34826  Biso   1.000  C
  C38      1.0000 0.17973  0.18680  0.15174  Biso   1.000  C
  C39      1.0000 0.32027  0.68680  0.34826  Biso   1.000  C
  C40      1.0000 0.67973  0.68680  0.15174  Biso   1.000  C
  C41      1.0000 0.19906  0.67320  0.62342  Biso   1.000  C
  C42      1.0000 0.80094  0.67320  0.87658  Biso   1.000  C
  C43      1.0000 0.69906  0.17320  0.62342  Biso   1.000  C
  C44      1.0000 0.30094  0.17320  0.87658  Biso   1.000  C
  C45      1.0000 0.80094  0.32680  0.37658  Biso   1.000  C
  C46      1.0000 0.19906  0.32680  0.12342  Biso   1.000  C
  C47      1.0000 0.30094  0.82680  0.37658  Biso   1.000  C
  C48      1.0000 0.69906  0.82680  0.12342  Biso   1.000  C
  H9       1.0000 0.23160  0.66430  0.63910  Biso   1.000  H
  H10      1.0000 0.76840  0.66430  0.86090  Biso   1.000  H
  H11      1.0000 0.73160  0.16430  0.63910  Biso   1.000  H
  H12      1.0000 0.26840  0.16430  0.86090  Biso   1.000  H
  H13      1.0000 0.76840  0.33570  0.36090  Biso   1.000  H
  H14      1.0000 0.23160  0.33570  0.13910  Biso   1.000  H
  H15      1.0000 0.26840  0.83570  0.36090  Biso   1.000  H
  H16      1.0000 0.73160  0.83570  0.13910  Biso   1.000  H
  C49      1.0000 0.18938  0.38390  0.54076  Biso   1.000  C
  C50      1.0000 0.81062  0.38390  0.95924  Biso   1.000  C
  C51      1.0000 0.68938  0.88390  0.54076  Biso   1.000  C
  C52      1.0000 0.31062  0.88390  0.95924  Biso   1.000  C
  C53      1.0000 0.81062  0.61610  0.45924  Biso   1.000  C
  C54      1.0000 0.18938  0.61610  0.04076  Biso   1.000  C
  C55      1.0000 0.31062  0.11610  0.45924  Biso   1.000  C
  C56      1.0000 0.68938  0.11610  0.04076  Biso   1.000  C
  C57      1.0000 0.08614  0.43970  0.48798  Biso   1.000  C
  C58      1.0000 0.91386  0.43970  0.01202  Biso   1.000  C
  C59      1.0000 0.58614  0.93970  0.48798  Biso   1.000  C
  C60      1.0000 0.41386  0.93970  0.01202  Biso   1.000  C
  C61      1.0000 0.91386  0.56030  0.51202  Biso   1.000  C
  C62      1.0000 0.08614  0.56030  0.98798  Biso   1.000  C
  C63      1.0000 0.41386  0.06030  0.51202  Biso   1.000  C
  C64      1.0000 0.58614  0.06030  0.98798  Biso   1.000  C
  C65      1.0000 0.04883  0.76130  0.54701  Biso   1.000  C
  C66      1.0000 0.95117  0.76130  0.95299  Biso   1.000  C
  C67      1.0000 0.54883  0.26130  0.54701  Biso   1.000  C
  C68      1.0000 0.45117  0.26130  0.95299  Biso   1.000  C
  C69      1.0000 0.95117  0.23870  0.45299  Biso   1.000  C
  C70      1.0000 0.04883  0.23870  0.04701  Biso   1.000  C
  C71      1.0000 0.45117  0.73870  0.45299  Biso   1.000  C
  C72      1.0000 0.54883  0.73870  0.04701  Biso   1.000  C
  C73      1.0000 0.19217  0.32400  0.36453  Biso   1.000  C
  C74      1.0000 0.80783  0.32400  0.13547  Biso   1.000  C
  C75      1.0000 0.69217  0.82400  0.36453  Biso   1.000  C
  C76      1.0000 0.30783  0.82400  0.13547  Biso   1.000  C
  C77      1.0000 0.80783  0.67600  0.63547  Biso   1.000  C
  C78      1.0000 0.19217  0.67600  0.86453  Biso   1.000  C
  C79      1.0000 0.30783  0.17600  0.63547  Biso   1.000  C
  C80      1.0000 0.69217  0.17600  0.86453  Biso   1.000  C
  H17      1.0000 0.20630  0.18620  0.36230  Biso   1.000  H
  H18      1.0000 0.79370  0.18620  0.13770  Biso   1.000  H
  H19      1.0000 0.70630  0.68620  0.36230  Biso   1.000  H
  H20      1.0000 0.29370  0.68620  0.13770  Biso   1.000  H
  H21      1.0000 0.79370  0.81380  0.63770  Biso   1.000  H
  H22      1.0000 0.20630  0.81380  0.86230  Biso   1.000  H
  H23      1.0000 0.29370  0.31380  0.63770  Biso   1.000  H
  H24      1.0000 0.70630  0.31380  0.86230  Biso   1.000  H
  C81      1.0000 0.15674  0.41540  0.31020  Biso   1.000  C
  C82      1.0000 0.84326  0.41540  0.18980  Biso   1.000  C
  C83      1.0000 0.65674  0.91540  0.31020  Biso   1.000  C
  C84      1.0000 0.34326  0.91540  0.18980  Biso   1.000  C
  C85      1.0000 0.84326  0.58460  0.68980  Biso   1.000  C
  C86      1.0000 0.15674  0.58460  0.81020  Biso   1.000  C
  C87      1.0000 0.34326  0.08460  0.68980  Biso   1.000  C
  C88      1.0000 0.65674  0.08460  0.81020  Biso   1.000  C
  H25      1.0000 0.14720  0.33730  0.27270  Biso   1.000  H
  H26      1.0000 0.85280  0.33730  0.22730  Biso   1.000  H
  H27      1.0000 0.64720  0.83730  0.27270  Biso   1.000  H
  H28      1.0000 0.35280  0.83730  0.22730  Biso   1.000  H
  H29      1.0000 0.85280  0.66270  0.72730  Biso   1.000  H
  H30      1.0000 0.14720  0.66270  0.77270  Biso   1.000  H
  H31      1.0000 0.35280  0.16270  0.72730  Biso   1.000  H
  H32      1.0000 0.64720  0.16270  0.77270  Biso   1.000  H
  C89      1.0000 0.13526  0.62190  0.31099  Biso   1.000  C
  C90      1.0000 0.86474  0.62190  0.18901  Biso   1.000  C
  C91      1.0000 0.63526  0.12190  0.31099  Biso   1.000  C
  C92      1.0000 0.36474  0.12190  0.18901  Biso   1.000  C
  C93      1.0000 0.86474  0.37810  0.68901  Biso   1.000  C
  C94      1.0000 0.13526  0.37810  0.81099  Biso   1.000  C
  C95      1.0000 0.36474  0.87810  0.68901  Biso   1.000  C
  C96      1.0000 0.63526  0.87810  0.81099  Biso   1.000  C
  C97      1.0000 0.15328  0.73450  0.36844  Biso   1.000  C
  C98      1.0000 0.84672  0.73450  0.13156  Biso   1.000  C
  C99      1.0000 0.65328  0.23450  0.36844  Biso   1.000  C
  C100     1.0000 0.34672  0.23450  0.13156  Biso   1.000  C
  C101     1.0000 0.84672  0.26550  0.63156  Biso   1.000  C
  C102     1.0000 0.15328  0.26550  0.86844  Biso   1.000  C
  C103     1.0000 0.34672  0.76550  0.63156  Biso   1.000  C
  C104     1.0000 0.65328  0.76550  0.86844  Biso   1.000  C
  H33      1.0000 0.14150  0.87870  0.37130  Biso   1.000  H
  H34      1.0000 0.85850  0.87870  0.12870  Biso   1.000  H
  H35      1.0000 0.64150  0.37870  0.37130  Biso   1.000  H
  H36      1.0000 0.35850  0.37870  0.12870  Biso   1.000  H
  H37      1.0000 0.85850  0.12130  0.62870  Biso   1.000  H
  H38      1.0000 0.14150  0.12130  0.87130  Biso   1.000  H
  H39      1.0000 0.35850  0.62130  0.62870  Biso   1.000  H
  H40      1.0000 0.64150  0.62130  0.87130  Biso   1.000  H
  C105     1.0000 0.18849  0.63250  0.42081  Biso   1.000  C
  C106     1.0000 0.81151  0.63250  0.07919  Biso   1.000  C
  C107     1.0000 0.68849  0.13250  0.42081  Biso   1.000  C
  C108     1.0000 0.31151  0.13250  0.07919  Biso   1.000  C
  C109     1.0000 0.81151  0.36750  0.57919  Biso   1.000  C
  C110     1.0000 0.18849  0.36750  0.92081  Biso   1.000  C
  C111     1.0000 0.31151  0.86750  0.57919  Biso   1.000  C
  C112     1.0000 0.68849  0.86750  0.92081  Biso   1.000  C
  H41      1.0000 0.20010  0.71140  0.45860  Biso   1.000  H
  H42      1.0000 0.79990  0.71140  0.04140  Biso   1.000  H
  H43      1.0000 0.70010  0.21140  0.45860  Biso   1.000  H
  H44      1.0000 0.29990  0.21140  0.04140  Biso   1.000  H
  H45      1.0000 0.79990  0.28860  0.54140  Biso   1.000  H
  H46      1.0000 0.20010  0.28860  0.95860  Biso   1.000  H
  H47      1.0000 0.29990  0.78860  0.54140  Biso   1.000  H
  H48      1.0000 0.70010  0.78860  0.95860  Biso   1.000  H
  C113     1.0000 0.04382  0.72360  0.14426  Biso   1.000  C
  C114     1.0000 0.95618  0.72360  0.35574  Biso   1.000  C
  C115     1.0000 0.54382  0.22360  0.14426  Biso   1.000  C
  C116     1.0000 0.45618  0.22360  0.35574  Biso   1.000  C
  C117     1.0000 0.95618  0.27640  0.85574  Biso   1.000  C
  C118     1.0000 0.04382  0.27640  0.64426  Biso   1.000  C
  C119     1.0000 0.45618  0.77640  0.85574  Biso   1.000  C
  C120     1.0000 0.54382  0.77640  0.64426  Biso   1.000  C
  H49      1.0000 0.03590  0.66110  0.10530  Biso   1.000  H
  H50      1.0000 0.96410  0.66110  0.39470  Biso   1.000  H
  H51      1.0000 0.53590  0.16110  0.10530  Biso   1.000  H
  H52      1.0000 0.46410  0.16110  0.39470  Biso   1.000  H
  H53      1.0000 0.96410  0.33890  0.89470  Biso   1.000  H
  H54      1.0000 0.03590  0.33890  0.60530  Biso   1.000  H
  H55      1.0000 0.46410  0.83890  0.89470  Biso   1.000  H
  H56      1.0000 0.53590  0.83890  0.60530  Biso   1.000  H
  C121     1.0000 0.08189  0.63270  0.19554  Biso   1.000  C
  C122     1.0000 0.91811  0.63270  0.30446  Biso   1.000  C
  C123     1.0000 0.58189  0.13270  0.19554  Biso   1.000  C
  C124     1.0000 0.41811  0.13270  0.30446  Biso   1.000  C
  C125     1.0000 0.91811  0.36730  0.80446  Biso   1.000  C
  C126     1.0000 0.08189  0.36730  0.69554  Biso   1.000  C
  C127     1.0000 0.41811  0.86730  0.80446  Biso   1.000  C
  C128     1.0000 0.58189  0.86730  0.69554  Biso   1.000  C
  H57      1.0000 0.09910  0.51240  0.19050  Biso   1.000  H
  H58      1.0000 0.90090  0.51240  0.30950  Biso   1.000  H
  H59      1.0000 0.59910  0.01240  0.19050  Biso   1.000  H
  H60      1.0000 0.40090  0.01240  0.30950  Biso   1.000  H
  H61      1.0000 0.90090  0.48760  0.80950  Biso   1.000  H
  H62      1.0000 0.09910  0.48760  0.69050  Biso   1.000  H
  H63      1.0000 0.40090  0.98760  0.80950  Biso   1.000  H
  H64      1.0000 0.59910  0.98760  0.69050  Biso   1.000  H
  C129     1.0000 0.09483  0.71800  0.25422  Biso   1.000  C
  C130     1.0000 0.90517  0.71800  0.24578  Biso   1.000  C
  C131     1.0000 0.59483  0.21800  0.25422  Biso   1.000  C
  C132     1.0000 0.40517  0.21800  0.24578  Biso   1.000  C
  C133     1.0000 0.90517  0.28200  0.74578  Biso   1.000  C
  C134     1.0000 0.09483  0.28200  0.75422  Biso   1.000  C
  C135     1.0000 0.40517  0.78200  0.74578  Biso   1.000  C
  C136     1.0000 0.59483  0.78200  0.75422  Biso   1.000  C
  C137     1.0000 0.06817  0.89750  0.25731  Biso   1.000  C
  C138     1.0000 0.93183  0.89750  0.24269  Biso   1.000  C
  C139     1.0000 0.56817  0.39750  0.25731  Biso   1.000  C
  C140     1.0000 0.43183  0.39750  0.24269  Biso   1.000  C
  C141     1.0000 0.93183  0.10250  0.74269  Biso   1.000  C
  C142     1.0000 0.06817  0.10250  0.75731  Biso   1.000  C
  C143     1.0000 0.43183  0.60250  0.74269  Biso   1.000  C
  C144     1.0000 0.56817  0.60250  0.75731  Biso   1.000  C
  H65      1.0000 0.07570  0.96500  0.29560  Biso   1.000  H
  H66      1.0000 0.92430  0.96500  0.20440  Biso   1.000  H
  H67      1.0000 0.57570  0.46500  0.29560  Biso   1.000  H
  H68      1.0000 0.42430  0.46500  0.20440  Biso   1.000  H
  H69      1.0000 0.92430  0.03500  0.70440  Biso   1.000  H
  H70      1.0000 0.07570  0.03500  0.79560  Biso   1.000  H
  H71      1.0000 0.42430  0.53500  0.70440  Biso   1.000  H
  H72      1.0000 0.57570  0.53500  0.79560  Biso   1.000  H
  C145     1.0000 0.03025  0.97890  0.20396  Biso   1.000  C
  C146     1.0000 0.96975  0.97890  0.29604  Biso   1.000  C
  C147     1.0000 0.53025  0.47890  0.20396  Biso   1.000  C
  C148     1.0000 0.46975  0.47890  0.29604  Biso   1.000  C
  C149     1.0000 0.96975  0.02110  0.79604  Biso   1.000  C
  C150     1.0000 0.03025  0.02110  0.70396  Biso   1.000  C
  C151     1.0000 0.46975  0.52110  0.79604  Biso   1.000  C
  C152     1.0000 0.53025  0.52110  0.70396  Biso   1.000  C
  H73      1.0000 0.01240  0.09880  0.20770  Biso   1.000  H
  H74      1.0000 0.98760  0.09880  0.29230  Biso   1.000  H
  H75      1.0000 0.51240  0.59880  0.20770  Biso   1.000  H
  H76      1.0000 0.48760  0.59880  0.29230  Biso   1.000  H
  H77      1.0000 0.98760  0.90120  0.79230  Biso   1.000  H
  H78      1.0000 0.01240  0.90120  0.70770  Biso   1.000  H
  H79      1.0000 0.48760  0.40120  0.79230  Biso   1.000  H
  H80      1.0000 0.51240  0.40120  0.70770  Biso   1.000  H
  O65      1.0000 0.08298  0.96520  0.42364  Biso   1.000  O
  O66      1.0000 0.91702  0.96520  0.07636  Biso   1.000  O
  O67      1.0000 0.58298  0.46520  0.42364  Biso   1.000  O
  O68      1.0000 0.41702  0.46520  0.07636  Biso   1.000  O
  O69      1.0000 0.91702  0.03480  0.57636  Biso   1.000  O
  O70      1.0000 0.08298  0.03480  0.92364  Biso   1.000  O
  O71      1.0000 0.41702  0.53480  0.57636  Biso   1.000  O
  O72      1.0000 0.58298  0.53480  0.92364  Biso   1.000  O
  H81      1.0000 0.08470  0.82340  0.42630  Biso   1.000  H
  H82      1.0000 0.91530  0.82340  0.07370  Biso   1.000  H
  H83      1.0000 0.58470  0.32340  0.42630  Biso   1.000  H
  H84      1.0000 0.41530  0.32340  0.07370  Biso   1.000  H
  H85      1.0000 0.91530  0.17660  0.57370  Biso   1.000  H
  H86      1.0000 0.08470  0.17660  0.92630  Biso   1.000  H
  H87      1.0000 0.41530  0.67660  0.57370  Biso   1.000  H
  H88      1.0000 0.58470  0.67660  0.92630  Biso   1.000  H
  H89      1.0000 0.10650  0.02670  0.45250  Biso   1.000  H
  H90      1.0000 0.89350  0.02670  0.04750  Biso   1.000  H
  H91      1.0000 0.60650  0.52670  0.45250  Biso   1.000  H
  H92      1.0000 0.39350  0.52670  0.04750  Biso   1.000  H
  H93      1.0000 0.89350  0.97330  0.54750  Biso   1.000  H
  H94      1.0000 0.10650  0.97330  0.95250  Biso   1.000  H
  H95      1.0000 0.39350  0.47330  0.54750  Biso   1.000  H
  H96      1.0000 0.60650  0.47330  0.95250  Biso   1.000  H
  O73      1.0000 0.04061  0.39110  0.31145  Biso   1.000  O
  O74      1.0000 0.95939  0.39110  0.18855  Biso   1.000  O
  O75      1.0000 0.54061  0.89110  0.31145  Biso   1.000  O
  O76      1.0000 0.45939  0.89110  0.18855  Biso   1.000  O
  O77      1.0000 0.95939  0.60890  0.68855  Biso   1.000  O
  O78      1.0000 0.04061  0.60890  0.81145  Biso   1.000  O
  O79      1.0000 0.45939  0.10890  0.68855  Biso   1.000  O
  O80      1.0000 0.54061  0.10890  0.81145  Biso   1.000  O
  H97      1.0000 0.06070  0.43440  0.34680  Biso   1.000  H
  H98      1.0000 0.93930  0.43440  0.15320  Biso   1.000  H
  H99      1.0000 0.56070  0.93440  0.34680  Biso   1.000  H
  H100     1.0000 0.43930  0.93440  0.15320  Biso   1.000  H
  H101     1.0000 0.93930  0.56560  0.65320  Biso   1.000  H
  H102     1.0000 0.06070  0.56560  0.84680  Biso   1.000  H
  H103     1.0000 0.43930  0.06560  0.65320  Biso   1.000  H
  H104     1.0000 0.56070  0.06560  0.84680  Biso   1.000  H
  H105     1.0000 0.01570  0.46630  0.29980  Biso   1.000  H
  H106     1.0000 0.98430  0.46630  0.20020  Biso   1.000  H
  H107     1.0000 0.51570  0.96630  0.29980  Biso   1.000  H
  H108     1.0000 0.48430  0.96630  0.20020  Biso   1.000  H
  H109     1.0000 0.98430  0.53370  0.70020  Biso   1.000  H
  H110     1.0000 0.01570  0.53370  0.79980  Biso   1.000  H
  H111     1.0000 0.48430  0.03370  0.70020  Biso   1.000  H
  H112     1.0000 0.51570  0.03370  0.79980  Biso   1.000  H
