data_image0
_cell_length_a       5.7813
_cell_length_b       13.309
_cell_length_c       16.417
_cell_angle_alpha    107.004
_cell_angle_beta     99.633
_cell_angle_gamma    98.489

_symmetry_space_group_name_H-M    "P 1"
_symmetry_int_tables_number       1

loop_
  _symmetry_equiv_pos_as_xyz
  'x, y, z'

loop_
  _atom_site_label
  _atom_site_occupancy
  _atom_site_fract_x
  _atom_site_fract_y
  _atom_site_fract_z
  _atom_site_thermal_displace_type
  _atom_site_B_iso_or_equiv
  _atom_site_type_symbol
  Cu1      1.0000 0.50000  0.50000  0.50000  Biso   1.000  Cu
  Cu2      1.0000 0.05172  0.37504  0.06555  Biso   1.000  Cu
  Cu3      1.0000 0.94828  0.62496  0.93445  Biso   1.000  Cu
  O1       1.0000 0.12790  0.34854  0.95144  Biso   1.000  O
  O2       1.0000 0.87210  0.65146  0.04856  Biso   1.000  O
  O3       1.0000 0.20070  0.51635  0.94543  Biso   1.000  O
  O4       1.0000 0.79930  0.48365  0.05457  Biso   1.000  O
  O5       1.0000 0.67890  0.50641  0.87235  Biso   1.000  O
  O6       1.0000 0.32110  0.49359  0.12765  Biso   1.000  O
  O7       1.0000 0.45300  0.60940  0.82505  Biso   1.000  O
  O8       1.0000 0.54700  0.39060  0.17495  Biso   1.000  O
  O9       1.0000 0.65100  0.48500  0.67406  Biso   1.000  O
  O10      1.0000 0.34900  0.51500  0.32594  Biso   1.000  O
  O11      1.0000 0.34390  0.41467  0.55917  Biso   1.000  O
  O12      1.0000 0.65610  0.58533  0.44083  Biso   1.000  O
  O13      1.0000 0.83390  0.08470  0.55590  Biso   1.000  O
  O14      1.0000 0.16610  0.91530  0.44410  Biso   1.000  O
  O15      1.0000 0.67320  0.09380  0.66390  Biso   1.000  O
  O16      1.0000 0.32680  0.90620  0.33610  Biso   1.000  O
  O17      1.0000 0.99750  0.37123  0.18269  Biso   1.000  O
  O18      1.0000 0.00250  0.62877  0.81731  Biso   1.000  O
  H1       1.0000 0.86070  0.37870  0.18600  Biso   1.000  H
  H2       1.0000 0.13930  0.62130  0.81400  Biso   1.000  H
  H3       1.0000 0.09850  0.41720  0.22350  Biso   1.000  H
  H4       1.0000 0.90150  0.58280  0.77650  Biso   1.000  H
  O19      1.0000 0.73210  0.79760  0.81970  Biso   1.000  O
  O20      1.0000 0.26790  0.20240  0.18030  Biso   1.000  O
  H5       1.0000 0.63000  0.74820  0.82240  Biso   1.000  H
  H6       1.0000 0.37000  0.25180  0.17760  Biso   1.000  H
  H7       1.0000 0.85360  0.77550  0.80780  Biso   1.000  H
  H8       1.0000 0.14640  0.22450  0.19220  Biso   1.000  H
  N1       1.0000 0.81410  0.13160  0.62930  Biso   1.000  N
  N2       1.0000 0.18590  0.86840  0.37070  Biso   1.000  N
  N3       1.0000 0.34440  0.62380  0.55642  Biso   1.000  N
  N4       1.0000 0.65560  0.37620  0.44358  Biso   1.000  N
  N5       1.0000 0.79820  0.24100  0.00526  Biso   1.000  N
  N6       1.0000 0.20180  0.75900  0.99474  Biso   1.000  N
  C1       1.0000 0.15960  0.36940  0.81697  Biso   1.000  C
  C2       1.0000 0.84040  0.63060  0.18303  Biso   1.000  C
  C3       1.0000 0.31120  0.42030  0.77597  Biso   1.000  C
  C4       1.0000 0.68880  0.57970  0.22403  Biso   1.000  C
  C5       1.0000 0.29480  0.37610  0.68600  Biso   1.000  C
  C6       1.0000 0.70520  0.62390  0.31400  Biso   1.000  C
  C7       1.0000 0.12900  0.28260  0.63800  Biso   1.000  C
  C8       1.0000 0.87100  0.71740  0.36200  Biso   1.000  C
  H9       1.0000 0.11540  0.25340  0.57810  Biso   1.000  H
  H10      1.0000 0.88460  0.74660  0.42190  Biso   1.000  H
  C9       1.0000 0.98320  0.23300  0.68000  Biso   1.000  C
  C10      1.0000 0.01680  0.76700  0.32000  Biso   1.000  C
  C11      1.0000 0.99540  0.27520  0.76850  Biso   1.000  C
  C12      1.0000 0.00460  0.72480  0.23150  Biso   1.000  C
  H11      1.0000 0.89470  0.24080  0.79520  Biso   1.000  H
  H12      1.0000 0.10530  0.75920  0.20480  Biso   1.000  H
  C13      1.0000 0.16500  0.41750  0.91287  Biso   1.000  C
  C14      1.0000 0.83500  0.58250  0.08713  Biso   1.000  C
  C15      1.0000 0.49400  0.52190  0.82914  Biso   1.000  C
  C16      1.0000 0.50600  0.47810  0.17086  Biso   1.000  C
  C17      1.0000 0.44850  0.43070  0.63840  Biso   1.000  C
  C18      1.0000 0.55150  0.56930  0.36160  Biso   1.000  C
  C19      1.0000 0.42750  0.72430  0.55740  Biso   1.000  C
  C20      1.0000 0.57250  0.27570  0.44260  Biso   1.000  C
  H13      1.0000 0.55650  0.73570  0.53190  Biso   1.000  H
  H14      1.0000 0.44350  0.26430  0.46810  Biso   1.000  H
  C21      1.0000 0.33190  0.81040  0.59410  Biso   1.000  C
  C22      1.0000 0.66810  0.18960  0.40590  Biso   1.000  C
  H15      1.0000 0.39860  0.87840  0.59400  Biso   1.000  H
  H16      1.0000 0.60140  0.12160  0.40600  Biso   1.000  H
  C23      1.0000 0.13520  0.79650  0.63140  Biso   1.000  C
  C24      1.0000 0.86480  0.20350  0.36860  Biso   1.000  C
  C25      1.0000 0.05160  0.69280  0.63120  Biso   1.000  C
  C26      1.0000 0.94840  0.30720  0.36880  Biso   1.000  C
  H17      1.0000 0.92290  0.67930  0.65640  Biso   1.000  H
  H18      1.0000 0.07710  0.32070  0.34360  Biso   1.000  H
  C27      1.0000 0.15830  0.61020  0.59390  Biso   1.000  C
  C28      1.0000 0.84170  0.38980  0.40610  Biso   1.000  C
  H19      1.0000 0.09840  0.54180  0.59470  Biso   1.000  H
  H20      1.0000 0.90160  0.45820  0.40530  Biso   1.000  H
  C29      1.0000 0.01760  0.88830  0.66860  Biso   1.000  C
  C30      1.0000 0.98240  0.11170  0.33140  Biso   1.000  C
  H21      1.0000 0.89050  0.86250  0.69390  Biso   1.000  H
  H22      1.0000 0.10950  0.13750  0.30610  Biso   1.000  H
  H23      1.0000 0.94410  0.91090  0.62120  Biso   1.000  H
  H24      1.0000 0.05590  0.08910  0.37880  Biso   1.000  H
  C31      1.0000 0.18760  0.98580  0.73810  Biso   1.000  C
  C32      1.0000 0.81240  0.01420  0.26190  Biso   1.000  C
  H25      1.0000 0.31530  0.01140  0.71310  Biso   1.000  H
  H26      1.0000 0.68470  0.98860  0.28690  Biso   1.000  H
  H27      1.0000 0.10020  0.04270  0.75440  Biso   1.000  H
  H28      1.0000 0.89980  0.95730  0.24560  Biso   1.000  H
  C33      1.0000 0.29720  0.96380  0.81910  Biso   1.000  C
  C34      1.0000 0.70280  0.03620  0.18090  Biso   1.000  C
  H29      1.0000 0.38020  0.90530  0.80270  Biso   1.000  H
  H30      1.0000 0.61980  0.09470  0.19730  Biso   1.000  H
  H31      1.0000 0.16990  0.94070  0.84540  Biso   1.000  H
  H32      1.0000 0.83010  0.05930  0.15460  Biso   1.000  H
  C35      1.0000 0.58520  0.24720  0.96750  Biso   1.000  C
  C36      1.0000 0.41480  0.75280  0.03250  Biso   1.000  C
  H33      1.0000 0.54320  0.31400  0.98070  Biso   1.000  H
  H34      1.0000 0.45680  0.68600  0.01930  Biso   1.000  H
  C37      1.0000 0.42010  0.16000  0.90920  Biso   1.000  C
  C38      1.0000 0.57990  0.84000  0.09080  Biso   1.000  C
  H35      1.0000 0.27060  0.16930  0.88500  Biso   1.000  H
  H36      1.0000 0.72940  0.83070  0.11500  Biso   1.000  H
  C39      1.0000 0.47210  0.06010  0.88630  Biso   1.000  C
  C40      1.0000 0.52790  0.93990  0.11370  Biso   1.000  C
  C41      1.0000 0.68940  0.05300  0.92760  Biso   1.000  C
  C42      1.0000 0.31060  0.94700  0.07240  Biso   1.000  C
  H37      1.0000 0.73260  0.98650  0.91650  Biso   1.000  H
  H38      1.0000 0.26740  0.01350  0.08350  Biso   1.000  H
  C43      1.0000 0.84690  0.14280  0.98580  Biso   1.000  C
  C44      1.0000 0.15310  0.85720  0.01420  Biso   1.000  C
  H39      1.0000 0.99450  0.13480  0.01280  Biso   1.000  H
  H40      1.0000 0.00550  0.86520  0.98720  Biso   1.000  H
