data_image0
_cell_length_a       8.521
_cell_length_b       10.161
_cell_length_c       21.849
_cell_angle_alpha    90
_cell_angle_beta     97.554
_cell_angle_gamma    90

_symmetry_space_group_name_H-M    "P 1"
_symmetry_int_tables_number       1

loop_
  _symmetry_equiv_pos_as_xyz
  'x, y, z'

loop_
  _atom_site_label
  _atom_site_occupancy
  _atom_site_fract_x
  _atom_site_fract_y
  _atom_site_fract_z
  _atom_site_thermal_displace_type
  _atom_site_B_iso_or_equiv
  _atom_site_type_symbol
  Cu1      1.0000 0.47388  0.21188  0.17009  Biso   1.000  Cu
  Cu2      1.0000 0.52612  0.71188  0.32991  Biso   1.000  Cu
  Cu3      1.0000 0.52612  0.78812  0.82991  Biso   1.000  Cu
  Cu4      1.0000 0.47388  0.28812  0.67009  Biso   1.000  Cu
  O1       1.0000 0.33860  0.02248  0.12245  Biso   1.000  O
  O2       1.0000 0.66140  0.52248  0.37755  Biso   1.000  O
  O3       1.0000 0.66140  0.97752  0.87755  Biso   1.000  O
  O4       1.0000 0.33860  0.47752  0.62245  Biso   1.000  O
  O5       1.0000 0.50270  0.07968  0.23535  Biso   1.000  O
  O6       1.0000 0.49730  0.57968  0.26465  Biso   1.000  O
  O7       1.0000 0.49730  0.92032  0.76465  Biso   1.000  O
  O8       1.0000 0.50270  0.42032  0.73535  Biso   1.000  O
  O9       1.0000 0.39580  0.90888  0.27809  Biso   1.000  O
  O10      1.0000 0.60420  0.40888  0.22191  Biso   1.000  O
  O11      1.0000 0.60420  0.09112  0.72191  Biso   1.000  O
  O12      1.0000 0.39580  0.59112  0.77809  Biso   1.000  O
  N1       1.0000 0.27440  0.28900  0.19400  Biso   1.000  N
  N2       1.0000 0.72560  0.78900  0.30600  Biso   1.000  N
  N3       1.0000 0.72560  0.71100  0.80600  Biso   1.000  N
  N4       1.0000 0.27440  0.21100  0.69400  Biso   1.000  N
  N5       1.0000 0.43090  0.33580  0.09870  Biso   1.000  N
  N6       1.0000 0.56910  0.83580  0.40130  Biso   1.000  N
  N7       1.0000 0.56910  0.66420  0.90130  Biso   1.000  N
  N8       1.0000 0.43090  0.16420  0.59870  Biso   1.000  N
  H1       1.0000 0.37800  0.29600  0.06650  Biso   1.000  H
  H2       1.0000 0.62200  0.79600  0.43350  Biso   1.000  H
  H3       1.0000 0.62200  0.70400  0.93350  Biso   1.000  H
  H4       1.0000 0.37800  0.20400  0.56650  Biso   1.000  H
  N9       1.0000 0.67300  0.17970  0.13403  Biso   1.000  N
  N10      1.0000 0.32700  0.67970  0.36597  Biso   1.000  N
  N11      1.0000 0.32700  0.82030  0.86597  Biso   1.000  N
  N12      1.0000 0.67300  0.32030  0.63403  Biso   1.000  N
  C1       1.0000 0.19090  0.24590  0.23796  Biso   1.000  C
  C2       1.0000 0.80910  0.74590  0.26204  Biso   1.000  C
  C3       1.0000 0.80910  0.75410  0.76204  Biso   1.000  C
  C4       1.0000 0.19090  0.25410  0.73796  Biso   1.000  C
  H5       1.0000 0.23160  0.17510  0.26370  Biso   1.000  H
  H6       1.0000 0.76840  0.67510  0.23630  Biso   1.000  H
  H7       1.0000 0.76840  0.82490  0.73630  Biso   1.000  H
  H8       1.0000 0.23160  0.32490  0.76370  Biso   1.000  H
  C5       1.0000 0.04740  0.30120  0.24707  Biso   1.000  C
  C6       1.0000 0.95260  0.80120  0.25293  Biso   1.000  C
  C7       1.0000 0.95260  0.69880  0.75293  Biso   1.000  C
  C8       1.0000 0.04740  0.19880  0.74707  Biso   1.000  C
  H9       1.0000 0.99000  0.26880  0.27830  Biso   1.000  H
  H10      1.0000 0.01000  0.76880  0.22170  Biso   1.000  H
  H11      1.0000 0.01000  0.73120  0.72170  Biso   1.000  H
  H12      1.0000 0.99000  0.23120  0.77830  Biso   1.000  H
  C9       1.0000 0.98930  0.40510  0.20963  Biso   1.000  C
  C10      1.0000 0.01070  0.90510  0.29037  Biso   1.000  C
  C11      1.0000 0.01070  0.59490  0.79037  Biso   1.000  C
  C12      1.0000 0.98930  0.09490  0.70963  Biso   1.000  C
  H13      1.0000 0.88980  0.44340  0.21410  Biso   1.000  H
  H14      1.0000 0.11020  0.94340  0.28590  Biso   1.000  H
  H15      1.0000 0.11020  0.55660  0.78590  Biso   1.000  H
  H16      1.0000 0.88980  0.05660  0.71410  Biso   1.000  H
  C13      1.0000 0.07740  0.45210  0.16584  Biso   1.000  C
  C14      1.0000 0.92260  0.95210  0.33416  Biso   1.000  C
  C15      1.0000 0.92260  0.54790  0.83416  Biso   1.000  C
  C16      1.0000 0.07740  0.04790  0.66584  Biso   1.000  C
  H17      1.0000 0.04060  0.52490  0.14070  Biso   1.000  H
  H18      1.0000 0.95940  0.02490  0.35930  Biso   1.000  H
  H19      1.0000 0.95940  0.47510  0.85930  Biso   1.000  H
  H20      1.0000 0.04060  0.97510  0.64070  Biso   1.000  H
  C17      1.0000 0.21990  0.39240  0.15874  Biso   1.000  C
  C18      1.0000 0.78010  0.89240  0.34126  Biso   1.000  C
  C19      1.0000 0.78010  0.60760  0.84126  Biso   1.000  C
  C20      1.0000 0.21990  0.10760  0.65874  Biso   1.000  C
  C21      1.0000 0.32630  0.44110  0.11417  Biso   1.000  C
  C22      1.0000 0.67370  0.94110  0.38583  Biso   1.000  C
  C23      1.0000 0.67370  0.55890  0.88583  Biso   1.000  C
  C24      1.0000 0.32630  0.05890  0.61417  Biso   1.000  C
  H21      1.0000 0.26140  0.47290  0.07610  Biso   1.000  H
  H22      1.0000 0.73860  0.97290  0.42390  Biso   1.000  H
  H23      1.0000 0.73860  0.52710  0.92390  Biso   1.000  H
  H24      1.0000 0.26140  0.02710  0.57610  Biso   1.000  H
  H25      1.0000 0.39040  0.51570  0.13270  Biso   1.000  H
  H26      1.0000 0.60960  0.01570  0.36730  Biso   1.000  H
  H27      1.0000 0.60960  0.48430  0.86730  Biso   1.000  H
  H28      1.0000 0.39040  0.98430  0.63270  Biso   1.000  H
  C25      1.0000 0.57960  0.37510  0.07784  Biso   1.000  C
  C26      1.0000 0.42040  0.87510  0.42216  Biso   1.000  C
  C27      1.0000 0.42040  0.62490  0.92216  Biso   1.000  C
  C28      1.0000 0.57960  0.12490  0.57784  Biso   1.000  C
  H29      1.0000 0.61970  0.45620  0.09970  Biso   1.000  H
  H30      1.0000 0.38030  0.95620  0.40030  Biso   1.000  H
  H31      1.0000 0.38030  0.54380  0.90030  Biso   1.000  H
  H32      1.0000 0.61970  0.04380  0.59970  Biso   1.000  H
  H33      1.0000 0.56180  0.39420  0.03300  Biso   1.000  H
  H34      1.0000 0.43820  0.89420  0.46700  Biso   1.000  H
  H35      1.0000 0.43820  0.60580  0.96700  Biso   1.000  H
  H36      1.0000 0.56180  0.10580  0.53300  Biso   1.000  H
  C29      1.0000 0.70110  0.26620  0.09048  Biso   1.000  C
  C30      1.0000 0.29890  0.76620  0.40952  Biso   1.000  C
  C31      1.0000 0.29890  0.73380  0.90952  Biso   1.000  C
  C32      1.0000 0.70110  0.23380  0.59048  Biso   1.000  C
  C33      1.0000 0.83560  0.25910  0.06096  Biso   1.000  C
  C34      1.0000 0.16440  0.75910  0.43904  Biso   1.000  C
  C35      1.0000 0.16440  0.74090  0.93904  Biso   1.000  C
  C36      1.0000 0.83560  0.24090  0.56096  Biso   1.000  C
  H37      1.0000 0.85450  0.32240  0.03080  Biso   1.000  H
  H38      1.0000 0.14550  0.82240  0.46920  Biso   1.000  H
  H39      1.0000 0.14550  0.67760  0.96920  Biso   1.000  H
  H40      1.0000 0.85450  0.17760  0.53080  Biso   1.000  H
  C37      1.0000 0.94140  0.15750  0.07647  Biso   1.000  C
  C38      1.0000 0.05860  0.65750  0.42353  Biso   1.000  C
  C39      1.0000 0.05860  0.84250  0.92353  Biso   1.000  C
  C40      1.0000 0.94140  0.34250  0.57647  Biso   1.000  C
  H41      1.0000 0.03380  0.14960  0.05670  Biso   1.000  H
  H42      1.0000 0.96620  0.64960  0.44330  Biso   1.000  H
  H43      1.0000 0.96620  0.85040  0.94330  Biso   1.000  H
  H44      1.0000 0.03380  0.35040  0.55670  Biso   1.000  H
  C41      1.0000 0.91180  0.06800  0.12074  Biso   1.000  C
  C42      1.0000 0.08820  0.56800  0.37926  Biso   1.000  C
  C43      1.0000 0.08820  0.93200  0.87926  Biso   1.000  C
  C44      1.0000 0.91180  0.43200  0.62074  Biso   1.000  C
  H45      1.0000 0.98320  0.99750  0.13170  Biso   1.000  H
  H46      1.0000 0.01680  0.49750  0.36830  Biso   1.000  H
  H47      1.0000 0.01680  0.00250  0.86830  Biso   1.000  H
  H48      1.0000 0.98320  0.50250  0.63170  Biso   1.000  H
  C45      1.0000 0.77740  0.08170  0.14919  Biso   1.000  C
  C46      1.0000 0.22260  0.58170  0.35081  Biso   1.000  C
  C47      1.0000 0.22260  0.91830  0.85081  Biso   1.000  C
  C48      1.0000 0.77740  0.41830  0.64919  Biso   1.000  C
  H49      1.0000 0.75800  0.02050  0.18020  Biso   1.000  H
  H50      1.0000 0.24200  0.52050  0.31980  Biso   1.000  H
  H51      1.0000 0.24200  0.97950  0.81980  Biso   1.000  H
  H52      1.0000 0.75800  0.47950  0.68020  Biso   1.000  H
  C49      1.0000 0.37950  0.95740  0.06796  Biso   1.000  C
  C50      1.0000 0.62050  0.45740  0.43204  Biso   1.000  C
  C51      1.0000 0.62050  0.04260  0.93204  Biso   1.000  C
  C52      1.0000 0.37950  0.54260  0.56796  Biso   1.000  C
  H53      1.0000 0.48560  0.98580  0.05940  Biso   1.000  H
  H54      1.0000 0.51440  0.48580  0.44060  Biso   1.000  H
  H55      1.0000 0.51440  0.01420  0.94060  Biso   1.000  H
  H56      1.0000 0.48560  0.51420  0.55940  Biso   1.000  H
  H57      1.0000 0.30140  0.97930  0.03170  Biso   1.000  H
  H58      1.0000 0.69860  0.47930  0.46830  Biso   1.000  H
  H59      1.0000 0.69860  0.02070  0.96830  Biso   1.000  H
  H60      1.0000 0.30140  0.52070  0.53170  Biso   1.000  H
  C53      1.0000 0.37860  0.81180  0.08033  Biso   1.000  C
  C54      1.0000 0.62140  0.31180  0.41967  Biso   1.000  C
  C55      1.0000 0.62140  0.18820  0.91967  Biso   1.000  C
  C56      1.0000 0.37860  0.68820  0.58033  Biso   1.000  C
  H61      1.0000 0.45750  0.76530  0.05880  Biso   1.000  H
  H62      1.0000 0.54250  0.26530  0.44120  Biso   1.000  H
  H63      1.0000 0.54250  0.23470  0.94120  Biso   1.000  H
  H64      1.0000 0.45750  0.73470  0.55880  Biso   1.000  H
  H65      1.0000 0.27260  0.77330  0.06770  Biso   1.000  H
  H66      1.0000 0.72740  0.27330  0.43230  Biso   1.000  H
  H67      1.0000 0.72740  0.22670  0.93230  Biso   1.000  H
  H68      1.0000 0.27260  0.72670  0.56770  Biso   1.000  H
  C57      1.0000 0.42290  0.80690  0.14971  Biso   1.000  C
  C58      1.0000 0.57710  0.30690  0.35029  Biso   1.000  C
  C59      1.0000 0.57710  0.19310  0.85029  Biso   1.000  C
  C60      1.0000 0.42290  0.69310  0.64971  Biso   1.000  C
  H69      1.0000 0.53880  0.81440  0.16140  Biso   1.000  H
  H70      1.0000 0.46120  0.31440  0.33860  Biso   1.000  H
  H71      1.0000 0.46120  0.18560  0.83860  Biso   1.000  H
  H72      1.0000 0.53880  0.68560  0.66140  Biso   1.000  H
  H73      1.0000 0.38500  0.72480  0.16730  Biso   1.000  H
  H74      1.0000 0.61500  0.22480  0.33270  Biso   1.000  H
  H75      1.0000 0.61500  0.27520  0.83270  Biso   1.000  H
  H76      1.0000 0.38500  0.77520  0.66730  Biso   1.000  H
  C61      1.0000 0.33660  0.92720  0.17052  Biso   1.000  C
  C62      1.0000 0.66340  0.42720  0.32948  Biso   1.000  C
  C63      1.0000 0.66340  0.07280  0.82948  Biso   1.000  C
  C64      1.0000 0.33660  0.57280  0.67052  Biso   1.000  C
  H77      1.0000 0.22450  0.90300  0.17420  Biso   1.000  H
  H78      1.0000 0.77550  0.40300  0.32580  Biso   1.000  H
  H79      1.0000 0.77550  0.09700  0.82580  Biso   1.000  H
  H80      1.0000 0.22450  0.59700  0.67420  Biso   1.000  H
  C65      1.0000 0.41730  0.97620  0.23289  Biso   1.000  C
  C66      1.0000 0.58270  0.47620  0.26711  Biso   1.000  C
  C67      1.0000 0.58270  0.02380  0.76711  Biso   1.000  C
  C68      1.0000 0.41730  0.52380  0.73289  Biso   1.000  C
  Cl1      1.0000 0.16598  0.20228  0.43928  Biso   1.000  Cl
  Cl2      1.0000 0.83402  0.70228  0.06072  Biso   1.000  Cl
  Cl3      1.0000 0.83402  0.79772  0.56072  Biso   1.000  Cl
  Cl4      1.0000 0.16598  0.29772  0.93928  Biso   1.000  Cl
  O13      1.0000 0.24160  0.17550  0.38642  Biso   1.000  O
  O14      1.0000 0.75840  0.67550  0.11358  Biso   1.000  O
  O15      1.0000 0.75840  0.82450  0.61358  Biso   1.000  O
  O16      1.0000 0.24160  0.32450  0.88642  Biso   1.000  O
  O17      1.0000 0.01260  0.25520  0.41937  Biso   1.000  O
  O18      1.0000 0.98740  0.75520  0.08063  Biso   1.000  O
  O19      1.0000 0.98740  0.74480  0.58063  Biso   1.000  O
  O20      1.0000 0.01260  0.24480  0.91937  Biso   1.000  O
  O21      1.0000 0.15040  0.08320  0.47233  Biso   1.000  O
  O22      1.0000 0.84960  0.58320  0.02767  Biso   1.000  O
  O23      1.0000 0.84960  0.91680  0.52767  Biso   1.000  O
  O24      1.0000 0.15040  0.41680  0.97233  Biso   1.000  O
  O25      1.0000 0.25710  0.29470  0.47959  Biso   1.000  O
  O26      1.0000 0.74290  0.79470  0.02041  Biso   1.000  O
  O27      1.0000 0.74290  0.70530  0.52041  Biso   1.000  O
  O28      1.0000 0.25710  0.20530  0.97959  Biso   1.000  O
