data_image0
_cell_length_a       12.158
_cell_length_b       16.66
_cell_length_c       15.72
_cell_angle_alpha    90
_cell_angle_beta     109.19
_cell_angle_gamma    90

_symmetry_space_group_name_H-M    "P 1"
_symmetry_int_tables_number       1

loop_
  _symmetry_equiv_pos_as_xyz
  'x, y, z'

loop_
  _atom_site_label
  _atom_site_occupancy
  _atom_site_fract_x
  _atom_site_fract_y
  _atom_site_fract_z
  _atom_site_thermal_displace_type
  _atom_site_B_iso_or_equiv
  _atom_site_type_symbol
  Cu1      1.0000 0.19270  0.05507  0.28896  Biso   1.000  Cu
  Cu2      1.0000 0.69270  0.44493  0.78896  Biso   1.000  Cu
  Cu3      1.0000 0.80730  0.94493  0.71104  Biso   1.000  Cu
  Cu4      1.0000 0.30730  0.55507  0.21104  Biso   1.000  Cu
  O1       1.0000 0.32480  0.12183  0.29240  Biso   1.000  O
  O2       1.0000 0.82480  0.37817  0.79240  Biso   1.000  O
  O3       1.0000 0.67520  0.87817  0.70760  Biso   1.000  O
  O4       1.0000 0.17520  0.62183  0.20760  Biso   1.000  O
  C1       1.0000 0.50090  0.18910  0.34180  Biso   1.000  C
  C2       1.0000 0.00090  0.31090  0.84180  Biso   1.000  C
  C3       1.0000 0.49910  0.81090  0.65820  Biso   1.000  C
  C4       1.0000 0.99910  0.68910  0.15820  Biso   1.000  C
  F1       1.0000 0.46330  0.26410  0.32320  Biso   1.000  F
  F2       1.0000 0.96330  0.23590  0.82320  Biso   1.000  F
  F3       1.0000 0.53670  0.73590  0.67680  Biso   1.000  F
  F4       1.0000 0.03670  0.76410  0.17680  Biso   1.000  F
  F5       1.0000 0.53130  0.15940  0.27700  Biso   1.000  F
  F6       1.0000 0.03130  0.34060  0.77700  Biso   1.000  F
  F7       1.0000 0.46870  0.84060  0.72300  Biso   1.000  F
  F8       1.0000 0.96870  0.65940  0.22300  Biso   1.000  F
  F9       1.0000 0.59790  0.19730  0.41040  Biso   1.000  F
  F10      1.0000 0.09790  0.30270  0.91040  Biso   1.000  F
  F11      1.0000 0.40210  0.80270  0.58960  Biso   1.000  F
  F12      1.0000 0.90210  0.69730  0.08960  Biso   1.000  F
  C5       1.0000 0.40840  0.13920  0.36160  Biso   1.000  C
  C6       1.0000 0.90840  0.36080  0.86160  Biso   1.000  C
  C7       1.0000 0.59160  0.86080  0.63840  Biso   1.000  C
  C8       1.0000 0.09160  0.63920  0.13840  Biso   1.000  C
  C9       1.0000 0.42290  0.11820  0.44920  Biso   1.000  C
  C10      1.0000 0.92290  0.38180  0.94920  Biso   1.000  C
  C11      1.0000 0.57710  0.88180  0.55080  Biso   1.000  C
  C12      1.0000 0.07710  0.61820  0.05080  Biso   1.000  C
  H1       1.0000 0.47900  0.13700  0.49000  Biso   1.000  H
  H2       1.0000 0.97900  0.36300  0.99000  Biso   1.000  H
  H3       1.0000 0.52100  0.86300  0.51000  Biso   1.000  H
  H4       1.0000 0.02100  0.63700  0.01000  Biso   1.000  H
  C13      1.0000 0.34240  0.07190  0.47220  Biso   1.000  C
  C14      1.0000 0.84240  0.42810  0.97220  Biso   1.000  C
  C15      1.0000 0.65760  0.92810  0.52780  Biso   1.000  C
  C16      1.0000 0.15760  0.57190  0.02780  Biso   1.000  C
  C17      1.0000 0.36560  0.05540  0.57190  Biso   1.000  C
  C18      1.0000 0.86560  0.44460  0.07190  Biso   1.000  C
  C19      1.0000 0.63440  0.94460  0.42810  Biso   1.000  C
  C20      1.0000 0.13440  0.55540  0.92810  Biso   1.000  C
  F13      1.0000 0.47660  0.05010  0.61870  Biso   1.000  F
  F14      1.0000 0.97660  0.44990  0.11870  Biso   1.000  F
  F15      1.0000 0.52340  0.94990  0.38130  Biso   1.000  F
  F16      1.0000 0.02340  0.55010  0.88130  Biso   1.000  F
  F17      1.0000 0.32190  0.11130  0.60760  Biso   1.000  F
  F18      1.0000 0.82190  0.38870  0.10760  Biso   1.000  F
  F19      1.0000 0.67810  0.88870  0.39240  Biso   1.000  F
  F20      1.0000 0.17810  0.61130  0.89240  Biso   1.000  F
  F21      1.0000 0.32080  0.98670  0.58460  Biso   1.000  F
  F22      1.0000 0.82080  0.51330  0.08460  Biso   1.000  F
  F23      1.0000 0.67920  0.01330  0.41540  Biso   1.000  F
  F24      1.0000 0.17920  0.48670  0.91540  Biso   1.000  F
  O5       1.0000 0.25210  0.04086  0.42020  Biso   1.000  O
  O6       1.0000 0.75210  0.45914  0.92020  Biso   1.000  O
  O7       1.0000 0.74790  0.95914  0.57980  Biso   1.000  O
  O8       1.0000 0.24790  0.54086  0.07980  Biso   1.000  O
  O9       1.0000 0.04950  0.00092  0.28530  Biso   1.000  O
  O10      1.0000 0.54950  0.49908  0.78530  Biso   1.000  O
  O11      1.0000 0.95050  0.99908  0.71470  Biso   1.000  O
  O12      1.0000 0.45050  0.50092  0.21470  Biso   1.000  O
  C21      1.0000 0.85670  0.96000  0.23930  Biso   1.000  C
  C22      1.0000 0.35670  0.54000  0.73930  Biso   1.000  C
  C23      1.0000 0.14330  0.04000  0.76070  Biso   1.000  C
  C24      1.0000 0.64330  0.46000  0.26070  Biso   1.000  C
  F25      1.0000 0.85150  0.97350  0.31650  Biso   1.000  F
  F26      1.0000 0.35150  0.52650  0.81650  Biso   1.000  F
  F27      1.0000 0.14850  0.02650  0.68350  Biso   1.000  F
  F28      1.0000 0.64850  0.47350  0.18350  Biso   1.000  F
  F29      1.0000 0.75830  0.97400  0.19110  Biso   1.000  F
  F30      1.0000 0.25830  0.52600  0.69110  Biso   1.000  F
  F31      1.0000 0.24170  0.02600  0.80890  Biso   1.000  F
  F32      1.0000 0.74170  0.47400  0.30890  Biso   1.000  F
  F33      1.0000 0.87240  0.88780  0.24400  Biso   1.000  F
  F34      1.0000 0.37240  0.61220  0.74400  Biso   1.000  F
  F35      1.0000 0.12760  0.11220  0.75600  Biso   1.000  F
  F36      1.0000 0.62760  0.38780  0.25600  Biso   1.000  F
  C25      1.0000 0.95490  0.00760  0.22340  Biso   1.000  C
  C26      1.0000 0.45490  0.49240  0.72340  Biso   1.000  C
  C27      1.0000 0.04510  0.99240  0.77660  Biso   1.000  C
  C28      1.0000 0.54510  0.50760  0.27660  Biso   1.000  C
  C29      1.0000 0.93070  0.05040  0.14510  Biso   1.000  C
  C30      1.0000 0.43070  0.44960  0.64510  Biso   1.000  C
  C31      1.0000 0.06930  0.94960  0.85490  Biso   1.000  C
  C32      1.0000 0.56930  0.55040  0.35490  Biso   1.000  C
  H5       1.0000 0.86700  0.05000  0.10100  Biso   1.000  H
  H6       1.0000 0.36700  0.45000  0.60100  Biso   1.000  H
  H7       1.0000 0.13300  0.95000  0.89900  Biso   1.000  H
  H8       1.0000 0.63300  0.55000  0.39900  Biso   1.000  H
  C33      1.0000 0.01590  0.09220  0.12360  Biso   1.000  C
  C34      1.0000 0.51590  0.40780  0.62360  Biso   1.000  C
  C35      1.0000 0.98410  0.90780  0.87640  Biso   1.000  C
  C36      1.0000 0.48410  0.59220  0.37640  Biso   1.000  C
  C37      1.0000 0.98280  0.13830  0.03600  Biso   1.000  C
  C38      1.0000 0.48280  0.36170  0.53600  Biso   1.000  C
  C39      1.0000 0.01720  0.86170  0.96400  Biso   1.000  C
  C40      1.0000 0.51720  0.63830  0.46400  Biso   1.000  C
  F37      1.0000 0.00840  0.10340  0.97770  Biso   1.000  F
  F38      1.0000 0.50840  0.39660  0.47770  Biso   1.000  F
  F39      1.0000 0.99160  0.89660  0.02230  Biso   1.000  F
  F40      1.0000 0.49160  0.60340  0.52230  Biso   1.000  F
  F41      1.0000 0.87950  0.15390  0.00090  Biso   1.000  F
  F42      1.0000 0.37950  0.34610  0.50090  Biso   1.000  F
  F43      1.0000 0.12050  0.84610  0.99910  Biso   1.000  F
  F44      1.0000 0.62050  0.65390  0.49910  Biso   1.000  F
  F45      1.0000 0.02590  0.20400  0.04190  Biso   1.000  F
  F46      1.0000 0.52590  0.29600  0.54190  Biso   1.000  F
  F47      1.0000 0.97410  0.79600  0.95810  Biso   1.000  F
  F48      1.0000 0.47410  0.70400  0.45810  Biso   1.000  F
  O13      1.0000 0.12050  0.09719  0.16814  Biso   1.000  O
  O14      1.0000 0.62050  0.40281  0.66814  Biso   1.000  O
  O15      1.0000 0.87950  0.90281  0.83186  Biso   1.000  O
  O16      1.0000 0.37950  0.59719  0.33186  Biso   1.000  O
  O17      1.0000 0.08140  0.18280  0.31790  Biso   1.000  O
  O18      1.0000 0.58140  0.31720  0.81790  Biso   1.000  O
  O19      1.0000 0.91860  0.81720  0.68210  Biso   1.000  O
  O20      1.0000 0.41860  0.68280  0.18210  Biso   1.000  O
  N1       1.0000 0.06210  0.23350  0.37100  Biso   1.000  N
  N2       1.0000 0.56210  0.26650  0.87100  Biso   1.000  N
  N3       1.0000 0.93790  0.76650  0.62900  Biso   1.000  N
  N4       1.0000 0.43790  0.73350  0.12900  Biso   1.000  N
  C41      1.0000 0.98260  0.21890  0.42350  Biso   1.000  C
  C42      1.0000 0.48260  0.28110  0.92350  Biso   1.000  C
  C43      1.0000 0.01740  0.78110  0.57650  Biso   1.000  C
  C44      1.0000 0.51740  0.71890  0.07650  Biso   1.000  C
  C45      1.0000 0.00580  0.13750  0.46870  Biso   1.000  C
  C46      1.0000 0.50580  0.36250  0.96870  Biso   1.000  C
  C47      1.0000 0.99420  0.86250  0.53130  Biso   1.000  C
  C48      1.0000 0.49420  0.63750  0.03130  Biso   1.000  C
  H9       1.0000 0.07800  0.15100  0.51300  Biso   1.000  H
  H10      1.0000 0.57800  0.34900  0.01300  Biso   1.000  H
  H11      1.0000 0.92200  0.84900  0.48700  Biso   1.000  H
  H12      1.0000 0.42200  0.65100  0.98700  Biso   1.000  H
  H13      1.0000 0.95400  0.13800  0.51900  Biso   1.000  H
  H14      1.0000 0.45400  0.36200  0.01900  Biso   1.000  H
  H15      1.0000 0.04600  0.86200  0.48100  Biso   1.000  H
  H16      1.0000 0.54600  0.63800  0.98100  Biso   1.000  H
  H17      1.0000 0.97200  0.10200  0.41700  Biso   1.000  H
  H18      1.0000 0.47200  0.39800  0.91700  Biso   1.000  H
  H19      1.0000 0.02800  0.89800  0.58300  Biso   1.000  H
  H20      1.0000 0.52800  0.60200  0.08300  Biso   1.000  H
  C49      1.0000 0.86190  0.22010  0.35040  Biso   1.000  C
  C50      1.0000 0.36190  0.27990  0.85040  Biso   1.000  C
  C51      1.0000 0.13810  0.77990  0.64960  Biso   1.000  C
  C52      1.0000 0.63810  0.72010  0.14960  Biso   1.000  C
  H21      1.0000 0.83600  0.16900  0.31500  Biso   1.000  H
  H22      1.0000 0.33600  0.33100  0.81500  Biso   1.000  H
  H23      1.0000 0.16400  0.83100  0.68500  Biso   1.000  H
  H24      1.0000 0.66400  0.66900  0.18500  Biso   1.000  H
  H25      1.0000 0.82000  0.22500  0.37400  Biso   1.000  H
  H26      1.0000 0.32000  0.27500  0.87400  Biso   1.000  H
  H27      1.0000 0.18000  0.77500  0.62600  Biso   1.000  H
  H28      1.0000 0.68000  0.72500  0.12600  Biso   1.000  H
  H29      1.0000 0.83800  0.28100  0.31500  Biso   1.000  H
  H30      1.0000 0.33800  0.21900  0.81500  Biso   1.000  H
  H31      1.0000 0.16200  0.71900  0.68500  Biso   1.000  H
  H32      1.0000 0.66200  0.78100  0.18500  Biso   1.000  H
  C53      1.0000 0.01320  0.29320  0.48470  Biso   1.000  C
  C54      1.0000 0.51320  0.20680  0.98470  Biso   1.000  C
  C55      1.0000 0.98680  0.70680  0.51530  Biso   1.000  C
  C56      1.0000 0.48680  0.79320  0.01530  Biso   1.000  C
  C57      1.0000 0.91110  0.33050  0.50540  Biso   1.000  C
  C58      1.0000 0.41110  0.16950  0.00540  Biso   1.000  C
  C59      1.0000 0.08890  0.66950  0.49460  Biso   1.000  C
  C60      1.0000 0.58890  0.83050  0.99460  Biso   1.000  C
  H33      1.0000 0.85800  0.34700  0.46000  Biso   1.000  H
  H34      1.0000 0.35800  0.15300  0.96000  Biso   1.000  H
  H35      1.0000 0.14200  0.65300  0.54000  Biso   1.000  H
  H36      1.0000 0.64200  0.84700  0.04000  Biso   1.000  H
  H37      1.0000 0.87800  0.28700  0.53800  Biso   1.000  H
  H38      1.0000 0.37800  0.21300  0.03800  Biso   1.000  H
  H39      1.0000 0.12200  0.71300  0.46200  Biso   1.000  H
  H40      1.0000 0.62200  0.78700  0.96200  Biso   1.000  H
  H41      1.0000 0.94400  0.37600  0.54900  Biso   1.000  H
  H42      1.0000 0.44400  0.12400  0.04900  Biso   1.000  H
  H43      1.0000 0.05600  0.62400  0.45100  Biso   1.000  H
  H44      1.0000 0.55600  0.87600  0.95100  Biso   1.000  H
  C61      1.0000 0.11380  0.27740  0.57220  Biso   1.000  C
  C62      1.0000 0.61380  0.22260  0.07220  Biso   1.000  C
  C63      1.0000 0.88620  0.72260  0.42780  Biso   1.000  C
  C64      1.0000 0.38620  0.77740  0.92780  Biso   1.000  C
  H45      1.0000 0.13100  0.32900  0.59700  Biso   1.000  H
  H46      1.0000 0.63100  0.17100  0.09700  Biso   1.000  H
  H47      1.0000 0.86900  0.67100  0.40300  Biso   1.000  H
  H48      1.0000 0.36900  0.82900  0.90300  Biso   1.000  H
  H49      1.0000 0.08900  0.24900  0.61200  Biso   1.000  H
  H50      1.0000 0.58900  0.25100  0.11200  Biso   1.000  H
  H51      1.0000 0.91100  0.75100  0.38800  Biso   1.000  H
  H52      1.0000 0.41100  0.74900  0.88800  Biso   1.000  H
  H53      1.0000 0.19000  0.24900  0.55000  Biso   1.000  H
  H54      1.0000 0.69000  0.25100  0.05000  Biso   1.000  H
  H55      1.0000 0.81000  0.75100  0.45000  Biso   1.000  H
  H56      1.0000 0.31000  0.74900  0.95000  Biso   1.000  H
  N5       1.0000 0.05900  0.35220  0.43280  Biso   1.000  N
  N6       1.0000 0.55900  0.14780  0.93280  Biso   1.000  N
  N7       1.0000 0.94100  0.64780  0.56720  Biso   1.000  N
  N8       1.0000 0.44100  0.85220  0.06720  Biso   1.000  N
  C65      1.0000 0.09100  0.31470  0.37510  Biso   1.000  C
  C66      1.0000 0.59100  0.18530  0.87510  Biso   1.000  C
  C67      1.0000 0.90900  0.68530  0.62490  Biso   1.000  C
  C68      1.0000 0.40900  0.81470  0.12490  Biso   1.000  C
  C69      1.0000 0.14740  0.34870  0.31480  Biso   1.000  C
  C70      1.0000 0.64740  0.15130  0.81480  Biso   1.000  C
  C71      1.0000 0.85260  0.65130  0.68520  Biso   1.000  C
  C72      1.0000 0.35260  0.84870  0.18520  Biso   1.000  C
  C73      1.0000 0.17930  0.42960  0.31120  Biso   1.000  C
  C74      1.0000 0.67930  0.07040  0.81120  Biso   1.000  C
  C75      1.0000 0.82070  0.57040  0.68880  Biso   1.000  C
  C76      1.0000 0.32070  0.92960  0.18880  Biso   1.000  C
  C77      1.0000 0.16020  0.49780  0.36560  Biso   1.000  C
  C78      1.0000 0.66020  0.00220  0.86560  Biso   1.000  C
  C79      1.0000 0.83980  0.50220  0.63440  Biso   1.000  C
  C80      1.0000 0.33980  0.99780  0.13440  Biso   1.000  C
  H57      1.0000 0.20900  0.53600  0.37300  Biso   1.000  H
  H58      1.0000 0.70900  0.96400  0.87300  Biso   1.000  H
  H59      1.0000 0.79100  0.46400  0.62700  Biso   1.000  H
  H60      1.0000 0.29100  0.03600  0.12700  Biso   1.000  H
  H61      1.0000 0.08200  0.51100  0.37400  Biso   1.000  H
  H62      1.0000 0.58200  0.98900  0.87400  Biso   1.000  H
  H63      1.0000 0.91800  0.48900  0.62600  Biso   1.000  H
  H64      1.0000 0.41800  0.01100  0.12600  Biso   1.000  H
  H65      1.0000 0.17500  0.47700  0.43000  Biso   1.000  H
  H66      1.0000 0.67500  0.02300  0.93000  Biso   1.000  H
  H67      1.0000 0.82500  0.52300  0.57000  Biso   1.000  H
  H68      1.0000 0.32500  0.97700  0.07000  Biso   1.000  H
  N9       1.0000 0.22940  0.43956  0.24850  Biso   1.000  N
  N10      1.0000 0.72940  0.06044  0.74850  Biso   1.000  N
  N11      1.0000 0.77060  0.56044  0.75150  Biso   1.000  N
  N12      1.0000 0.27060  0.93956  0.25150  Biso   1.000  N
  N13      1.0000 0.22980  0.36563  0.21160  Biso   1.000  N
  N14      1.0000 0.72980  0.13437  0.71160  Biso   1.000  N
  N15      1.0000 0.77020  0.63437  0.78840  Biso   1.000  N
  N16      1.0000 0.27020  0.86563  0.28840  Biso   1.000  N
  C81      1.0000 0.27790  0.35260  0.13930  Biso   1.000  C
  C82      1.0000 0.77790  0.14740  0.63930  Biso   1.000  C
  C83      1.0000 0.72210  0.64740  0.86070  Biso   1.000  C
  C84      1.0000 0.22210  0.85260  0.36070  Biso   1.000  C
  H69      1.0000 0.27400  0.29900  0.12700  Biso   1.000  H
  H70      1.0000 0.77400  0.20100  0.62700  Biso   1.000  H
  H71      1.0000 0.72600  0.70100  0.87300  Biso   1.000  H
  H72      1.0000 0.22600  0.79900  0.37300  Biso   1.000  H
  H73      1.0000 0.23700  0.38500  0.08600  Biso   1.000  H
  H74      1.0000 0.73700  0.11500  0.58600  Biso   1.000  H
  H75      1.0000 0.76300  0.61500  0.91400  Biso   1.000  H
  H76      1.0000 0.26300  0.88500  0.41400  Biso   1.000  H
  H77      1.0000 0.35500  0.35400  0.15800  Biso   1.000  H
  H78      1.0000 0.85500  0.14600  0.65800  Biso   1.000  H
  H79      1.0000 0.64500  0.64600  0.84200  Biso   1.000  H
  H80      1.0000 0.14500  0.85400  0.34200  Biso   1.000  H
  C85      1.0000 0.18120  0.31130  0.24970  Biso   1.000  C
  C86      1.0000 0.68120  0.18870  0.74970  Biso   1.000  C
  C87      1.0000 0.81880  0.68870  0.75030  Biso   1.000  C
  C88      1.0000 0.31880  0.81130  0.25030  Biso   1.000  C
  H81      1.0000 0.17700  0.26300  0.23400  Biso   1.000  H
  H82      1.0000 0.67700  0.23700  0.73400  Biso   1.000  H
  H83      1.0000 0.82300  0.73700  0.76600  Biso   1.000  H
  H84      1.0000 0.32300  0.76300  0.26600  Biso   1.000  H
