data_image0
_cell_length_a       8.2722
_cell_length_b       27.6453
_cell_length_c       11.1959
_cell_angle_alpha    90
_cell_angle_beta     93.561
_cell_angle_gamma    90

_symmetry_space_group_name_H-M    "P 1"
_symmetry_int_tables_number       1

loop_
  _symmetry_equiv_pos_as_xyz
  'x, y, z'

loop_
  _atom_site_label
  _atom_site_occupancy
  _atom_site_fract_x
  _atom_site_fract_y
  _atom_site_fract_z
  _atom_site_thermal_displace_type
  _atom_site_B_iso_or_equiv
  _atom_site_type_symbol
  Cu1      1.0000 0.59434  0.34379  0.26867  Biso   1.000  Cu
  Cu2      1.0000 0.90566  0.84379  0.23133  Biso   1.000  Cu
  Cu3      1.0000 0.40566  0.65621  0.73133  Biso   1.000  Cu
  Cu4      1.0000 0.09434  0.15621  0.76867  Biso   1.000  Cu
  Br1      1.0000 0.51253  0.24393  0.89956  Biso   1.000  Br
  Br2      1.0000 0.98747  0.74393  0.60044  Biso   1.000  Br
  Br3      1.0000 0.48747  0.75607  0.10044  Biso   1.000  Br
  Br4      1.0000 0.01253  0.25607  0.39956  Biso   1.000  Br
  Br5      1.0000 0.65722  0.24422  0.62816  Biso   1.000  Br
  Br6      1.0000 0.84278  0.74422  0.87184  Biso   1.000  Br
  Br7      1.0000 0.34278  0.75578  0.37184  Biso   1.000  Br
  Br8      1.0000 0.15722  0.25578  0.12816  Biso   1.000  Br
  Br9      1.0000 0.69148  0.44761  0.63918  Biso   1.000  Br
  Br10     1.0000 0.80852  0.94761  0.86082  Biso   1.000  Br
  Br11     1.0000 0.30852  0.55239  0.36082  Biso   1.000  Br
  Br12     1.0000 0.19148  0.05239  0.13918  Biso   1.000  Br
  Br13     1.0000 0.56872  0.44663  0.91918  Biso   1.000  Br
  Br14     1.0000 0.93128  0.94663  0.58082  Biso   1.000  Br
  Br15     1.0000 0.43128  0.55337  0.08082  Biso   1.000  Br
  Br16     1.0000 0.06872  0.05337  0.41918  Biso   1.000  Br
  O1       1.0000 0.64350  0.08747  0.26930  Biso   1.000  O
  O2       1.0000 0.85650  0.58747  0.23070  Biso   1.000  O
  O3       1.0000 0.35650  0.91253  0.73070  Biso   1.000  O
  O4       1.0000 0.14350  0.41253  0.76930  Biso   1.000  O
  O5       1.0000 0.60520  0.33965  0.09249  Biso   1.000  O
  O6       1.0000 0.89480  0.83965  0.40751  Biso   1.000  O
  O7       1.0000 0.39480  0.66035  0.90751  Biso   1.000  O
  O8       1.0000 0.10520  0.16035  0.59249  Biso   1.000  O
  O9       1.0000 0.34540  0.34997  0.02510  Biso   1.000  O
  O10      1.0000 0.15460  0.84997  0.47490  Biso   1.000  O
  O11      1.0000 0.65460  0.65003  0.97490  Biso   1.000  O
  O12      1.0000 0.84540  0.15003  0.52510  Biso   1.000  O
  O13      1.0000 0.84900  0.34527  0.50720  Biso   1.000  O
  O14      1.0000 0.65100  0.84527  0.99280  Biso   1.000  O
  O15      1.0000 0.15100  0.65473  0.49280  Biso   1.000  O
  O16      1.0000 0.34900  0.15473  0.00720  Biso   1.000  O
  O17      1.0000 0.58630  0.34732  0.44456  Biso   1.000  O
  O18      1.0000 0.91370  0.84732  0.05544  Biso   1.000  O
  O19      1.0000 0.41370  0.65268  0.55544  Biso   1.000  O
  O20      1.0000 0.08630  0.15268  0.94456  Biso   1.000  O
  O21      1.0000 0.34560  0.37134  0.25800  Biso   1.000  O
  O22      1.0000 0.15440  0.87134  0.24200  Biso   1.000  O
  O23      1.0000 0.65440  0.62866  0.74200  Biso   1.000  O
  O24      1.0000 0.84560  0.12866  0.75800  Biso   1.000  O
  H1       1.0000 0.29440  0.36520  0.19160  Biso   1.000  H
  H2       1.0000 0.20560  0.86520  0.30840  Biso   1.000  H
  H3       1.0000 0.70560  0.63480  0.80840  Biso   1.000  H
  H4       1.0000 0.79440  0.13480  0.69160  Biso   1.000  H
  H5       1.0000 0.29270  0.36960  0.32060  Biso   1.000  H
  H6       1.0000 0.20730  0.86960  0.17940  Biso   1.000  H
  H7       1.0000 0.70730  0.63040  0.67940  Biso   1.000  H
  H8       1.0000 0.79270  0.13040  0.82060  Biso   1.000  H
  N1       1.0000 0.57280  0.27140  0.27460  Biso   1.000  N
  N2       1.0000 0.92720  0.77140  0.22540  Biso   1.000  N
  N3       1.0000 0.42720  0.72860  0.72540  Biso   1.000  N
  N4       1.0000 0.07280  0.22860  0.77460  Biso   1.000  N
  N5       1.0000 0.47000  0.10073  0.40800  Biso   1.000  N
  N6       1.0000 0.03000  0.60073  0.09200  Biso   1.000  N
  N7       1.0000 0.53000  0.89927  0.59200  Biso   1.000  N
  N8       1.0000 0.97000  0.39927  0.90800  Biso   1.000  N
  N9       1.0000 0.49820  0.05075  0.40130  Biso   1.000  N
  N10      1.0000 0.00180  0.55075  0.09870  Biso   1.000  N
  N11      1.0000 0.50180  0.94925  0.59870  Biso   1.000  N
  N12      1.0000 0.99820  0.44925  0.90130  Biso   1.000  N
  N13      1.0000 0.79520  0.90829  0.24040  Biso   1.000  N
  N14      1.0000 0.70480  0.40829  0.25960  Biso   1.000  N
  N15      1.0000 0.20480  0.09171  0.75960  Biso   1.000  N
  N16      1.0000 0.29520  0.59171  0.74040  Biso   1.000  N
  C1       1.0000 0.56380  0.17192  0.30520  Biso   1.000  C
  C2       1.0000 0.93620  0.67192  0.19480  Biso   1.000  C
  C3       1.0000 0.43620  0.82808  0.69480  Biso   1.000  C
  C4       1.0000 0.06380  0.32808  0.80520  Biso   1.000  C
  C5       1.0000 0.65990  0.19230  0.22080  Biso   1.000  C
  C6       1.0000 0.84010  0.69230  0.27920  Biso   1.000  C
  C7       1.0000 0.34010  0.80770  0.77920  Biso   1.000  C
  C8       1.0000 0.15990  0.30770  0.72080  Biso   1.000  C
  H9       1.0000 0.72160  0.17290  0.17330  Biso   1.000  H
  H10      1.0000 0.77840  0.67290  0.32670  Biso   1.000  H
  H11      1.0000 0.27840  0.82710  0.82670  Biso   1.000  H
  H12      1.0000 0.22160  0.32710  0.67330  Biso   1.000  H
  C9       1.0000 0.66130  0.24186  0.20930  Biso   1.000  C
  C10      1.0000 0.83870  0.74186  0.29070  Biso   1.000  C
  C11      1.0000 0.33870  0.75814  0.79070  Biso   1.000  C
  C12      1.0000 0.16130  0.25814  0.70930  Biso   1.000  C
  H13      1.0000 0.72660  0.25550  0.15360  Biso   1.000  H
  H14      1.0000 0.77340  0.75550  0.34640  Biso   1.000  H
  H15      1.0000 0.27340  0.74450  0.84640  Biso   1.000  H
  H16      1.0000 0.22660  0.24450  0.65360  Biso   1.000  H
  C13      1.0000 0.47560  0.25135  0.35240  Biso   1.000  C
  C14      1.0000 0.02440  0.75135  0.14760  Biso   1.000  C
  C15      1.0000 0.52440  0.74865  0.64760  Biso   1.000  C
  C16      1.0000 0.97560  0.24865  0.85240  Biso   1.000  C
  H17      1.0000 0.41110  0.27140  0.39610  Biso   1.000  H
  H18      1.0000 0.08890  0.77140  0.10390  Biso   1.000  H
  H19      1.0000 0.58890  0.72860  0.60390  Biso   1.000  H
  H20      1.0000 0.91110  0.22860  0.89610  Biso   1.000  H
  C17      1.0000 0.46790  0.20237  0.36980  Biso   1.000  C
  C18      1.0000 0.03210  0.70237  0.13020  Biso   1.000  C
  C19      1.0000 0.53210  0.79763  0.63020  Biso   1.000  C
  C20      1.0000 0.96790  0.29763  0.86980  Biso   1.000  C
  H21      1.0000 0.39910  0.18960  0.42440  Biso   1.000  H
  H22      1.0000 0.10090  0.68960  0.07560  Biso   1.000  H
  H23      1.0000 0.60090  0.81040  0.57560  Biso   1.000  H
  H24      1.0000 0.89910  0.31040  0.92440  Biso   1.000  H
  C21      1.0000 0.55630  0.12044  0.32960  Biso   1.000  C
  C22      1.0000 0.94370  0.62044  0.17040  Biso   1.000  C
  C23      1.0000 0.44370  0.87956  0.67040  Biso   1.000  C
  C24      1.0000 0.05630  0.37956  0.82960  Biso   1.000  C
  C25      1.0000 0.59910  0.04492  0.31990  Biso   1.000  C
  C26      1.0000 0.90090  0.54492  0.18010  Biso   1.000  C
  C27      1.0000 0.40090  0.95508  0.68010  Biso   1.000  C
  C28      1.0000 0.09910  0.45508  0.81990  Biso   1.000  C
  C29      1.0000 0.66490  0.99839  0.28370  Biso   1.000  C
  C30      1.0000 0.83510  0.49839  0.21630  Biso   1.000  C
  C31      1.0000 0.33510  0.00161  0.71630  Biso   1.000  C
  C32      1.0000 0.16490  0.50161  0.78370  Biso   1.000  C
  C33      1.0000 0.79480  0.99361  0.21250  Biso   1.000  C
  C34      1.0000 0.70520  0.49361  0.28750  Biso   1.000  C
  C35      1.0000 0.20520  0.00639  0.78750  Biso   1.000  C
  C36      1.0000 0.29480  0.50639  0.71250  Biso   1.000  C
  H25      1.0000 0.83990  0.02070  0.17820  Biso   1.000  H
  H26      1.0000 0.66010  0.52070  0.32180  Biso   1.000  H
  H27      1.0000 0.16010  0.97930  0.82180  Biso   1.000  H
  H28      1.0000 0.33990  0.47930  0.67820  Biso   1.000  H
  C37      1.0000 0.85620  0.94828  0.19320  Biso   1.000  C
  C38      1.0000 0.64380  0.44828  0.30680  Biso   1.000  C
  C39      1.0000 0.14380  0.05172  0.80680  Biso   1.000  C
  C40      1.0000 0.35620  0.55172  0.69320  Biso   1.000  C
  H29      1.0000 0.94370  0.94530  0.14540  Biso   1.000  H
  H30      1.0000 0.55630  0.44530  0.35460  Biso   1.000  H
  H31      1.0000 0.05630  0.05470  0.85460  Biso   1.000  H
  H32      1.0000 0.44370  0.55470  0.64540  Biso   1.000  H
  C41      1.0000 0.66720  0.91288  0.30560  Biso   1.000  C
  C42      1.0000 0.83280  0.41288  0.19440  Biso   1.000  C
  C43      1.0000 0.33280  0.08712  0.69440  Biso   1.000  C
  C44      1.0000 0.16720  0.58712  0.80560  Biso   1.000  C
  H33      1.0000 0.62250  0.88510  0.33700  Biso   1.000  H
  H34      1.0000 0.87750  0.38510  0.16300  Biso   1.000  H
  H35      1.0000 0.37750  0.11490  0.66300  Biso   1.000  H
  H36      1.0000 0.12250  0.61490  0.83700  Biso   1.000  H
  C45      1.0000 0.59750  0.95705  0.32870  Biso   1.000  C
  C46      1.0000 0.90250  0.45705  0.17130  Biso   1.000  C
  C47      1.0000 0.40250  0.04295  0.67130  Biso   1.000  C
  C48      1.0000 0.09750  0.54295  0.82870  Biso   1.000  C
  H37      1.0000 0.50690  0.95890  0.37360  Biso   1.000  H
  H38      1.0000 0.99310  0.45890  0.12640  Biso   1.000  H
  H39      1.0000 0.49310  0.04110  0.62640  Biso   1.000  H
  H40      1.0000 0.00690  0.54110  0.87360  Biso   1.000  H
  C49      1.0000 0.49160  0.34523  0.01300  Biso   1.000  C
  C50      1.0000 0.00840  0.84523  0.48700  Biso   1.000  C
  C51      1.0000 0.50840  0.65477  0.98700  Biso   1.000  C
  C52      1.0000 0.99160  0.15477  0.51300  Biso   1.000  C
  C53      1.0000 0.54650  0.34548  0.88520  Biso   1.000  C
  C54      1.0000 0.95350  0.84548  0.61480  Biso   1.000  C
  C55      1.0000 0.45350  0.65452  0.11480  Biso   1.000  C
  C56      1.0000 0.04650  0.15452  0.38520  Biso   1.000  C
  C57      1.0000 0.56360  0.30252  0.82290  Biso   1.000  C
  C58      1.0000 0.93640  0.80252  0.67710  Biso   1.000  C
  C59      1.0000 0.43640  0.69748  0.17710  Biso   1.000  C
  C60      1.0000 0.06360  0.19748  0.32290  Biso   1.000  C
  C61      1.0000 0.61720  0.30277  0.70770  Biso   1.000  C
  C62      1.0000 0.88280  0.80277  0.79230  Biso   1.000  C
  C63      1.0000 0.38280  0.69723  0.29230  Biso   1.000  C
  C64      1.0000 0.11720  0.19723  0.20770  Biso   1.000  C
  C65      1.0000 0.65040  0.34616  0.65150  Biso   1.000  C
  C66      1.0000 0.84960  0.84616  0.84850  Biso   1.000  C
  C67      1.0000 0.34960  0.65384  0.34850  Biso   1.000  C
  C68      1.0000 0.15040  0.15384  0.15150  Biso   1.000  C
  C69      1.0000 0.63480  0.38898  0.71420  Biso   1.000  C
  C70      1.0000 0.86520  0.88898  0.78580  Biso   1.000  C
  C71      1.0000 0.36520  0.61102  0.28580  Biso   1.000  C
  C72      1.0000 0.13480  0.11102  0.21420  Biso   1.000  C
  C73      1.0000 0.58430  0.38901  0.83060  Biso   1.000  C
  C74      1.0000 0.91570  0.88901  0.66940  Biso   1.000  C
  C75      1.0000 0.41570  0.61099  0.16940  Biso   1.000  C
  C76      1.0000 0.08430  0.11099  0.33060  Biso   1.000  C
  C77      1.0000 0.70420  0.34629  0.52240  Biso   1.000  C
  C78      1.0000 0.79580  0.84629  0.97760  Biso   1.000  C
  C79      1.0000 0.29580  0.65371  0.47760  Biso   1.000  C
  C80      1.0000 0.20420  0.15371  0.02240  Biso   1.000  C
  O25      1.0000 0.11970  0.38190  0.42060  Biso   1.000  O
  O26      1.0000 0.38030  0.88190  0.07940  Biso   1.000  O
  O27      1.0000 0.88030  0.61810  0.57940  Biso   1.000  O
  O28      1.0000 0.61970  0.11810  0.92060  Biso   1.000  O
  H41      1.0000 0.03300  0.37080  0.43970  Biso   1.000  H
  H42      1.0000 0.46700  0.87080  0.06030  Biso   1.000  H
  H43      1.0000 0.96700  0.62920  0.56030  Biso   1.000  H
  H44      1.0000 0.53300  0.12920  0.93970  Biso   1.000  H
  C81      1.0000 0.13700  0.42860  0.46290  Biso   1.000  C
  C82      1.0000 0.36300  0.92860  0.03710  Biso   1.000  C
  C83      1.0000 0.86300  0.57140  0.53710  Biso   1.000  C
  C84      1.0000 0.63700  0.07140  0.96290  Biso   1.000  C
  H45      1.0000 0.06590  0.43360  0.52630  Biso   1.000  H
  H46      1.0000 0.43410  0.93360  0.97370  Biso   1.000  H
  H47      1.0000 0.93410  0.56640  0.47370  Biso   1.000  H
  H48      1.0000 0.56590  0.06640  0.02630  Biso   1.000  H
  H49      1.0000 0.11020  0.45100  0.39910  Biso   1.000  H
  H50      1.0000 0.38980  0.95100  0.10090  Biso   1.000  H
  H51      1.0000 0.88980  0.54900  0.60090  Biso   1.000  H
  H52      1.0000 0.61020  0.04900  0.89910  Biso   1.000  H
  H53      1.0000 0.24710  0.43370  0.49270  Biso   1.000  H
  H54      1.0000 0.25290  0.93370  0.00730  Biso   1.000  H
  H55      1.0000 0.75290  0.56630  0.50730  Biso   1.000  H
  H56      1.0000 0.74710  0.06630  0.99270  Biso   1.000  H
