data_image0
_cell_length_a       9.6007
_cell_length_b       10.0744
_cell_length_c       11.6249
_cell_angle_alpha    90
_cell_angle_beta     90.02
_cell_angle_gamma    90

_symmetry_space_group_name_H-M    "P 1"
_symmetry_int_tables_number       1

loop_
  _symmetry_equiv_pos_as_xyz
  'x, y, z'

loop_
  _atom_site_label
  _atom_site_occupancy
  _atom_site_fract_x
  _atom_site_fract_y
  _atom_site_fract_z
  _atom_site_thermal_displace_type
  _atom_site_B_iso_or_equiv
  _atom_site_type_symbol
  Cu1      1.0000 0.70052  0.56610  0.02376  Biso   1.000  Cu
  Cu2      1.0000 0.29948  0.06610  0.97624  Biso   1.000  Cu
  C1       1.0000 0.23570  0.43420  0.26330  Biso   1.000  C
  C2       1.0000 0.76430  0.93420  0.73670  Biso   1.000  C
  H1       1.0000 0.17360  0.45290  0.32260  Biso   1.000  H
  H2       1.0000 0.82640  0.95290  0.67740  Biso   1.000  H
  C3       1.0000 0.37720  0.43150  0.28730  Biso   1.000  C
  C4       1.0000 0.62280  0.93150  0.71270  Biso   1.000  C
  C5       1.0000 0.46960  0.40160  0.19860  Biso   1.000  C
  C6       1.0000 0.53040  0.90160  0.80140  Biso   1.000  C
  C7       1.0000 0.41700  0.37090  0.08930  Biso   1.000  C
  C8       1.0000 0.58300  0.87090  0.91070  Biso   1.000  C
  C9       1.0000 0.27490  0.37230  0.06630  Biso   1.000  C
  C10      1.0000 0.72510  0.87230  0.93370  Biso   1.000  C
  C11      1.0000 0.18330  0.41000  0.15370  Biso   1.000  C
  C12      1.0000 0.81670  0.91000  0.84630  Biso   1.000  C
  C13      1.0000 0.42570  0.46230  0.40620  Biso   1.000  C
  C14      1.0000 0.57430  0.96230  0.59380  Biso   1.000  C
  C15      1.0000 0.62500  0.39460  0.22070  Biso   1.000  C
  C16      1.0000 0.37500  0.89460  0.77930  Biso   1.000  C
  C17      1.0000 0.51420  0.32600  0.99650  Biso   1.000  C
  C18      1.0000 0.48580  0.82600  0.00350  Biso   1.000  C
  C19      1.0000 0.22350  0.34140  0.94320  Biso   1.000  C
  C20      1.0000 0.77650  0.84140  0.05680  Biso   1.000  C
  C21      1.0000 0.02880  0.42010  0.13510  Biso   1.000  C
  C22      1.0000 0.97120  0.92010  0.86490  Biso   1.000  C
  C23      1.0000 0.15800  0.76470  0.20750  Biso   1.000  C
  C24      1.0000 0.84200  0.26470  0.79250  Biso   1.000  C
  H3       1.0000 0.12770  0.76390  0.13160  Biso   1.000  H
  H4       1.0000 0.87230  0.26390  0.86840  Biso   1.000  H
  C25      1.0000 0.06380  0.76840  0.29630  Biso   1.000  C
  C26      1.0000 0.93620  0.26840  0.70370  Biso   1.000  C
  H5       1.0000 0.96860  0.77080  0.28160  Biso   1.000  H
  H6       1.0000 0.03140  0.27080  0.71840  Biso   1.000  H
  C27      1.0000 0.11370  0.76850  0.40810  Biso   1.000  C
  C28      1.0000 0.88630  0.26850  0.59190  Biso   1.000  C
  C29      1.0000 0.25520  0.76930  0.42380  Biso   1.000  C
  C30      1.0000 0.74480  0.26930  0.57620  Biso   1.000  C
  H7       1.0000 0.29080  0.77230  0.49810  Biso   1.000  H
  H8       1.0000 0.70920  0.27230  0.50190  Biso   1.000  H
  C31      1.0000 0.34300  0.76590  0.33500  Biso   1.000  C
  C32      1.0000 0.65700  0.26590  0.66500  Biso   1.000  C
  H9       1.0000 0.43860  0.76630  0.34780  Biso   1.000  H
  H10      1.0000 0.56140  0.26630  0.65220  Biso   1.000  H
  C33      1.0000 0.01500  0.76580  0.50630  Biso   1.000  C
  C34      1.0000 0.98500  0.26580  0.49370  Biso   1.000  C
  H11      1.0000 0.93260  0.81690  0.48700  Biso   1.000  H
  H12      1.0000 0.06740  0.31690  0.51300  Biso   1.000  H
  H13      1.0000 0.05830  0.80640  0.57290  Biso   1.000  H
  H14      1.0000 0.94170  0.30640  0.42710  Biso   1.000  H
  C35      1.0000 0.97290  0.62340  0.53510  Biso   1.000  C
  C36      1.0000 0.02710  0.12340  0.46490  Biso   1.000  C
  H15      1.0000 0.90970  0.59100  0.47640  Biso   1.000  H
  H16      1.0000 0.09030  0.09100  0.52360  Biso   1.000  H
  H17      1.0000 0.05520  0.56760  0.53420  Biso   1.000  H
  H18      1.0000 0.94480  0.06760  0.46580  Biso   1.000  H
  C37      1.0000 0.92030  0.60450  0.85560  Biso   1.000  C
  C38      1.0000 0.07970  0.10450  0.14440  Biso   1.000  C
  H19      1.0000 0.97540  0.60750  0.92130  Biso   1.000  H
  H20      1.0000 0.02460  0.10750  0.07870  Biso   1.000  H
  C39      1.0000 0.98310  0.61610  0.75040  Biso   1.000  C
  C40      1.0000 0.01690  0.11610  0.24960  Biso   1.000  C
  H21      1.0000 0.07910  0.62660  0.74580  Biso   1.000  H
  H22      1.0000 0.92090  0.12660  0.25420  Biso   1.000  H
  C41      1.0000 0.90370  0.61230  0.65050  Biso   1.000  C
  C42      1.0000 0.09630  0.11230  0.34950  Biso   1.000  C
  C43      1.0000 0.76110  0.59850  0.66310  Biso   1.000  C
  C44      1.0000 0.23890  0.09850  0.33690  Biso   1.000  C
  H23      1.0000 0.70390  0.59710  0.59850  Biso   1.000  H
  H24      1.0000 0.29610  0.09710  0.40150  Biso   1.000  H
  C45      1.0000 0.70370  0.58690  0.77130  Biso   1.000  C
  C46      1.0000 0.29630  0.08690  0.22870  Biso   1.000  C
  H25      1.0000 0.60770  0.57740  0.77790  Biso   1.000  H
  H26      1.0000 0.39230  0.07740  0.22210  Biso   1.000  H
  N1       1.0000 0.78140  0.58880  0.86760  Biso   1.000  N
  N2       1.0000 0.21860  0.08880  0.13240  Biso   1.000  N
  N3       1.0000 0.29500  0.76220  0.23080  Biso   1.000  N
  N4       1.0000 0.70500  0.26220  0.76920  Biso   1.000  N
  H27      1.0000 0.35300  0.75790  0.17460  Biso   1.000  H
  H28      1.0000 0.64700  0.25790  0.82540  Biso   1.000  H
  O1       1.0000 0.32740  0.44580  0.48320  Biso   1.000  O
  O2       1.0000 0.67260  0.94580  0.51680  Biso   1.000  O
  H29      1.0000 0.35510  0.47210  0.54590  Biso   1.000  H
  H30      1.0000 0.64490  0.97210  0.45410  Biso   1.000  H
  O3       1.0000 0.54270  0.49940  0.42780  Biso   1.000  O
  O4       1.0000 0.45730  0.99940  0.57220  Biso   1.000  O
  O5       1.0000 0.67410  0.29800  0.27010  Biso   1.000  O
  O6       1.0000 0.32590  0.79800  0.72990  Biso   1.000  O
  O7       1.0000 0.69710  0.49310  0.18280  Biso   1.000  O
  O8       1.0000 0.30290  0.99310  0.81720  Biso   1.000  O
  O9       1.0000 0.49660  0.21700  0.94990  Biso   1.000  O
  O10      1.0000 0.50340  0.71700  0.05010  Biso   1.000  O
  O11      1.0000 0.61330  0.40270  0.96690  Biso   1.000  O
  O12      1.0000 0.38670  0.90270  0.03310  Biso   1.000  O
  O13      1.0000 0.21850  0.43340  0.87630  Biso   1.000  O
  O14      1.0000 0.78150  0.93340  0.12370  Biso   1.000  O
  O15      1.0000 0.20040  0.21980  0.91610  Biso   1.000  O
  O16      1.0000 0.79960  0.71980  0.08390  Biso   1.000  O
  O17      1.0000 0.96320  0.46170  0.22750  Biso   1.000  O
  O18      1.0000 0.03680  0.96170  0.77250  Biso   1.000  O
  H31      1.0000 0.88000  0.47020  0.21310  Biso   1.000  H
  H32      1.0000 0.12000  0.97020  0.78690  Biso   1.000  H
  O19      1.0000 0.97190  0.39410  0.04540  Biso   1.000  O
  O20      1.0000 0.02810  0.89410  0.95460  Biso   1.000  O
  O21      1.0000 0.37430  0.53100  0.69240  Biso   1.000  O
  O22      1.0000 0.62570  0.03100  0.30760  Biso   1.000  O
  O23      1.0000 0.69260  0.73190  0.32860  Biso   1.000  O
  O24      1.0000 0.30740  0.23190  0.67140  Biso   1.000  O
