data_image0
_cell_length_a       7.277
_cell_length_b       15.929
_cell_length_c       8.263
_cell_angle_alpha    90
_cell_angle_beta     106.06
_cell_angle_gamma    90

_symmetry_space_group_name_H-M    "P 1"
_symmetry_int_tables_number       1

loop_
  _symmetry_equiv_pos_as_xyz
  'x, y, z'

loop_
  _atom_site_label
  _atom_site_occupancy
  _atom_site_fract_x
  _atom_site_fract_y
  _atom_site_fract_z
  _atom_site_thermal_displace_type
  _atom_site_B_iso_or_equiv
  _atom_site_type_symbol
  Cu1      1.0000 0.70534  0.07377  0.79413  Biso   1.000  Cu
  Cu2      1.0000 0.20534  0.42623  0.79413  Biso   1.000  Cu
  Cu3      1.0000 0.29466  0.92623  0.20587  Biso   1.000  Cu
  Cu4      1.0000 0.79466  0.57377  0.20587  Biso   1.000  Cu
  C1       1.0000 0.58790  0.99510  0.46560  Biso   1.000  C
  C2       1.0000 0.08790  0.50490  0.46560  Biso   1.000  C
  C3       1.0000 0.41210  0.00490  0.53440  Biso   1.000  C
  C4       1.0000 0.91210  0.49510  0.53440  Biso   1.000  C
  O1       1.0000 0.74610  0.01700  0.55360  Biso   1.000  O
  O2       1.0000 0.24610  0.48300  0.55360  Biso   1.000  O
  O3       1.0000 0.25390  0.98300  0.44640  Biso   1.000  O
  O4       1.0000 0.75390  0.51700  0.44640  Biso   1.000  O
  O5       1.0000 0.55570  0.96520  0.31670  Biso   1.000  O
  O6       1.0000 0.05570  0.53480  0.31670  Biso   1.000  O
  O7       1.0000 0.44430  0.03480  0.68330  Biso   1.000  O
  O8       1.0000 0.94430  0.46520  0.68330  Biso   1.000  O
  C5       1.0000 0.94140  0.95950  0.99750  Biso   1.000  C
  C6       1.0000 0.44140  0.54050  0.99750  Biso   1.000  C
  C7       1.0000 0.05860  0.04050  0.00250  Biso   1.000  C
  C8       1.0000 0.55860  0.45950  0.00250  Biso   1.000  C
  O9       1.0000 0.76980  0.96250  0.91330  Biso   1.000  O
  O10      1.0000 0.26980  0.53750  0.91330  Biso   1.000  O
  O11      1.0000 0.23020  0.03750  0.08670  Biso   1.000  O
  O12      1.0000 0.73020  0.46250  0.08670  Biso   1.000  O
  O13      1.0000 0.02680  0.89820  0.07760  Biso   1.000  O
  O14      1.0000 0.52680  0.60180  0.07760  Biso   1.000  O
  O15      1.0000 0.97320  0.10180  0.92240  Biso   1.000  O
  O16      1.0000 0.47320  0.39820  0.92240  Biso   1.000  O
  O17      1.0000 0.57180  0.12020  0.01400  Biso   1.000  O
  O18      1.0000 0.07180  0.37980  0.01400  Biso   1.000  O
  O19      1.0000 0.42820  0.87980  0.98600  Biso   1.000  O
  O20      1.0000 0.92820  0.62020  0.98600  Biso   1.000  O
  H1       1.0000 0.65570  0.13880  0.10160  Biso   1.000  H
  H2       1.0000 0.15570  0.36120  0.10160  Biso   1.000  H
  H3       1.0000 0.34430  0.86120  0.89840  Biso   1.000  H
  H4       1.0000 0.84430  0.63880  0.89840  Biso   1.000  H
  H5       1.0000 0.50050  0.10020  0.06000  Biso   1.000  H
  H6       1.0000 0.00050  0.39980  0.06000  Biso   1.000  H
  H7       1.0000 0.49950  0.89980  0.94000  Biso   1.000  H
  H8       1.0000 0.99950  0.60020  0.94000  Biso   1.000  H
  N1       1.0000 0.36470  0.30610  0.27340  Biso   1.000  N
  N2       1.0000 0.86470  0.19390  0.27340  Biso   1.000  N
  N3       1.0000 0.63530  0.69390  0.72660  Biso   1.000  N
  N4       1.0000 0.13530  0.80610  0.72660  Biso   1.000  N
  C9       1.0000 0.35970  0.22140  0.28740  Biso   1.000  C
  C10      1.0000 0.85970  0.27860  0.28740  Biso   1.000  C
  C11      1.0000 0.64030  0.77860  0.71260  Biso   1.000  C
  C12      1.0000 0.14030  0.72140  0.71260  Biso   1.000  C
  H9       1.0000 0.28290  0.19250  0.19560  Biso   1.000  H
  H10      1.0000 0.78290  0.30750  0.19560  Biso   1.000  H
  H11      1.0000 0.71710  0.80750  0.80440  Biso   1.000  H
  H12      1.0000 0.21710  0.69250  0.80440  Biso   1.000  H
  N5       1.0000 0.45270  0.17540  0.41820  Biso   1.000  N
  N6       1.0000 0.95270  0.32460  0.41820  Biso   1.000  N
  N7       1.0000 0.54730  0.82460  0.58180  Biso   1.000  N
  N8       1.0000 0.04730  0.67540  0.58180  Biso   1.000  N
  C13      1.0000 0.56070  0.22010  0.54520  Biso   1.000  C
  C14      1.0000 0.06070  0.27990  0.54520  Biso   1.000  C
  C15      1.0000 0.43930  0.77990  0.45480  Biso   1.000  C
  C16      1.0000 0.93930  0.72010  0.45480  Biso   1.000  C
  C17      1.0000 0.57800  0.30740  0.54030  Biso   1.000  C
  C18      1.0000 0.07800  0.19260  0.54030  Biso   1.000  C
  C19      1.0000 0.42200  0.69260  0.45970  Biso   1.000  C
  C20      1.0000 0.92200  0.80740  0.45970  Biso   1.000  C
  C21      1.0000 0.47510  0.34960  0.40030  Biso   1.000  C
  C22      1.0000 0.97510  0.15040  0.40030  Biso   1.000  C
  C23      1.0000 0.52490  0.65040  0.59970  Biso   1.000  C
  C24      1.0000 0.02490  0.84960  0.59970  Biso   1.000  C
  H13      1.0000 0.48250  0.40770  0.39410  Biso   1.000  H
  H14      1.0000 0.98250  0.09230  0.39410  Biso   1.000  H
  H15      1.0000 0.51750  0.59230  0.60590  Biso   1.000  H
  H16      1.0000 0.01750  0.90770  0.60590  Biso   1.000  H
  N9       1.0000 0.70600  0.32890  0.69220  Biso   1.000  N
  N10      1.0000 0.20600  0.17110  0.69220  Biso   1.000  N
  N11      1.0000 0.29400  0.67110  0.30780  Biso   1.000  N
  N12      1.0000 0.79400  0.82890  0.30780  Biso   1.000  N
  H17      1.0000 0.74550  0.37870  0.72450  Biso   1.000  H
  H18      1.0000 0.24550  0.12130  0.72450  Biso   1.000  H
  H19      1.0000 0.25450  0.62130  0.27550  Biso   1.000  H
  H20      1.0000 0.75450  0.87870  0.27550  Biso   1.000  H
  C25      1.0000 0.75650  0.25840  0.77900  Biso   1.000  C
  C26      1.0000 0.25650  0.24160  0.77900  Biso   1.000  C
  C27      1.0000 0.24350  0.74160  0.22100  Biso   1.000  C
  C28      1.0000 0.74350  0.75840  0.22100  Biso   1.000  C
  H21      1.0000 0.84220  0.25690  0.88590  Biso   1.000  H
  H22      1.0000 0.34220  0.24310  0.88590  Biso   1.000  H
  H23      1.0000 0.15780  0.74310  0.11410  Biso   1.000  H
  H24      1.0000 0.65780  0.75690  0.11410  Biso   1.000  H
  N13      1.0000 0.67280  0.19060  0.69850  Biso   1.000  N
  N14      1.0000 0.17280  0.30940  0.69850  Biso   1.000  N
  N15      1.0000 0.32720  0.80940  0.30150  Biso   1.000  N
  N16      1.0000 0.82720  0.69060  0.30150  Biso   1.000  N
