data_image0
_cell_length_a       9.1432
_cell_length_b       17.8251
_cell_length_c       10.1994
_cell_angle_alpha    90
_cell_angle_beta     99.226
_cell_angle_gamma    90

_symmetry_space_group_name_H-M    "P 1"
_symmetry_int_tables_number       1

loop_
  _symmetry_equiv_pos_as_xyz
  'x, y, z'

loop_
  _atom_site_label
  _atom_site_occupancy
  _atom_site_fract_x
  _atom_site_fract_y
  _atom_site_fract_z
  _atom_site_thermal_displace_type
  _atom_site_B_iso_or_equiv
  _atom_site_type_symbol
  Cu1      1.0000 0.13633  0.08494  0.73472  Biso   1.000  Cu
  Cu2      1.0000 0.86367  0.58494  0.76528  Biso   1.000  Cu
  Cu3      1.0000 0.86367  0.91506  0.26528  Biso   1.000  Cu
  Cu4      1.0000 0.13633  0.41506  0.23472  Biso   1.000  Cu
  O1       1.0000 0.27952  0.16328  0.69732  Biso   1.000  O
  O2       1.0000 0.72048  0.66328  0.80268  Biso   1.000  O
  O3       1.0000 0.72048  0.83672  0.30268  Biso   1.000  O
  O4       1.0000 0.27952  0.33672  0.19732  Biso   1.000  O
  O5       1.0000 0.32381  0.05628  0.60501  Biso   1.000  O
  O6       1.0000 0.67619  0.55628  0.89499  Biso   1.000  O
  O7       1.0000 0.67619  0.94372  0.39499  Biso   1.000  O
  O8       1.0000 0.32381  0.44372  0.10501  Biso   1.000  O
  O9       1.0000 0.90360  0.17186  0.75931  Biso   1.000  O
  O10      1.0000 0.09640  0.67186  0.74069  Biso   1.000  O
  O11      1.0000 0.09640  0.82814  0.24069  Biso   1.000  O
  O12      1.0000 0.90360  0.32814  0.25931  Biso   1.000  O
  O13      1.0000 0.98600  0.11819  0.59062  Biso   1.000  O
  O14      1.0000 0.01400  0.61819  0.90938  Biso   1.000  O
  O15      1.0000 0.01400  0.88181  0.40938  Biso   1.000  O
  O16      1.0000 0.98600  0.38181  0.09062  Biso   1.000  O
  N1       1.0000 0.25029  0.05891  0.91326  Biso   1.000  N
  N2       1.0000 0.74971  0.55891  0.58674  Biso   1.000  N
  N3       1.0000 0.74971  0.94109  0.08674  Biso   1.000  N
  N4       1.0000 0.25029  0.44109  0.41326  Biso   1.000  N
  N5       1.0000 0.03758  0.98774  0.76465  Biso   1.000  N
  N6       1.0000 0.96242  0.48774  0.73535  Biso   1.000  N
  N7       1.0000 0.96242  0.01226  0.23535  Biso   1.000  N
  N8       1.0000 0.03758  0.51226  0.26465  Biso   1.000  N
  C1       1.0000 0.36080  0.09931  0.98090  Biso   1.000  C
  C2       1.0000 0.63920  0.59931  0.51910  Biso   1.000  C
  C3       1.0000 0.63920  0.90069  0.01910  Biso   1.000  C
  C4       1.0000 0.36080  0.40069  0.48090  Biso   1.000  C
  H1       1.0000 0.38800  0.14400  0.94440  Biso   1.000  H
  H2       1.0000 0.61200  0.64400  0.55560  Biso   1.000  H
  H3       1.0000 0.61200  0.85600  0.05560  Biso   1.000  H
  H4       1.0000 0.38800  0.35600  0.44440  Biso   1.000  H
  C5       1.0000 0.43580  0.07680  0.10280  Biso   1.000  C
  C6       1.0000 0.56420  0.57680  0.39720  Biso   1.000  C
  C7       1.0000 0.56420  0.92320  0.89720  Biso   1.000  C
  C8       1.0000 0.43580  0.42320  0.60280  Biso   1.000  C
  H5       1.0000 0.51280  0.10560  0.14760  Biso   1.000  H
  H6       1.0000 0.48720  0.60560  0.35240  Biso   1.000  H
  H7       1.0000 0.48720  0.89440  0.85240  Biso   1.000  H
  H8       1.0000 0.51280  0.39440  0.64760  Biso   1.000  H
  C9       1.0000 0.39460  0.01108  0.15670  Biso   1.000  C
  C10      1.0000 0.60540  0.51108  0.34330  Biso   1.000  C
  C11      1.0000 0.60540  0.98892  0.84330  Biso   1.000  C
  C12      1.0000 0.39460  0.48892  0.65670  Biso   1.000  C
  H9       1.0000 0.44460  0.99460  0.23830  Biso   1.000  H
  H10      1.0000 0.55540  0.49460  0.26170  Biso   1.000  H
  H11      1.0000 0.55540  0.00540  0.76170  Biso   1.000  H
  H12      1.0000 0.44460  0.50540  0.73830  Biso   1.000  H
  C13      1.0000 0.27880  0.96940  0.08960  Biso   1.000  C
  C14      1.0000 0.72120  0.46940  0.41040  Biso   1.000  C
  C15      1.0000 0.72120  0.03060  0.91040  Biso   1.000  C
  C16      1.0000 0.27880  0.53060  0.58960  Biso   1.000  C
  H13      1.0000 0.24830  0.92540  0.12610  Biso   1.000  H
  H14      1.0000 0.75170  0.42540  0.37390  Biso   1.000  H
  H15      1.0000 0.75170  0.07460  0.87390  Biso   1.000  H
  H16      1.0000 0.24830  0.57460  0.62610  Biso   1.000  H
  C17      1.0000 0.20900  0.99447  0.96660  Biso   1.000  C
  C18      1.0000 0.79100  0.49447  0.53340  Biso   1.000  C
  C19      1.0000 0.79100  0.00553  0.03340  Biso   1.000  C
  C20      1.0000 0.20900  0.50553  0.46660  Biso   1.000  C
  C21      1.0000 0.08780  0.95353  0.88200  Biso   1.000  C
  C22      1.0000 0.91220  0.45353  0.61800  Biso   1.000  C
  C23      1.0000 0.91220  0.04647  0.11800  Biso   1.000  C
  C24      1.0000 0.08780  0.54647  0.38200  Biso   1.000  C
  C25      1.0000 0.02910  0.88620  0.91570  Biso   1.000  C
  C26      1.0000 0.97090  0.38620  0.58430  Biso   1.000  C
  C27      1.0000 0.97090  0.11380  0.08430  Biso   1.000  C
  C28      1.0000 0.02910  0.61380  0.41570  Biso   1.000  C
  H17      1.0000 0.06150  0.86460  0.99820  Biso   1.000  H
  H18      1.0000 0.93850  0.36460  0.50180  Biso   1.000  H
  H19      1.0000 0.93850  0.13540  0.00180  Biso   1.000  H
  H20      1.0000 0.06150  0.63540  0.49820  Biso   1.000  H
  C29      1.0000 0.92210  0.85142  0.82550  Biso   1.000  C
  C30      1.0000 0.07790  0.35142  0.67450  Biso   1.000  C
  C31      1.0000 0.07790  0.14858  0.17450  Biso   1.000  C
  C32      1.0000 0.92210  0.64858  0.32550  Biso   1.000  C
  H21      1.0000 0.88220  0.80570  0.84590  Biso   1.000  H
  H22      1.0000 0.11780  0.30570  0.65410  Biso   1.000  H
  H23      1.0000 0.11780  0.19430  0.15410  Biso   1.000  H
  H24      1.0000 0.88220  0.69430  0.34590  Biso   1.000  H
  C33      1.0000 0.87470  0.88545  0.70450  Biso   1.000  C
  C34      1.0000 0.12530  0.38545  0.79550  Biso   1.000  C
  C35      1.0000 0.12530  0.11455  0.29550  Biso   1.000  C
  C36      1.0000 0.87470  0.61455  0.20450  Biso   1.000  C
  H25      1.0000 0.80410  0.86240  0.64160  Biso   1.000  H
  H26      1.0000 0.19590  0.36240  0.85840  Biso   1.000  H
  H27      1.0000 0.19590  0.13760  0.35840  Biso   1.000  H
  H28      1.0000 0.80410  0.63760  0.14160  Biso   1.000  H
  C37      1.0000 0.93320  0.95380  0.67810  Biso   1.000  C
  C38      1.0000 0.06680  0.45380  0.82190  Biso   1.000  C
  C39      1.0000 0.06680  0.04620  0.32190  Biso   1.000  C
  C40      1.0000 0.93320  0.54620  0.17810  Biso   1.000  C
  H29      1.0000 0.89900  0.97720  0.59740  Biso   1.000  H
  H30      1.0000 0.10100  0.47720  0.90260  Biso   1.000  H
  H31      1.0000 0.10100  0.02280  0.40260  Biso   1.000  H
  H32      1.0000 0.89900  0.52280  0.09740  Biso   1.000  H
  C41      1.0000 0.35220  0.12343  0.62590  Biso   1.000  C
  C42      1.0000 0.64780  0.62343  0.87410  Biso   1.000  C
  C43      1.0000 0.64780  0.87657  0.37410  Biso   1.000  C
  C44      1.0000 0.35220  0.37657  0.12590  Biso   1.000  C
  C45      1.0000 0.47460  0.16179  0.56470  Biso   1.000  C
  C46      1.0000 0.52540  0.66179  0.93530  Biso   1.000  C
  C47      1.0000 0.52540  0.83821  0.43530  Biso   1.000  C
  C48      1.0000 0.47460  0.33821  0.06470  Biso   1.000  C
  H33      1.0000 0.42570  0.19140  0.48930  Biso   1.000  H
  H34      1.0000 0.57430  0.69140  0.01070  Biso   1.000  H
  H35      1.0000 0.57430  0.80860  0.51070  Biso   1.000  H
  H36      1.0000 0.42570  0.30860  0.98930  Biso   1.000  H
  C49      1.0000 0.56430  0.21640  0.66060  Biso   1.000  C
  C50      1.0000 0.43570  0.71640  0.83940  Biso   1.000  C
  C51      1.0000 0.43570  0.78360  0.33940  Biso   1.000  C
  C52      1.0000 0.56430  0.28360  0.16060  Biso   1.000  C
  H37      1.0000 0.61080  0.18940  0.73890  Biso   1.000  H
  H38      1.0000 0.38920  0.68940  0.76110  Biso   1.000  H
  H39      1.0000 0.38920  0.81060  0.26110  Biso   1.000  H
  H40      1.0000 0.61080  0.31060  0.23890  Biso   1.000  H
  H41      1.0000 0.49850  0.25380  0.68850  Biso   1.000  H
  H42      1.0000 0.50150  0.75380  0.81150  Biso   1.000  H
  H43      1.0000 0.50150  0.74620  0.31150  Biso   1.000  H
  H44      1.0000 0.49850  0.24620  0.18850  Biso   1.000  H
  C53      1.0000 0.68380  0.25556  0.59580  Biso   1.000  C
  C54      1.0000 0.31620  0.75556  0.90420  Biso   1.000  C
  C55      1.0000 0.31620  0.74444  0.40420  Biso   1.000  C
  C56      1.0000 0.68380  0.24444  0.09580  Biso   1.000  C
  H45      1.0000 0.63600  0.28870  0.52650  Biso   1.000  H
  H46      1.0000 0.36400  0.78870  0.97350  Biso   1.000  H
  H47      1.0000 0.36400  0.71130  0.47350  Biso   1.000  H
  H48      1.0000 0.63600  0.21130  0.02650  Biso   1.000  H
  H49      1.0000 0.74430  0.28620  0.66200  Biso   1.000  H
  H50      1.0000 0.25570  0.78620  0.83800  Biso   1.000  H
  H51      1.0000 0.25570  0.71380  0.33800  Biso   1.000  H
  H52      1.0000 0.74430  0.21380  0.16200  Biso   1.000  H
  C57      1.0000 0.78400  0.20169  0.53580  Biso   1.000  C
  C58      1.0000 0.21600  0.70169  0.96420  Biso   1.000  C
  C59      1.0000 0.21600  0.79831  0.46420  Biso   1.000  C
  C60      1.0000 0.78400  0.29831  0.03580  Biso   1.000  C
  H53      1.0000 0.84040  0.23180  0.48080  Biso   1.000  H
  H54      1.0000 0.15960  0.73180  0.01920  Biso   1.000  H
  H55      1.0000 0.15960  0.76820  0.51920  Biso   1.000  H
  H56      1.0000 0.84040  0.26820  0.98080  Biso   1.000  H
  C61      1.0000 0.69120  0.14564  0.44280  Biso   1.000  C
  C62      1.0000 0.30880  0.64564  0.05720  Biso   1.000  C
  C63      1.0000 0.30880  0.85436  0.55720  Biso   1.000  C
  C64      1.0000 0.69120  0.35436  0.94280  Biso   1.000  C
  H57      1.0000 0.64180  0.17210  0.36500  Biso   1.000  H
  H58      1.0000 0.35820  0.67210  0.13500  Biso   1.000  H
  H59      1.0000 0.35820  0.82790  0.63500  Biso   1.000  H
  H60      1.0000 0.64180  0.32790  0.86500  Biso   1.000  H
  H61      1.0000 0.75650  0.10850  0.41340  Biso   1.000  H
  H62      1.0000 0.24350  0.60850  0.08660  Biso   1.000  H
  H63      1.0000 0.24350  0.89150  0.58660  Biso   1.000  H
  H64      1.0000 0.75650  0.39150  0.91340  Biso   1.000  H
  C65      1.0000 0.57570  0.10600  0.50990  Biso   1.000  C
  C66      1.0000 0.42430  0.60600  0.99010  Biso   1.000  C
  C67      1.0000 0.42430  0.89400  0.49010  Biso   1.000  C
  C68      1.0000 0.57570  0.39400  0.00990  Biso   1.000  C
  H65      1.0000 0.62520  0.07500  0.58180  Biso   1.000  H
  H66      1.0000 0.37480  0.57500  0.91820  Biso   1.000  H
  H67      1.0000 0.37480  0.92500  0.41820  Biso   1.000  H
  H68      1.0000 0.62520  0.42500  0.08180  Biso   1.000  H
  H69      1.0000 0.51640  0.07340  0.44610  Biso   1.000  H
  H70      1.0000 0.48360  0.57340  0.05390  Biso   1.000  H
  H71      1.0000 0.48360  0.92660  0.55390  Biso   1.000  H
  H72      1.0000 0.51640  0.42660  0.94610  Biso   1.000  H
  C69      1.0000 0.89700  0.16166  0.63910  Biso   1.000  C
  C70      1.0000 0.10300  0.66166  0.86090  Biso   1.000  C
  C71      1.0000 0.10300  0.83834  0.36090  Biso   1.000  C
  C72      1.0000 0.89700  0.33834  0.13910  Biso   1.000  C
  O17      1.0000 0.85710  0.74520  0.55120  Biso   1.000  O
  O18      1.0000 0.14290  0.24520  0.94880  Biso   1.000  O
  O19      1.0000 0.14290  0.25480  0.44880  Biso   1.000  O
  O20      1.0000 0.85710  0.75480  0.05120  Biso   1.000  O
