data_image0
_cell_length_a       8.02
_cell_length_b       9.537
_cell_length_c       20
_cell_angle_alpha    80.07
_cell_angle_beta     81.15
_cell_angle_gamma    79.44

_symmetry_space_group_name_H-M    "P 1"
_symmetry_int_tables_number       1

loop_
  _symmetry_equiv_pos_as_xyz
  'x, y, z'

loop_
  _atom_site_label
  _atom_site_occupancy
  _atom_site_fract_x
  _atom_site_fract_y
  _atom_site_fract_z
  _atom_site_thermal_displace_type
  _atom_site_B_iso_or_equiv
  _atom_site_type_symbol
  Cu1      1.0000 0.88014  0.72823  0.25584  Biso   1.000  Cu
  Cu2      1.0000 0.11986  0.27177  0.74416  Biso   1.000  Cu
  Cu3      1.0000 0.44107  0.75254  0.30226  Biso   1.000  Cu
  Cu4      1.0000 0.55893  0.24746  0.69774  Biso   1.000  Cu
  Sr1      1.0000 0.44503  0.13876  0.40542  Biso   1.000  Sr
  Sr2      1.0000 0.55497  0.86124  0.59458  Biso   1.000  Sr
  C1       1.0000 0.82320  0.58820  0.14990  Biso   1.000  C
  C2       1.0000 0.17680  0.41180  0.85010  Biso   1.000  C
  C3       1.0000 0.84820  0.45890  0.12060  Biso   1.000  C
  C4       1.0000 0.15180  0.54110  0.87940  Biso   1.000  C
  H1       1.0000 0.90160  0.37350  0.14370  Biso   1.000  H
  H2       1.0000 0.09840  0.62650  0.85630  Biso   1.000  H
  C5       1.0000 0.79510  0.45860  0.05910  Biso   1.000  C
  C6       1.0000 0.20490  0.54140  0.94090  Biso   1.000  C
  H3       1.0000 0.81280  0.37280  0.04100  Biso   1.000  H
  H4       1.0000 0.18720  0.62720  0.95900  Biso   1.000  H
  C7       1.0000 0.71600  0.58270  0.02330  Biso   1.000  C
  C8       1.0000 0.28400  0.41730  0.97670  Biso   1.000  C
  H5       1.0000 0.68180  0.58170  0.98100  Biso   1.000  H
  H6       1.0000 0.31820  0.41830  0.01900  Biso   1.000  H
  C9       1.0000 0.68850  0.70730  0.05090  Biso   1.000  C
  C10      1.0000 0.31150  0.29270  0.94910  Biso   1.000  C
  H7       1.0000 0.63320  0.79080  0.02690  Biso   1.000  H
  H8       1.0000 0.36680  0.20920  0.97310  Biso   1.000  H
  C11      1.0000 0.74020  0.71510  0.11420  Biso   1.000  C
  C12      1.0000 0.25980  0.28490  0.88580  Biso   1.000  C
  C13      1.0000 0.70210  0.85520  0.13920  Biso   1.000  C
  C14      1.0000 0.29790  0.14480  0.86080  Biso   1.000  C
  C15      1.0000 0.70140  0.01040  0.22300  Biso   1.000  C
  C16      1.0000 0.29860  0.98960  0.77700  Biso   1.000  C
  H9       1.0000 0.57840  0.04000  0.22960  Biso   1.000  H
  H10      1.0000 0.42160  0.96000  0.77040  Biso   1.000  H
  H11      1.0000 0.75040  0.08290  0.18950  Biso   1.000  H
  H12      1.0000 0.24960  0.91710  0.81050  Biso   1.000  H
  C17      1.0000 0.77170  0.99970  0.29030  Biso   1.000  C
  C18      1.0000 0.22830  0.00030  0.70970  Biso   1.000  C
  C19      1.0000 0.96300  0.84250  0.36490  Biso   1.000  C
  C20      1.0000 0.03700  0.15750  0.63510  Biso   1.000  C
  H13      1.0000 0.88140  0.85140  0.40570  Biso   1.000  H
  H14      1.0000 0.11860  0.14860  0.59430  Biso   1.000  H
  H15      1.0000 0.04450  0.90710  0.36300  Biso   1.000  H
  H16      1.0000 0.95550  0.09290  0.63700  Biso   1.000  H
  C21      1.0000 0.05490  0.68860  0.36700  Biso   1.000  C
  C22      1.0000 0.94510  0.31140  0.63300  Biso   1.000  C
  C23      1.0000 0.61370  0.98520  0.09470  Biso   1.000  C
  C24      1.0000 0.38630  0.01480  0.90530  Biso   1.000  C
  H17      1.0000 0.60470  0.06990  0.11580  Biso   1.000  H
  H18      1.0000 0.39530  0.93010  0.88420  Biso   1.000  H
  H19      1.0000 0.50140  0.96960  0.09010  Biso   1.000  H
  H20      1.0000 0.49860  0.03040  0.90990  Biso   1.000  H
  H21      1.0000 0.67930  0.99810  0.05040  Biso   1.000  H
  H22      1.0000 0.32070  0.00190  0.94960  Biso   1.000  H
  C25      1.0000 0.25080  0.88740  0.19400  Biso   1.000  C
  C26      1.0000 0.74920  0.11260  0.80600  Biso   1.000  C
  C27      1.0000 0.16710  0.01470  0.15910  Biso   1.000  C
  C28      1.0000 0.83290  0.98530  0.84090  Biso   1.000  C
  H23      1.0000 0.15550  0.10010  0.17710  Biso   1.000  H
  H24      1.0000 0.84450  0.89990  0.82290  Biso   1.000  H
  C29      1.0000 0.10200  0.01770  0.09950  Biso   1.000  C
  C30      1.0000 0.89800  0.98230  0.90050  Biso   1.000  C
  H25      1.0000 0.04810  0.10410  0.07730  Biso   1.000  H
  H26      1.0000 0.95190  0.89590  0.92270  Biso   1.000  H
  C31      1.0000 0.11630  0.89290  0.07260  Biso   1.000  C
  C32      1.0000 0.88370  0.10710  0.92740  Biso   1.000  C
  H27      1.0000 0.07330  0.89430  0.03180  Biso   1.000  H
  H28      1.0000 0.92670  0.10570  0.96820  Biso   1.000  H
  C33      1.0000 0.19440  0.76590  0.10590  Biso   1.000  C
  C34      1.0000 0.80560  0.23410  0.89410  Biso   1.000  C
  H29      1.0000 0.20140  0.68180  0.08730  Biso   1.000  H
  H30      1.0000 0.79860  0.31820  0.91270  Biso   1.000  H
  C35      1.0000 0.26450  0.75690  0.16740  Biso   1.000  C
  C36      1.0000 0.73550  0.24310  0.83260  Biso   1.000  C
  C37      1.0000 0.34740  0.61600  0.19900  Biso   1.000  C
  C38      1.0000 0.65260  0.38400  0.80100  Biso   1.000  C
  C39      1.0000 0.49760  0.46290  0.28620  Biso   1.000  C
  C40      1.0000 0.50240  0.53710  0.71380  Biso   1.000  C
  H31      1.0000 0.59430  0.42130  0.25640  Biso   1.000  H
  H32      1.0000 0.40570  0.57870  0.74360  Biso   1.000  H
  H33      1.0000 0.41320  0.39890  0.29480  Biso   1.000  H
  H34      1.0000 0.58680  0.60110  0.70520  Biso   1.000  H
  C41      1.0000 0.55640  0.47380  0.35340  Biso   1.000  C
  C42      1.0000 0.44360  0.52620  0.64660  Biso   1.000  C
  C43      1.0000 0.59100  0.64680  0.42300  Biso   1.000  C
  C44      1.0000 0.40900  0.35320  0.57700  Biso   1.000  C
  H35      1.0000 0.71120  0.62290  0.42910  Biso   1.000  H
  H36      1.0000 0.28880  0.37710  0.57090  Biso   1.000  H
  H37      1.0000 0.52630  0.59470  0.46120  Biso   1.000  H
  H38      1.0000 0.47370  0.40530  0.53880  Biso   1.000  H
  C45      1.0000 0.53220  0.80700  0.42050  Biso   1.000  C
  C46      1.0000 0.46780  0.19300  0.57950  Biso   1.000  C
  C47      1.0000 0.33460  0.48390  0.16870  Biso   1.000  C
  C48      1.0000 0.66540  0.51610  0.83130  Biso   1.000  C
  H39      1.0000 0.37210  0.39860  0.19930  Biso   1.000  H
  H40      1.0000 0.62790  0.60140  0.80070  Biso   1.000  H
  H41      1.0000 0.40550  0.48370  0.12540  Biso   1.000  H
  H42      1.0000 0.59450  0.51630  0.87460  Biso   1.000  H
  H43      1.0000 0.21800  0.48560  0.16220  Biso   1.000  H
  H44      1.0000 0.78200  0.51440  0.83780  Biso   1.000  H
  N1       1.0000 0.74180  0.87090  0.19740  Biso   1.000  N
  N2       1.0000 0.25820  0.12910  0.80260  Biso   1.000  N
  N3       1.0000 0.87580  0.87960  0.30520  Biso   1.000  N
  N4       1.0000 0.12420  0.12040  0.69480  Biso   1.000  N
  N5       1.0000 0.42350  0.60340  0.25176  Biso   1.000  N
  N6       1.0000 0.57650  0.39660  0.74824  Biso   1.000  N
  N7       1.0000 0.56450  0.60750  0.35963  Biso   1.000  N
  N8       1.0000 0.43550  0.39250  0.64037  Biso   1.000  N
  O1       1.0000 0.87830  0.57630  0.20886  Biso   1.000  O
  O2       1.0000 0.12170  0.42370  0.79114  Biso   1.000  O
  O3       1.0000 0.72480  0.10290  0.32449  Biso   1.000  O
  O4       1.0000 0.27520  0.89710  0.67551  Biso   1.000  O
  O5       1.0000 0.02240  0.61810  0.32380  Biso   1.000  O
  O6       1.0000 0.97760  0.38190  0.67620  Biso   1.000  O
  O7       1.0000 0.15150  0.64070  0.41053  Biso   1.000  O
  O8       1.0000 0.84850  0.35930  0.58947  Biso   1.000  O
  O9       1.0000 0.31210  0.90020  0.24964  Biso   1.000  O
  O10      1.0000 0.68790  0.09980  0.75036  Biso   1.000  O
  O11      1.0000 0.58820  0.36190  0.39516  Biso   1.000  O
  O12      1.0000 0.41180  0.63810  0.60484  Biso   1.000  O
  O13      1.0000 0.46830  0.87600  0.36760  Biso   1.000  O
  O14      1.0000 0.53170  0.12400  0.63240  Biso   1.000  O
  O15      1.0000 0.54850  0.86770  0.46830  Biso   1.000  O
  O16      1.0000 0.45150  0.13230  0.53170  Biso   1.000  O
  O17      1.0000 0.17310  0.04180  0.45649  Biso   1.000  O
  O18      1.0000 0.82690  0.95820  0.54351  Biso   1.000  O
  H45      1.0000 0.09350  0.11200  0.46330  Biso   1.000  H
  H46      1.0000 0.90650  0.88800  0.53670  Biso   1.000  H
  H47      1.0000 0.18910  0.98830  0.49430  Biso   1.000  H
  H48      1.0000 0.81090  0.01170  0.50570  Biso   1.000  H
  O19      1.0000 0.19810  0.34430  0.41730  Biso   1.000  O
  O20      1.0000 0.80190  0.65570  0.58270  Biso   1.000  O
  H49      1.0000 0.21610  0.41060  0.43740  Biso   1.000  H
  H50      1.0000 0.78390  0.58940  0.56260  Biso   1.000  H
  H51      1.0000 0.13760  0.38120  0.38540  Biso   1.000  H
  H52      1.0000 0.86240  0.61880  0.61460  Biso   1.000  H
  O21      1.0000 0.29630  0.16100  0.29730  Biso   1.000  O
  O22      1.0000 0.70370  0.83900  0.70270  Biso   1.000  O
  H53      1.0000 0.30550  0.06730  0.29400  Biso   1.000  H
  H54      1.0000 0.69450  0.93270  0.70600  Biso   1.000  H
  H55      1.0000 0.27030  0.24030  0.27780  Biso   1.000  H
  H56      1.0000 0.72970  0.75970  0.72220  Biso   1.000  H
  O23      1.0000 0.14390  0.76130  0.52429  Biso   1.000  O
  O24      1.0000 0.85610  0.23870  0.47571  Biso   1.000  O
  H57      1.0000 0.18620  0.70150  0.49680  Biso   1.000  H
  H58      1.0000 0.81380  0.29850  0.50320  Biso   1.000  H
  H59      1.0000 0.19800  0.74270  0.55890  Biso   1.000  H
  H60      1.0000 0.80200  0.25730  0.44110  Biso   1.000  H
  O25      1.0000 0.96940  0.29850  0.29280  Biso   1.000  O
  O26      1.0000 0.03060  0.70150  0.70720  Biso   1.000  O
  H61      1.0000 0.92600  0.22150  0.30020  Biso   1.000  H
  H62      1.0000 0.07400  0.77850  0.69980  Biso   1.000  H
  H63      1.0000 0.99620  0.32140  0.25000  Biso   1.000  H
  H64      1.0000 0.00380  0.67860  0.75000  Biso   1.000  H
