data_image0
_cell_length_a       15.4753
_cell_length_b       4.9036
_cell_length_c       12.9752
_cell_angle_alpha    90
_cell_angle_beta     102.423
_cell_angle_gamma    90

_symmetry_space_group_name_H-M    "P 1"
_symmetry_int_tables_number       1

loop_
  _symmetry_equiv_pos_as_xyz
  'x, y, z'

loop_
  _atom_site_label
  _atom_site_occupancy
  _atom_site_fract_x
  _atom_site_fract_y
  _atom_site_fract_z
  _atom_site_thermal_displace_type
  _atom_site_B_iso_or_equiv
  _atom_site_type_symbol
  Cu1      1.0000 0.25926  0.17010  0.14846  Biso   1.000  Cu
  Cu2      1.0000 0.74074  0.17010  0.35154  Biso   1.000  Cu
  Cu3      1.0000 0.75926  0.67010  0.14846  Biso   1.000  Cu
  Cu4      1.0000 0.24074  0.67010  0.35154  Biso   1.000  Cu
  Cu5      1.0000 0.74074  0.82990  0.85154  Biso   1.000  Cu
  Cu6      1.0000 0.25926  0.82990  0.64846  Biso   1.000  Cu
  Cu7      1.0000 0.24074  0.32990  0.85154  Biso   1.000  Cu
  Cu8      1.0000 0.75926  0.32990  0.64846  Biso   1.000  Cu
  C1       1.0000 0.14920  0.70770  0.14310  Biso   1.000  C
  C2       1.0000 0.85080  0.70770  0.35690  Biso   1.000  C
  C3       1.0000 0.64920  0.20770  0.14310  Biso   1.000  C
  C4       1.0000 0.35080  0.20770  0.35690  Biso   1.000  C
  C5       1.0000 0.85080  0.29230  0.85690  Biso   1.000  C
  C6       1.0000 0.14920  0.29230  0.64310  Biso   1.000  C
  C7       1.0000 0.35080  0.79230  0.85690  Biso   1.000  C
  C8       1.0000 0.64920  0.79230  0.64310  Biso   1.000  C
  C9       1.0000 0.13570  0.81170  0.03450  Biso   1.000  C
  C10      1.0000 0.86430  0.81170  0.46550  Biso   1.000  C
  C11      1.0000 0.63570  0.31170  0.03450  Biso   1.000  C
  C12      1.0000 0.36430  0.31170  0.46550  Biso   1.000  C
  C13      1.0000 0.86430  0.18830  0.96550  Biso   1.000  C
  C14      1.0000 0.13570  0.18830  0.53450  Biso   1.000  C
  C15      1.0000 0.36430  0.68830  0.96550  Biso   1.000  C
  C16      1.0000 0.63570  0.68830  0.53450  Biso   1.000  C
  C17      1.0000 0.08310  0.72750  0.93890  Biso   1.000  C
  C18      1.0000 0.91690  0.72750  0.56110  Biso   1.000  C
  C19      1.0000 0.58310  0.22750  0.93890  Biso   1.000  C
  C20      1.0000 0.41690  0.22750  0.56110  Biso   1.000  C
  C21      1.0000 0.91690  0.27250  0.06110  Biso   1.000  C
  C22      1.0000 0.08310  0.27250  0.43890  Biso   1.000  C
  C23      1.0000 0.41690  0.77250  0.06110  Biso   1.000  C
  C24      1.0000 0.58310  0.77250  0.43890  Biso   1.000  C
  H1       1.0000 0.04070  0.59030  0.92680  Biso   1.000  H
  H2       1.0000 0.95930  0.59030  0.57320  Biso   1.000  H
  H3       1.0000 0.54070  0.09030  0.92680  Biso   1.000  H
  H4       1.0000 0.45930  0.09030  0.57320  Biso   1.000  H
  H5       1.0000 0.95930  0.40970  0.07320  Biso   1.000  H
  H6       1.0000 0.04070  0.40970  0.42680  Biso   1.000  H
  H7       1.0000 0.45930  0.90970  0.07320  Biso   1.000  H
  H8       1.0000 0.54070  0.90970  0.42680  Biso   1.000  H
  C25      1.0000 0.10930  0.89690  0.86640  Biso   1.000  C
  C26      1.0000 0.89070  0.89690  0.63360  Biso   1.000  C
  C27      1.0000 0.60930  0.39690  0.86640  Biso   1.000  C
  C28      1.0000 0.39070  0.39690  0.63360  Biso   1.000  C
  C29      1.0000 0.89070  0.10310  0.13360  Biso   1.000  C
  C30      1.0000 0.10930  0.10310  0.36640  Biso   1.000  C
  C31      1.0000 0.39070  0.60310  0.13360  Biso   1.000  C
  C32      1.0000 0.60930  0.60310  0.36640  Biso   1.000  C
  H9       1.0000 0.08600  0.89200  0.79410  Biso   1.000  H
  H10      1.0000 0.91400  0.89200  0.70590  Biso   1.000  H
  H11      1.0000 0.58600  0.39200  0.79410  Biso   1.000  H
  H12      1.0000 0.41400  0.39200  0.70590  Biso   1.000  H
  H13      1.0000 0.91400  0.10800  0.20590  Biso   1.000  H
  H14      1.0000 0.08600  0.10800  0.29410  Biso   1.000  H
  H15      1.0000 0.41400  0.60800  0.20590  Biso   1.000  H
  H16      1.0000 0.58600  0.60800  0.29410  Biso   1.000  H
  N1       1.0000 0.17340  0.07170  0.91430  Biso   1.000  N
  N2       1.0000 0.82660  0.07170  0.58570  Biso   1.000  N
  N3       1.0000 0.67340  0.57170  0.91430  Biso   1.000  N
  N4       1.0000 0.32660  0.57170  0.58570  Biso   1.000  N
  N5       1.0000 0.82660  0.92830  0.08570  Biso   1.000  N
  N6       1.0000 0.17340  0.92830  0.41430  Biso   1.000  N
  N7       1.0000 0.32660  0.42830  0.08570  Biso   1.000  N
  N8       1.0000 0.67340  0.42830  0.41430  Biso   1.000  N
  N9       1.0000 0.18880  0.01560  0.01900  Biso   1.000  N
  N10      1.0000 0.81120  0.01560  0.48100  Biso   1.000  N
  N11      1.0000 0.68880  0.51560  0.01900  Biso   1.000  N
  N12      1.0000 0.31120  0.51560  0.48100  Biso   1.000  N
  N13      1.0000 0.81120  0.98440  0.98100  Biso   1.000  N
  N14      1.0000 0.18880  0.98440  0.51900  Biso   1.000  N
  N15      1.0000 0.31120  0.48440  0.98100  Biso   1.000  N
  N16      1.0000 0.68880  0.48440  0.51900  Biso   1.000  N
  O1       1.0000 0.11500  0.50010  0.16830  Biso   1.000  O
  O2       1.0000 0.88500  0.50010  0.33170  Biso   1.000  O
  O3       1.0000 0.61500  0.00010  0.16830  Biso   1.000  O
  O4       1.0000 0.38500  0.00010  0.33170  Biso   1.000  O
  O5       1.0000 0.88500  0.49990  0.83170  Biso   1.000  O
  O6       1.0000 0.11500  0.49990  0.66830  Biso   1.000  O
  O7       1.0000 0.38500  0.99990  0.83170  Biso   1.000  O
  O8       1.0000 0.61500  0.99990  0.66830  Biso   1.000  O
  O9       1.0000 0.20630  0.85360  0.21170  Biso   1.000  O
  O10      1.0000 0.79370  0.85360  0.28830  Biso   1.000  O
  O11      1.0000 0.70630  0.35360  0.21170  Biso   1.000  O
  O12      1.0000 0.29370  0.35360  0.28830  Biso   1.000  O
  O13      1.0000 0.79370  0.14640  0.78830  Biso   1.000  O
  O14      1.0000 0.20630  0.14640  0.71170  Biso   1.000  O
  O15      1.0000 0.29370  0.64640  0.78830  Biso   1.000  O
  O16      1.0000 0.70630  0.64640  0.71170  Biso   1.000  O
