data_image0
_cell_length_a       9.467
_cell_length_b       11.0827
_cell_length_c       12.4243
_cell_angle_alpha    72.103
_cell_angle_beta     82.451
_cell_angle_gamma    66.433

_symmetry_space_group_name_H-M    "P 1"
_symmetry_int_tables_number       1

loop_
  _symmetry_equiv_pos_as_xyz
  'x, y, z'

loop_
  _atom_site_label
  _atom_site_occupancy
  _atom_site_fract_x
  _atom_site_fract_y
  _atom_site_fract_z
  _atom_site_thermal_displace_type
  _atom_site_B_iso_or_equiv
  _atom_site_type_symbol
  Cu1      1.0000 0.00000  0.00000  0.00000  Biso   1.000  Cu
  O1       1.0000 0.79740  0.14840  0.98417  Biso   1.000  O
  O2       1.0000 0.20260  0.85160  0.01583  Biso   1.000  O
  O3       1.0000 0.80820  0.21870  0.13199  Biso   1.000  O
  O4       1.0000 0.19180  0.78130  0.86801  Biso   1.000  O
  O5       1.0000 0.30160  0.40230  0.75048  Biso   1.000  O
  O6       1.0000 0.69840  0.59770  0.24952  Biso   1.000  O
  O7       1.0000 0.11200  0.37750  0.87170  Biso   1.000  O
  O8       1.0000 0.88800  0.62250  0.12830  Biso   1.000  O
  N1       1.0000 0.21510  0.45010  0.30253  Biso   1.000  N
  N2       1.0000 0.78490  0.54990  0.69747  Biso   1.000  N
  N3       1.0000 0.05190  0.08970  0.84293  Biso   1.000  N
  N4       1.0000 0.94810  0.91030  0.15707  Biso   1.000  N
  C1       1.0000 0.73700  0.21590  0.05670  Biso   1.000  C
  C2       1.0000 0.26300  0.78410  0.94330  Biso   1.000  C
  C3       1.0000 0.56560  0.29620  0.04540  Biso   1.000  C
  C4       1.0000 0.43440  0.70380  0.95460  Biso   1.000  C
  C5       1.0000 0.48650  0.30110  0.95600  Biso   1.000  C
  C6       1.0000 0.51350  0.69890  0.04400  Biso   1.000  C
  H1       1.0000 0.53950  0.25330  0.90390  Biso   1.000  H
  H2       1.0000 0.46050  0.74670  0.09610  Biso   1.000  H
  C7       1.0000 0.32890  0.37700  0.94440  Biso   1.000  C
  C8       1.0000 0.67110  0.62300  0.05560  Biso   1.000  C
  C9       1.0000 0.25100  0.44840  0.02370  Biso   1.000  C
  C10      1.0000 0.74900  0.55160  0.97630  Biso   1.000  C
  H3       1.0000 0.14500  0.49710  0.01780  Biso   1.000  H
  H4       1.0000 0.85500  0.50290  0.98220  Biso   1.000  H
  C11      1.0000 0.32930  0.44750  0.11060  Biso   1.000  C
  C12      1.0000 0.67070  0.55250  0.88940  Biso   1.000  C
  C13      1.0000 0.48780  0.37040  0.12190  Biso   1.000  C
  C14      1.0000 0.51220  0.62960  0.87810  Biso   1.000  C
  H5       1.0000 0.54110  0.36890  0.18040  Biso   1.000  H
  H6       1.0000 0.45890  0.63110  0.81960  Biso   1.000  H
  C15      1.0000 0.24070  0.38610  0.84710  Biso   1.000  C
  C16      1.0000 0.75930  0.61390  0.15290  Biso   1.000  C
  C17      1.0000 0.24490  0.53450  0.18960  Biso   1.000  C
  C18      1.0000 0.75510  0.46550  0.81040  Biso   1.000  C
  H7       1.0000 0.30570  0.58310  0.19910  Biso   1.000  H
  H8       1.0000 0.69430  0.41690  0.80090  Biso   1.000  H
  H9       1.0000 0.14750  0.60200  0.15610  Biso   1.000  H
  H10      1.0000 0.85250  0.39800  0.84390  Biso   1.000  H
  C19      1.0000 0.11590  0.38770  0.31130  Biso   1.000  C
  C20      1.0000 0.88410  0.61230  0.68870  Biso   1.000  C
  H11      1.0000 0.07030  0.39450  0.24670  Biso   1.000  H
  H12      1.0000 0.92970  0.60550  0.75330  Biso   1.000  H
  C21      1.0000 0.08200  0.31450  0.41480  Biso   1.000  C
  C22      1.0000 0.91800  0.68550  0.58520  Biso   1.000  C
  H13      1.0000 0.01140  0.27380  0.42020  Biso   1.000  H
  H14      1.0000 0.98860  0.72620  0.57980  Biso   1.000  H
  C23      1.0000 0.15220  0.30050  0.51170  Biso   1.000  C
  C24      1.0000 0.84780  0.69950  0.48830  Biso   1.000  C
  C25      1.0000 0.25300  0.36560  0.49910  Biso   1.000  C
  C26      1.0000 0.74700  0.63440  0.50090  Biso   1.000  C
  H15      1.0000 0.30070  0.35990  0.56230  Biso   1.000  H
  H16      1.0000 0.69930  0.64010  0.43770  Biso   1.000  H
  C27      1.0000 0.28350  0.43890  0.39390  Biso   1.000  C
  C28      1.0000 0.71650  0.56110  0.60610  Biso   1.000  C
  H17      1.0000 0.35300  0.48120  0.38660  Biso   1.000  H
  H18      1.0000 0.64700  0.51880  0.61340  Biso   1.000  H
  C29      1.0000 0.11880  0.22320  0.62530  Biso   1.000  C
  C30      1.0000 0.88120  0.77680  0.37470  Biso   1.000  C
  C31      1.0000 0.97580  0.21290  0.65160  Biso   1.000  C
  C32      1.0000 0.02420  0.78710  0.34840  Biso   1.000  C
  H19      1.0000 0.90080  0.25020  0.59640  Biso   1.000  H
  H20      1.0000 0.09920  0.74980  0.40360  Biso   1.000  H
  C33      1.0000 0.94690  0.14660  0.76070  Biso   1.000  C
  C34      1.0000 0.05310  0.85340  0.23930  Biso   1.000  C
  H21      1.0000 0.85070  0.14110  0.77790  Biso   1.000  H
  H22      1.0000 0.14930  0.85890  0.22210  Biso   1.000  H
  C35      1.0000 0.19090  0.09670  0.81690  Biso   1.000  C
  C36      1.0000 0.80910  0.90330  0.18310  Biso   1.000  C
  H23      1.0000 0.26480  0.05690  0.87320  Biso   1.000  H
  H24      1.0000 0.73520  0.94310  0.12680  Biso   1.000  H
  C37      1.0000 0.22804  0.16026  0.71033  Biso   1.000  C
  C38      1.0000 0.77196  0.83974  0.28967  Biso   1.000  C
  H25      1.0000 0.32640  0.16130  0.69490  Biso   1.000  H
  H26      1.0000 0.67360  0.83870  0.30510  Biso   1.000  H
  O9       1.0000 0.11313  0.15664  0.07541  Biso   1.000  O
  O10      1.0000 0.88687  0.84336  0.92459  Biso   1.000  O
  H27      1.0000 0.99850  0.17970  0.09010  Biso   1.000  H
  H28      1.0000 0.00150  0.82030  0.90990  Biso   1.000  H
  H29      1.0000 0.10890  0.22790  0.04280  Biso   1.000  H
  H30      1.0000 0.89110  0.77210  0.95720  Biso   1.000  H
  O11      1.0000 0.47970  0.09596  0.39079  Biso   1.000  O
  O12      1.0000 0.52030  0.90404  0.60921  Biso   1.000  O
  H31      1.0000 0.42160  0.17860  0.38750  Biso   1.000  H
  H32      1.0000 0.57840  0.82140  0.61250  Biso   1.000  H
  H33      1.0000 0.56010  0.07600  0.42680  Biso   1.000  H
  H34      1.0000 0.43990  0.92400  0.57320  Biso   1.000  H
  O13      1.0000 0.75480  0.14488  0.36165  Biso   1.000  O
  O14      1.0000 0.24520  0.85512  0.63835  Biso   1.000  O
  H35      1.0000 0.77200  0.16580  0.29080  Biso   1.000  H
  H36      1.0000 0.22800  0.83420  0.70920  Biso   1.000  H
  H37      1.0000 0.75980  0.20640  0.38670  Biso   1.000  H
  H38      1.0000 0.24020  0.79360  0.61330  Biso   1.000  H
  O15      1.0000 0.66840  0.37676  0.43504  Biso   1.000  O
  O16      1.0000 0.33160  0.62324  0.56496  Biso   1.000  O
  H39      1.0000 0.58050  0.41400  0.40410  Biso   1.000  H
  H40      1.0000 0.41950  0.58600  0.59590  Biso   1.000  H
  H41      1.0000 0.67730  0.43290  0.46480  Biso   1.000  H
  H42      1.0000 0.32270  0.56710  0.53520  Biso   1.000  H
  O17      1.0000 0.40899  0.71936  0.33073  Biso   1.000  O
  O18      1.0000 0.59101  0.28064  0.66927  Biso   1.000  O
  H43      1.0000 0.35850  0.71850  0.27940  Biso   1.000  H
  H44      1.0000 0.64150  0.28150  0.72060  Biso   1.000  H
  H45      1.0000 0.50200  0.70110  0.30810  Biso   1.000  H
  H46      1.0000 0.49800  0.29890  0.69190  Biso   1.000  H
  O19      1.0000 0.06587  0.01680  0.45220  Biso   1.000  O
  O20      1.0000 0.93413  0.98320  0.54780  Biso   1.000  O
  H47      1.0000 0.07320  0.06650  0.38600  Biso   1.000  H
  H48      1.0000 0.92680  0.93350  0.61400  Biso   1.000  H
  H49      1.0000 0.10960  0.93350  0.45150  Biso   1.000  H
  H50      1.0000 0.89040  0.06650  0.54850  Biso   1.000  H
  O21      1.0000 0.32715  0.01452  0.25800  Biso   1.000  O
  O22      1.0000 0.67285  0.98548  0.74200  Biso   1.000  O
  H51      1.0000 0.38450  0.03380  0.20230  Biso   1.000  H
  H52      1.0000 0.61550  0.96620  0.79770  Biso   1.000  H
  H53      1.0000 0.38360  0.97120  0.31630  Biso   1.000  H
  H54      1.0000 0.61640  0.02880  0.68370  Biso   1.000  H
