data_image0
_cell_length_a       26.705
_cell_length_b       7.319
_cell_length_c       12.788
_cell_angle_alpha    90
_cell_angle_beta     92.09
_cell_angle_gamma    90

_symmetry_space_group_name_H-M    "P 1"
_symmetry_int_tables_number       1

loop_
  _symmetry_equiv_pos_as_xyz
  'x, y, z'

loop_
  _atom_site_label
  _atom_site_occupancy
  _atom_site_fract_x
  _atom_site_fract_y
  _atom_site_fract_z
  _atom_site_thermal_displace_type
  _atom_site_B_iso_or_equiv
  _atom_site_type_symbol
  Cu1      1.0000 0.73016  0.78016  0.16343  Biso   1.000  Cu
  Cu2      1.0000 0.26984  0.78016  0.83657  Biso   1.000  Cu
  Cu3      1.0000 0.23016  0.28016  0.16343  Biso   1.000  Cu
  Cu4      1.0000 0.76984  0.28016  0.83657  Biso   1.000  Cu
  O1       1.0000 0.76991  0.70570  0.04550  Biso   1.000  O
  O2       1.0000 0.23009  0.70570  0.95450  Biso   1.000  O
  O3       1.0000 0.26991  0.20570  0.04550  Biso   1.000  O
  O4       1.0000 0.73009  0.20570  0.95450  Biso   1.000  O
  O5       1.0000 0.76499  0.61050  0.88054  Biso   1.000  O
  O6       1.0000 0.23501  0.61050  0.11946  Biso   1.000  O
  O7       1.0000 0.26499  0.11050  0.88054  Biso   1.000  O
  O8       1.0000 0.73501  0.11050  0.11946  Biso   1.000  O
  O9       1.0000 0.78664  0.79390  0.26195  Biso   1.000  O
  O10      1.0000 0.21336  0.79390  0.73805  Biso   1.000  O
  O11      1.0000 0.28664  0.29390  0.26195  Biso   1.000  O
  O12      1.0000 0.71336  0.29390  0.73805  Biso   1.000  O
  O13      1.0000 0.81074  0.90300  0.41608  Biso   1.000  O
  O14      1.0000 0.18926  0.90300  0.58392  Biso   1.000  O
  O15      1.0000 0.31074  0.40300  0.41608  Biso   1.000  O
  O16      1.0000 0.68926  0.40300  0.58392  Biso   1.000  O
  O17      1.0000 0.54165  0.77810  0.40221  Biso   1.000  O
  O18      1.0000 0.45835  0.77810  0.59779  Biso   1.000  O
  O19      1.0000 0.04165  0.27810  0.40221  Biso   1.000  O
  O20      1.0000 0.95835  0.27810  0.59779  Biso   1.000  O
  O21      1.0000 0.54329  0.48340  0.39257  Biso   1.000  O
  O22      1.0000 0.45671  0.48340  0.60743  Biso   1.000  O
  O23      1.0000 0.04329  0.98340  0.39257  Biso   1.000  O
  O24      1.0000 0.95671  0.98340  0.60743  Biso   1.000  O
  O25      1.0000 0.47365  0.62830  0.36656  Biso   1.000  O
  O26      1.0000 0.52635  0.62830  0.63344  Biso   1.000  O
  O27      1.0000 0.97365  0.12830  0.36656  Biso   1.000  O
  O28      1.0000 0.02635  0.12830  0.63344  Biso   1.000  O
  O29      1.0000 0.58857  0.97720  0.19590  Biso   1.000  O
  O30      1.0000 0.41143  0.97720  0.80410  Biso   1.000  O
  O31      1.0000 0.08857  0.47720  0.19590  Biso   1.000  O
  O32      1.0000 0.91143  0.47720  0.80410  Biso   1.000  O
  O33      1.0000 0.58593  0.68320  0.18910  Biso   1.000  O
  O34      1.0000 0.41407  0.68320  0.81090  Biso   1.000  O
  O35      1.0000 0.08593  0.18320  0.18910  Biso   1.000  O
  O36      1.0000 0.91407  0.18320  0.81090  Biso   1.000  O
  O37      1.0000 0.52047  0.83970  0.14560  Biso   1.000  O
  O38      1.0000 0.47953  0.83970  0.85440  Biso   1.000  O
  O39      1.0000 0.02047  0.33970  0.14560  Biso   1.000  O
  O40      1.0000 0.97953  0.33970  0.85440  Biso   1.000  O
  O41      1.0000 0.83789  0.86660  0.82410  Biso   1.000  O
  O42      1.0000 0.16211  0.86660  0.17590  Biso   1.000  O
  O43      1.0000 0.33789  0.36660  0.82410  Biso   1.000  O
  O44      1.0000 0.66211  0.36660  0.17590  Biso   1.000  O
  O45      1.0000 0.65048  0.49350  0.38307  Biso   1.000  O
  O46      1.0000 0.34952  0.49350  0.61693  Biso   1.000  O
  O47      1.0000 0.15048  0.99350  0.38307  Biso   1.000  O
  O48      1.0000 0.84952  0.99350  0.61693  Biso   1.000  O
  O49      1.0000 0.86896  0.62000  0.00783  Biso   1.000  O
  O50      1.0000 0.13104  0.62000  0.99217  Biso   1.000  O
  O51      1.0000 0.36896  0.12000  0.00783  Biso   1.000  O
  O52      1.0000 0.63104  0.12000  0.99217  Biso   1.000  O
  N1       1.0000 0.67308  0.74490  0.06299  Biso   1.000  N
  N2       1.0000 0.32692  0.74490  0.93701  Biso   1.000  N
  N3       1.0000 0.17308  0.24490  0.06299  Biso   1.000  N
  N4       1.0000 0.82692  0.24490  0.93701  Biso   1.000  N
  H1       1.0000 0.64900  0.68060  0.09380  Biso   1.000  H
  H2       1.0000 0.35100  0.68060  0.90620  Biso   1.000  H
  H3       1.0000 0.14900  0.18060  0.09380  Biso   1.000  H
  H4       1.0000 0.85100  0.18060  0.90620  Biso   1.000  H
  H5       1.0000 0.66020  0.85440  0.04450  Biso   1.000  H
  H6       1.0000 0.33980  0.85440  0.95550  Biso   1.000  H
  H7       1.0000 0.16020  0.35440  0.04450  Biso   1.000  H
  H8       1.0000 0.83980  0.35440  0.95550  Biso   1.000  H
  N5       1.0000 0.53347  0.48930  0.87673  Biso   1.000  N
  N6       1.0000 0.46653  0.48930  0.12327  Biso   1.000  N
  N7       1.0000 0.03347  0.98930  0.87673  Biso   1.000  N
  N8       1.0000 0.96653  0.98930  0.12327  Biso   1.000  N
  H9       1.0000 0.51580  0.58740  0.87280  Biso   1.000  H
  H10      1.0000 0.48420  0.58740  0.12720  Biso   1.000  H
  H11      1.0000 0.01580  0.08740  0.87280  Biso   1.000  H
  H12      1.0000 0.98420  0.08740  0.12720  Biso   1.000  H
  N9       1.0000 0.46133  0.32530  0.84865  Biso   1.000  N
  N10      1.0000 0.53867  0.32530  0.15135  Biso   1.000  N
  N11      1.0000 0.96133  0.82530  0.84865  Biso   1.000  N
  N12      1.0000 0.03867  0.82530  0.15135  Biso   1.000  N
  H13      1.0000 0.44480  0.42500  0.83890  Biso   1.000  H
  H14      1.0000 0.55520  0.42500  0.16110  Biso   1.000  H
  H15      1.0000 0.94480  0.92500  0.83890  Biso   1.000  H
  H16      1.0000 0.05520  0.92500  0.16110  Biso   1.000  H
  H17      1.0000 0.44610  0.22180  0.84440  Biso   1.000  H
  H18      1.0000 0.55390  0.22180  0.15560  Biso   1.000  H
  H19      1.0000 0.94610  0.72180  0.84440  Biso   1.000  H
  H20      1.0000 0.05390  0.72180  0.15560  Biso   1.000  H
  N13      1.0000 0.53512  0.17640  0.88560  Biso   1.000  N
  N14      1.0000 0.46488  0.17640  0.11440  Biso   1.000  N
  N15      1.0000 0.03512  0.67640  0.88560  Biso   1.000  N
  N16      1.0000 0.96488  0.67640  0.11440  Biso   1.000  N
  H21      1.0000 0.56680  0.17780  0.90000  Biso   1.000  H
  H22      1.0000 0.43320  0.17780  0.10000  Biso   1.000  H
  H23      1.0000 0.06680  0.67780  0.90000  Biso   1.000  H
  H24      1.0000 0.93320  0.67780  0.10000  Biso   1.000  H
  H25      1.0000 0.51940  0.07400  0.88100  Biso   1.000  H
  H26      1.0000 0.48060  0.07400  0.11900  Biso   1.000  H
  H27      1.0000 0.01940  0.57400  0.88100  Biso   1.000  H
  H28      1.0000 0.98060  0.57400  0.11900  Biso   1.000  H
  N17      1.0000 0.69069  0.84240  0.28659  Biso   1.000  N
  N18      1.0000 0.30931  0.84240  0.71341  Biso   1.000  N
  N19      1.0000 0.19069  0.34240  0.28659  Biso   1.000  N
  N20      1.0000 0.80931  0.34240  0.71341  Biso   1.000  N
  H29      1.0000 0.66490  0.91570  0.26730  Biso   1.000  H
  H30      1.0000 0.33510  0.91570  0.73270  Biso   1.000  H
  H31      1.0000 0.16490  0.41570  0.26730  Biso   1.000  H
  H32      1.0000 0.83510  0.41570  0.73270  Biso   1.000  H
  H33      1.0000 0.67820  0.74010  0.31480  Biso   1.000  H
  H34      1.0000 0.32180  0.74010  0.68520  Biso   1.000  H
  H35      1.0000 0.17820  0.24010  0.31480  Biso   1.000  H
  H36      1.0000 0.82180  0.24010  0.68520  Biso   1.000  H
  N21      1.0000 0.58473  0.97380  0.61709  Biso   1.000  N
  N22      1.0000 0.41527  0.97380  0.38291  Biso   1.000  N
  N23      1.0000 0.08473  0.47380  0.61709  Biso   1.000  N
  N24      1.0000 0.91527  0.47380  0.38291  Biso   1.000  N
  H37      1.0000 0.56700  0.87650  0.62330  Biso   1.000  H
  H38      1.0000 0.43300  0.87650  0.37670  Biso   1.000  H
  H39      1.0000 0.06700  0.37650  0.62330  Biso   1.000  H
  H40      1.0000 0.93300  0.37650  0.37670  Biso   1.000  H
  N25      1.0000 0.51153  0.13200  0.62661  Biso   1.000  N
  N26      1.0000 0.48847  0.13200  0.37339  Biso   1.000  N
  N27      1.0000 0.01153  0.63200  0.62661  Biso   1.000  N
  N28      1.0000 0.98847  0.63200  0.37339  Biso   1.000  N
  H41      1.0000 0.49570  0.23380  0.63130  Biso   1.000  H
  H42      1.0000 0.50430  0.23380  0.36870  Biso   1.000  H
  H43      1.0000 0.99570  0.73380  0.63130  Biso   1.000  H
  H44      1.0000 0.00430  0.73380  0.36870  Biso   1.000  H
  H45      1.0000 0.49530  0.03050  0.62550  Biso   1.000  H
  H46      1.0000 0.50470  0.03050  0.37450  Biso   1.000  H
  H47      1.0000 0.99530  0.53050  0.62550  Biso   1.000  H
  H48      1.0000 0.00470  0.53050  0.37450  Biso   1.000  H
  N29      1.0000 0.58534  0.28810  0.62295  Biso   1.000  N
  N30      1.0000 0.41466  0.28810  0.37705  Biso   1.000  N
  N31      1.0000 0.08534  0.78810  0.62295  Biso   1.000  N
  N32      1.0000 0.91466  0.78810  0.37705  Biso   1.000  N
  H49      1.0000 0.61750  0.28960  0.62150  Biso   1.000  H
  H50      1.0000 0.38250  0.28960  0.37850  Biso   1.000  H
  H51      1.0000 0.11750  0.78960  0.62150  Biso   1.000  H
  H52      1.0000 0.88250  0.78960  0.37850  Biso   1.000  H
  H53      1.0000 0.56890  0.38900  0.62560  Biso   1.000  H
  H54      1.0000 0.43110  0.38900  0.37440  Biso   1.000  H
  H55      1.0000 0.06890  0.88900  0.62560  Biso   1.000  H
  H56      1.0000 0.93110  0.88900  0.37440  Biso   1.000  H
  N33      1.0000 0.51972  0.63090  0.38737  Biso   1.000  N
  N34      1.0000 0.48028  0.63090  0.61263  Biso   1.000  N
  N35      1.0000 0.01972  0.13090  0.38737  Biso   1.000  N
  N36      1.0000 0.98028  0.13090  0.61263  Biso   1.000  N
  N37      1.0000 0.56512  0.83290  0.17660  Biso   1.000  N
  N38      1.0000 0.43488  0.83290  0.82340  Biso   1.000  N
  N39      1.0000 0.06512  0.33290  0.17660  Biso   1.000  N
  N40      1.0000 0.93488  0.33290  0.82340  Biso   1.000  N
  C1       1.0000 0.74519  0.65610  0.96209  Biso   1.000  C
  C2       1.0000 0.25481  0.65610  0.03791  Biso   1.000  C
  C3       1.0000 0.24519  0.15610  0.96209  Biso   1.000  C
  C4       1.0000 0.75481  0.15610  0.03791  Biso   1.000  C
  C5       1.0000 0.68853  0.64740  0.96858  Biso   1.000  C
  C6       1.0000 0.31147  0.64740  0.03142  Biso   1.000  C
  C7       1.0000 0.18853  0.14740  0.96858  Biso   1.000  C
  C8       1.0000 0.81147  0.14740  0.03142  Biso   1.000  C
  H57      1.0000 0.67940  0.51860  0.97700  Biso   1.000  H
  H58      1.0000 0.32060  0.51860  0.02300  Biso   1.000  H
  H59      1.0000 0.17940  0.01860  0.97700  Biso   1.000  H
  H60      1.0000 0.82060  0.01860  0.02300  Biso   1.000  H
  C9       1.0000 0.66154  0.71620  0.86879  Biso   1.000  C
  C10      1.0000 0.33846  0.71620  0.13121  Biso   1.000  C
  C11      1.0000 0.16154  0.21620  0.86879  Biso   1.000  C
  C12      1.0000 0.83846  0.21620  0.13121  Biso   1.000  C
  H61      1.0000 0.67310  0.64680  0.80970  Biso   1.000  H
  H62      1.0000 0.32690  0.64680  0.19030  Biso   1.000  H
  H63      1.0000 0.17310  0.14680  0.80970  Biso   1.000  H
  H64      1.0000 0.82690  0.14680  0.19030  Biso   1.000  H
  H65      1.0000 0.67040  0.84310  0.85800  Biso   1.000  H
  H66      1.0000 0.32960  0.84310  0.14200  Biso   1.000  H
  H67      1.0000 0.17040  0.34310  0.85800  Biso   1.000  H
  H68      1.0000 0.82960  0.34310  0.14200  Biso   1.000  H
  C13      1.0000 0.60444  0.70030  0.87140  Biso   1.000  C
  C14      1.0000 0.39556  0.70030  0.12860  Biso   1.000  C
  C15      1.0000 0.10444  0.20030  0.87140  Biso   1.000  C
  C16      1.0000 0.89556  0.20030  0.12860  Biso   1.000  C
  H69      1.0000 0.59240  0.77810  0.92660  Biso   1.000  H
  H70      1.0000 0.40760  0.77810  0.07340  Biso   1.000  H
  H71      1.0000 0.09240  0.27810  0.92660  Biso   1.000  H
  H72      1.0000 0.90760  0.27810  0.07340  Biso   1.000  H
  H73      1.0000 0.58970  0.74300  0.80540  Biso   1.000  H
  H74      1.0000 0.41030  0.74300  0.19460  Biso   1.000  H
  H75      1.0000 0.08970  0.24300  0.80540  Biso   1.000  H
  H76      1.0000 0.91030  0.24300  0.19460  Biso   1.000  H
  C17      1.0000 0.58788  0.50520  0.89030  Biso   1.000  C
  C18      1.0000 0.41212  0.50520  0.10970  Biso   1.000  C
  C19      1.0000 0.08788  0.00520  0.89030  Biso   1.000  C
  C20      1.0000 0.91212  0.00520  0.10970  Biso   1.000  C
  H77      1.0000 0.60390  0.42440  0.84150  Biso   1.000  H
  H78      1.0000 0.39610  0.42440  0.15850  Biso   1.000  H
  H79      1.0000 0.10390  0.92440  0.84150  Biso   1.000  H
  H80      1.0000 0.89610  0.92440  0.15850  Biso   1.000  H
  H81      1.0000 0.59820  0.46840  0.96070  Biso   1.000  H
  H82      1.0000 0.40180  0.46840  0.03930  Biso   1.000  H
  H83      1.0000 0.09820  0.96840  0.96070  Biso   1.000  H
  H84      1.0000 0.90180  0.96840  0.03930  Biso   1.000  H
  C21      1.0000 0.51066  0.33100  0.87042  Biso   1.000  C
  C22      1.0000 0.48934  0.33100  0.12958  Biso   1.000  C
  C23      1.0000 0.01066  0.83100  0.87042  Biso   1.000  C
  C24      1.0000 0.98934  0.83100  0.12958  Biso   1.000  C
  C25      1.0000 0.77813  0.87360  0.34780  Biso   1.000  C
  C26      1.0000 0.22187  0.87360  0.65220  Biso   1.000  C
  C27      1.0000 0.27813  0.37360  0.34780  Biso   1.000  C
  C28      1.0000 0.72187  0.37360  0.65220  Biso   1.000  C
  C29      1.0000 0.72431  0.93670  0.36395  Biso   1.000  C
  C30      1.0000 0.27569  0.93670  0.63605  Biso   1.000  C
  C31      1.0000 0.22431  0.43670  0.36395  Biso   1.000  C
  C32      1.0000 0.77569  0.43670  0.63605  Biso   1.000  C
  H85      1.0000 0.72290  0.06740  0.34760  Biso   1.000  H
  H86      1.0000 0.27710  0.06740  0.65240  Biso   1.000  H
  H87      1.0000 0.22290  0.56740  0.34760  Biso   1.000  H
  H88      1.0000 0.77710  0.56740  0.65240  Biso   1.000  H
  C33      1.0000 0.70771  0.91450  0.47680  Biso   1.000  C
  C34      1.0000 0.29229  0.91450  0.52320  Biso   1.000  C
  C35      1.0000 0.20771  0.41450  0.47680  Biso   1.000  C
  C36      1.0000 0.79229  0.41450  0.52320  Biso   1.000  C
  H89      1.0000 0.71190  0.78780  0.49770  Biso   1.000  H
  H90      1.0000 0.28810  0.78780  0.50230  Biso   1.000  H
  H91      1.0000 0.21190  0.28780  0.49770  Biso   1.000  H
  H92      1.0000 0.78810  0.28780  0.50230  Biso   1.000  H
  H93      1.0000 0.72920  0.98820  0.52270  Biso   1.000  H
  H94      1.0000 0.27080  0.98820  0.47730  Biso   1.000  H
  H95      1.0000 0.22920  0.48820  0.52270  Biso   1.000  H
  H96      1.0000 0.77080  0.48820  0.47730  Biso   1.000  H
  C37      1.0000 0.65327  0.97050  0.49050  Biso   1.000  C
  C38      1.0000 0.34673  0.97050  0.50950  Biso   1.000  C
  C39      1.0000 0.15327  0.47050  0.49050  Biso   1.000  C
  C40      1.0000 0.84673  0.47050  0.50950  Biso   1.000  C
  H97      1.0000 0.64880  0.09670  0.46890  Biso   1.000  H
  H98      1.0000 0.35120  0.09670  0.53110  Biso   1.000  H
  H99      1.0000 0.14880  0.59670  0.46890  Biso   1.000  H
  H100     1.0000 0.85120  0.59670  0.53110  Biso   1.000  H
  H101     1.0000 0.63160  0.89540  0.44570  Biso   1.000  H
  H102     1.0000 0.36840  0.89540  0.55430  Biso   1.000  H
  H103     1.0000 0.13160  0.39540  0.44570  Biso   1.000  H
  H104     1.0000 0.86840  0.39540  0.55430  Biso   1.000  H
  C41      1.0000 0.63813  0.95010  0.60300  Biso   1.000  C
  C42      1.0000 0.36187  0.95010  0.39700  Biso   1.000  C
  C43      1.0000 0.13813  0.45010  0.60300  Biso   1.000  C
  C44      1.0000 0.86187  0.45010  0.39700  Biso   1.000  C
  H105     1.0000 0.64800  0.82960  0.62790  Biso   1.000  H
  H106     1.0000 0.35200  0.82960  0.37210  Biso   1.000  H
  H107     1.0000 0.14800  0.32960  0.62790  Biso   1.000  H
  H108     1.0000 0.85200  0.32960  0.37210  Biso   1.000  H
  H109     1.0000 0.65630  0.03930  0.64570  Biso   1.000  H
  H110     1.0000 0.34370  0.03930  0.35430  Biso   1.000  H
  H111     1.0000 0.15630  0.53930  0.64570  Biso   1.000  H
  H112     1.0000 0.84370  0.53930  0.35430  Biso   1.000  H
  C45      1.0000 0.56123  0.13150  0.62112  Biso   1.000  C
  C46      1.0000 0.43877  0.13150  0.37888  Biso   1.000  C
  C47      1.0000 0.06123  0.63150  0.62112  Biso   1.000  C
  C48      1.0000 0.93877  0.63150  0.37888  Biso   1.000  C
  H113     1.0000 0.80940  0.81600  0.83100  Biso   1.000  H
  H114     1.0000 0.19060  0.81600  0.16900  Biso   1.000  H
  H115     1.0000 0.30940  0.31600  0.83100  Biso   1.000  H
  H116     1.0000 0.69060  0.31600  0.16900  Biso   1.000  H
  H117     1.0000 0.84390  0.86400  0.76050  Biso   1.000  H
  H118     1.0000 0.15610  0.86400  0.23950  Biso   1.000  H
  H119     1.0000 0.34390  0.36400  0.76050  Biso   1.000  H
  H120     1.0000 0.65610  0.36400  0.23950  Biso   1.000  H
  H121     1.0000 0.66480  0.48900  0.44150  Biso   1.000  H
  H122     1.0000 0.33520  0.48900  0.55850  Biso   1.000  H
  H123     1.0000 0.16480  0.98900  0.44150  Biso   1.000  H
  H124     1.0000 0.83520  0.98900  0.55850  Biso   1.000  H
  H125     1.0000 0.62000  0.50000  0.39000  Biso   1.000  H
  H126     1.0000 0.38000  0.50000  0.61000  Biso   1.000  H
  H127     1.0000 0.12000  0.00000  0.39000  Biso   1.000  H
  H128     1.0000 0.88000  0.00000  0.61000  Biso   1.000  H
  H129     1.0000 0.87350  0.67300  0.95200  Biso   1.000  H
  H130     1.0000 0.12650  0.67300  0.04800  Biso   1.000  H
  H131     1.0000 0.37350  0.17300  0.95200  Biso   1.000  H
  H132     1.0000 0.62650  0.17300  0.04800  Biso   1.000  H
  H133     1.0000 0.84110  0.64900  0.02900  Biso   1.000  H
  H134     1.0000 0.15890  0.64900  0.97100  Biso   1.000  H
  H135     1.0000 0.34110  0.14900  0.02900  Biso   1.000  H
  H136     1.0000 0.65890  0.14900  0.97100  Biso   1.000  H
