data_image0
_cell_length_a       13.902
_cell_length_b       13.345
_cell_length_c       15.007
_cell_angle_alpha    90
_cell_angle_beta     112.978
_cell_angle_gamma    90

_symmetry_space_group_name_H-M    "P 1"
_symmetry_int_tables_number       1

loop_
  _symmetry_equiv_pos_as_xyz
  'x, y, z'

loop_
  _atom_site_label
  _atom_site_occupancy
  _atom_site_fract_x
  _atom_site_fract_y
  _atom_site_fract_z
  _atom_site_thermal_displace_type
  _atom_site_B_iso_or_equiv
  _atom_site_type_symbol
  Cu1      1.0000 0.05986  0.30197  0.86369  Biso   1.000  Cu
  Cu2      1.0000 0.94014  0.80197  0.63631  Biso   1.000  Cu
  Cu3      1.0000 0.94014  0.69803  0.13631  Biso   1.000  Cu
  Cu4      1.0000 0.05986  0.19803  0.36369  Biso   1.000  Cu
  Fe1      1.0000 0.31747  0.27294  0.70403  Biso   1.000  Fe
  Fe2      1.0000 0.68253  0.77294  0.79597  Biso   1.000  Fe
  Fe3      1.0000 0.68253  0.72706  0.29597  Biso   1.000  Fe
  Fe4      1.0000 0.31747  0.22706  0.20403  Biso   1.000  Fe
  B1       1.0000 0.55550  0.23470  0.78920  Biso   1.000  B
  B2       1.0000 0.44450  0.73470  0.71080  Biso   1.000  B
  B3       1.0000 0.44450  0.76530  0.21080  Biso   1.000  B
  B4       1.0000 0.55550  0.26530  0.28920  Biso   1.000  B
  H1       1.0000 0.63800  0.22100  0.82300  Biso   1.000  H
  H2       1.0000 0.36200  0.72100  0.67700  Biso   1.000  H
  H3       1.0000 0.36200  0.77900  0.17700  Biso   1.000  H
  H4       1.0000 0.63800  0.27900  0.32300  Biso   1.000  H
  N1       1.0000 0.05170  0.15660  0.89470  Biso   1.000  N
  N2       1.0000 0.94830  0.65660  0.60530  Biso   1.000  N
  N3       1.0000 0.94830  0.84340  0.10530  Biso   1.000  N
  N4       1.0000 0.05170  0.34340  0.39470  Biso   1.000  N
  N5       1.0000 0.93270  0.31620  0.89600  Biso   1.000  N
  N6       1.0000 0.06730  0.81620  0.60400  Biso   1.000  N
  N7       1.0000 0.06730  0.68380  0.10400  Biso   1.000  N
  N8       1.0000 0.93270  0.18380  0.39600  Biso   1.000  N
  N9       1.0000 0.01880  0.43660  0.80180  Biso   1.000  N
  N10      1.0000 0.98120  0.93660  0.69820  Biso   1.000  N
  N11      1.0000 0.98120  0.56340  0.19820  Biso   1.000  N
  N12      1.0000 0.01880  0.06340  0.30180  Biso   1.000  N
  N13      1.0000 0.42472  0.35920  0.79690  Biso   1.000  N
  N14      1.0000 0.57528  0.85920  0.70310  Biso   1.000  N
  N15      1.0000 0.57528  0.64080  0.20310  Biso   1.000  N
  N16      1.0000 0.42472  0.14080  0.29690  Biso   1.000  N
  N17      1.0000 0.52703  0.33230  0.82721  Biso   1.000  N
  N18      1.0000 0.47297  0.83230  0.67279  Biso   1.000  N
  N19      1.0000 0.47297  0.66770  0.17279  Biso   1.000  N
  N20      1.0000 0.52703  0.16770  0.32721  Biso   1.000  N
  N21      1.0000 0.49528  0.14910  0.81323  Biso   1.000  N
  N22      1.0000 0.50472  0.64910  0.68677  Biso   1.000  N
  N23      1.0000 0.50472  0.85090  0.18677  Biso   1.000  N
  N24      1.0000 0.49528  0.35090  0.31323  Biso   1.000  N
  N25      1.0000 0.38949  0.15560  0.78113  Biso   1.000  N
  N26      1.0000 0.61051  0.65560  0.71887  Biso   1.000  N
  N27      1.0000 0.61051  0.84440  0.21887  Biso   1.000  N
  N28      1.0000 0.38949  0.34440  0.28113  Biso   1.000  N
  N29      1.0000 0.51255  0.24310  0.67913  Biso   1.000  N
  N30      1.0000 0.48745  0.74310  0.82087  Biso   1.000  N
  N31      1.0000 0.48745  0.75690  0.32087  Biso   1.000  N
  N32      1.0000 0.51255  0.25690  0.17913  Biso   1.000  N
  N33      1.0000 0.40850  0.26240  0.63168  Biso   1.000  N
  N34      1.0000 0.59150  0.76240  0.86832  Biso   1.000  N
  N35      1.0000 0.59150  0.73760  0.36832  Biso   1.000  N
  N36      1.0000 0.40850  0.23760  0.13168  Biso   1.000  N
  N37      1.0000 0.17060  0.28600  0.81370  Biso   1.000  N
  N38      1.0000 0.82940  0.78600  0.68630  Biso   1.000  N
  N39      1.0000 0.82940  0.71400  0.18630  Biso   1.000  N
  N40      1.0000 0.17060  0.21400  0.31370  Biso   1.000  N
  N41      1.0000 0.21200  0.45630  0.58110  Biso   1.000  N
  N42      1.0000 0.78800  0.95630  0.91890  Biso   1.000  N
  N43      1.0000 0.78800  0.54370  0.41890  Biso   1.000  N
  N44      1.0000 0.21200  0.04370  0.08110  Biso   1.000  N
  N45      1.0000 0.15620  0.34310  0.03430  Biso   1.000  N
  N46      1.0000 0.84380  0.84310  0.46570  Biso   1.000  N
  N47      1.0000 0.84380  0.65690  0.96570  Biso   1.000  N
  N48      1.0000 0.15620  0.15690  0.53430  Biso   1.000  N
  C1       1.0000 0.52720  0.06330  0.86270  Biso   1.000  C
  C2       1.0000 0.47280  0.56330  0.63730  Biso   1.000  C
  C3       1.0000 0.47280  0.93670  0.13730  Biso   1.000  C
  C4       1.0000 0.52720  0.43670  0.36270  Biso   1.000  C
  H5       1.0000 0.59680  0.04110  0.89180  Biso   1.000  H
  H6       1.0000 0.40320  0.54110  0.60820  Biso   1.000  H
  H7       1.0000 0.40320  0.95890  0.10820  Biso   1.000  H
  H8       1.0000 0.59680  0.45890  0.39180  Biso   1.000  H
  C5       1.0000 0.44110  0.01340  0.86390  Biso   1.000  C
  C6       1.0000 0.55890  0.51340  0.63610  Biso   1.000  C
  C7       1.0000 0.55890  0.98660  0.13610  Biso   1.000  C
  C8       1.0000 0.44110  0.48660  0.36390  Biso   1.000  C
  H9       1.0000 0.43980  0.95140  0.89330  Biso   1.000  H
  H10      1.0000 0.56020  0.45140  0.60670  Biso   1.000  H
  H11      1.0000 0.56020  0.04860  0.10670  Biso   1.000  H
  H12      1.0000 0.43980  0.54860  0.39330  Biso   1.000  H
  C9       1.0000 0.35730  0.07340  0.81300  Biso   1.000  C
  C10      1.0000 0.64270  0.57340  0.68700  Biso   1.000  C
  C11      1.0000 0.64270  0.92660  0.18700  Biso   1.000  C
  C12      1.0000 0.35730  0.42660  0.31300  Biso   1.000  C
  H13      1.0000 0.28740  0.05890  0.80200  Biso   1.000  H
  H14      1.0000 0.71260  0.55890  0.69800  Biso   1.000  H
  H15      1.0000 0.71260  0.94110  0.19800  Biso   1.000  H
  H16      1.0000 0.28740  0.44110  0.30200  Biso   1.000  H
  C13      1.0000 0.55790  0.23630  0.61540  Biso   1.000  C
  C14      1.0000 0.44210  0.73630  0.88460  Biso   1.000  C
  C15      1.0000 0.44210  0.76370  0.38460  Biso   1.000  C
  C16      1.0000 0.55790  0.26370  0.11540  Biso   1.000  C
  H17      1.0000 0.62900  0.22310  0.63050  Biso   1.000  H
  H18      1.0000 0.37100  0.72310  0.86950  Biso   1.000  H
  H19      1.0000 0.37100  0.77690  0.36950  Biso   1.000  H
  H20      1.0000 0.62900  0.27690  0.13050  Biso   1.000  H
  C17      1.0000 0.48350  0.25190  0.52460  Biso   1.000  C
  C18      1.0000 0.51650  0.75190  0.97540  Biso   1.000  C
  C19      1.0000 0.51650  0.74810  0.47540  Biso   1.000  C
  C20      1.0000 0.48350  0.24810  0.02460  Biso   1.000  C
  H21      1.0000 0.49290  0.25180  0.46590  Biso   1.000  H
  H22      1.0000 0.50710  0.75180  0.03410  Biso   1.000  H
  H23      1.0000 0.50710  0.74820  0.53410  Biso   1.000  H
  H24      1.0000 0.49290  0.24820  0.96590  Biso   1.000  H
  C21      1.0000 0.39150  0.26770  0.53730  Biso   1.000  C
  C22      1.0000 0.60850  0.76770  0.96270  Biso   1.000  C
  C23      1.0000 0.60850  0.73230  0.46270  Biso   1.000  C
  C24      1.0000 0.39150  0.23230  0.03730  Biso   1.000  C
  H25      1.0000 0.32640  0.28030  0.48720  Biso   1.000  H
  H26      1.0000 0.67360  0.78030  0.01280  Biso   1.000  H
  H27      1.0000 0.67360  0.71970  0.51280  Biso   1.000  H
  H28      1.0000 0.32640  0.21970  0.98720  Biso   1.000  H
  C25      1.0000 0.58590  0.40540  0.88450  Biso   1.000  C
  C26      1.0000 0.41410  0.90540  0.61550  Biso   1.000  C
  C27      1.0000 0.41410  0.59460  0.11550  Biso   1.000  C
  C28      1.0000 0.58590  0.09460  0.38450  Biso   1.000  C
  H29      1.0000 0.65920  0.40520  0.91460  Biso   1.000  H
  H30      1.0000 0.34080  0.90520  0.58540  Biso   1.000  H
  H31      1.0000 0.34080  0.59480  0.08540  Biso   1.000  H
  H32      1.0000 0.65920  0.09480  0.41460  Biso   1.000  H
  C29      1.0000 0.52300  0.47940  0.89200  Biso   1.000  C
  C30      1.0000 0.47700  0.97940  0.60800  Biso   1.000  C
  C31      1.0000 0.47700  0.52060  0.10800  Biso   1.000  C
  C32      1.0000 0.52300  0.02060  0.39200  Biso   1.000  C
  H33      1.0000 0.54320  0.53930  0.92730  Biso   1.000  H
  H34      1.0000 0.45680  0.03930  0.57270  Biso   1.000  H
  H35      1.0000 0.45680  0.46070  0.07270  Biso   1.000  H
  H36      1.0000 0.54320  0.96070  0.42730  Biso   1.000  H
  C33      1.0000 0.42260  0.44800  0.83660  Biso   1.000  C
  C34      1.0000 0.57740  0.94800  0.66340  Biso   1.000  C
  C35      1.0000 0.57740  0.55200  0.16340  Biso   1.000  C
  C36      1.0000 0.42260  0.05200  0.33660  Biso   1.000  C
  H37      1.0000 0.36160  0.48410  0.82810  Biso   1.000  H
  H38      1.0000 0.63840  0.98410  0.67190  Biso   1.000  H
  H39      1.0000 0.63840  0.51590  0.17190  Biso   1.000  H
  H40      1.0000 0.36160  0.01590  0.32810  Biso   1.000  H
  C37      1.0000 0.22540  0.28110  0.77170  Biso   1.000  C
  C38      1.0000 0.77460  0.78110  0.72830  Biso   1.000  C
  C39      1.0000 0.77460  0.71890  0.22830  Biso   1.000  C
  C40      1.0000 0.22540  0.21890  0.27170  Biso   1.000  C
  C41      1.0000 0.93730  0.47960  0.83250  Biso   1.000  C
  C42      1.0000 0.06270  0.97960  0.66750  Biso   1.000  C
  C43      1.0000 0.06270  0.52040  0.16750  Biso   1.000  C
  C44      1.0000 0.93730  0.02040  0.33250  Biso   1.000  C
  H41      1.0000 0.89800  0.53210  0.78720  Biso   1.000  H
  H42      1.0000 0.10200  0.03210  0.71280  Biso   1.000  H
  H43      1.0000 0.10200  0.46790  0.21280  Biso   1.000  H
  H44      1.0000 0.89800  0.96790  0.28720  Biso   1.000  H
  H45      1.0000 0.97000  0.50930  0.89720  Biso   1.000  H
  H46      1.0000 0.03000  0.00930  0.60280  Biso   1.000  H
  H47      1.0000 0.03000  0.49070  0.10280  Biso   1.000  H
  H48      1.0000 0.97000  0.99070  0.39720  Biso   1.000  H
  C45      1.0000 0.86540  0.39590  0.83340  Biso   1.000  C
  C46      1.0000 0.13460  0.89590  0.66660  Biso   1.000  C
  C47      1.0000 0.13460  0.60410  0.16660  Biso   1.000  C
  C48      1.0000 0.86540  0.10410  0.33340  Biso   1.000  C
  H49      1.0000 0.81480  0.41930  0.85940  Biso   1.000  H
  H50      1.0000 0.18520  0.91930  0.64060  Biso   1.000  H
  H51      1.0000 0.18520  0.58070  0.14060  Biso   1.000  H
  H52      1.0000 0.81480  0.08070  0.35940  Biso   1.000  H
  H53      1.0000 0.82710  0.37050  0.76770  Biso   1.000  H
  H54      1.0000 0.17290  0.87050  0.73230  Biso   1.000  H
  H55      1.0000 0.17290  0.62950  0.23230  Biso   1.000  H
  H56      1.0000 0.82710  0.12950  0.26770  Biso   1.000  H
  C49      1.0000 0.88490  0.21750  0.89180  Biso   1.000  C
  C50      1.0000 0.11510  0.71750  0.60820  Biso   1.000  C
  C51      1.0000 0.11510  0.78250  0.10820  Biso   1.000  C
  C52      1.0000 0.88490  0.28250  0.39180  Biso   1.000  C
  H57      1.0000 0.84460  0.19820  0.82440  Biso   1.000  H
  H58      1.0000 0.15540  0.69820  0.67560  Biso   1.000  H
  H59      1.0000 0.15540  0.80180  0.17560  Biso   1.000  H
  H60      1.0000 0.84460  0.30180  0.32440  Biso   1.000  H
  H61      1.0000 0.83780  0.21870  0.92630  Biso   1.000  H
  H62      1.0000 0.16220  0.71870  0.57370  Biso   1.000  H
  H63      1.0000 0.16220  0.78130  0.07370  Biso   1.000  H
  H64      1.0000 0.83780  0.28130  0.42630  Biso   1.000  H
  C53      1.0000 0.97350  0.14420  0.93940  Biso   1.000  C
  C54      1.0000 0.02650  0.64420  0.56060  Biso   1.000  C
  C55      1.0000 0.02650  0.85580  0.06060  Biso   1.000  C
  C56      1.0000 0.97350  0.35580  0.43940  Biso   1.000  C
  H65      1.0000 0.00630  0.15730  0.00910  Biso   1.000  H
  H66      1.0000 0.99370  0.65730  0.49090  Biso   1.000  H
  H67      1.0000 0.99370  0.84270  0.99090  Biso   1.000  H
  H68      1.0000 0.00630  0.34270  0.50910  Biso   1.000  H
  H69      1.0000 0.94660  0.07540  0.92990  Biso   1.000  H
  H70      1.0000 0.05340  0.57540  0.57010  Biso   1.000  H
  H71      1.0000 0.05340  0.92460  0.07010  Biso   1.000  H
  H72      1.0000 0.94660  0.42460  0.42990  Biso   1.000  H
  C57      1.0000 0.21400  0.30480  0.10220  Biso   1.000  C
  C58      1.0000 0.78600  0.80480  0.39780  Biso   1.000  C
  C59      1.0000 0.78600  0.69520  0.89780  Biso   1.000  C
  C60      1.0000 0.21400  0.19520  0.60220  Biso   1.000  C
  C61      1.0000 0.24970  0.38870  0.62950  Biso   1.000  C
  C62      1.0000 0.75030  0.88870  0.87050  Biso   1.000  C
  C63      1.0000 0.75030  0.61130  0.37050  Biso   1.000  C
  C64      1.0000 0.24970  0.11130  0.12950  Biso   1.000  C
  O1       1.0000 0.93770  0.21070  0.67460  Biso   1.000  O
  O2       1.0000 0.06230  0.71070  0.82540  Biso   1.000  O
  O3       1.0000 0.06230  0.78930  0.32540  Biso   1.000  O
  O4       1.0000 0.93770  0.28930  0.17460  Biso   1.000  O
  O5       1.0000 0.85300  0.10980  0.54030  Biso   1.000  O
  O6       1.0000 0.14700  0.60980  0.95970  Biso   1.000  O
  O7       1.0000 0.14700  0.89020  0.45970  Biso   1.000  O
  O8       1.0000 0.85300  0.39020  0.04030  Biso   1.000  O
  O9       1.0000 0.80560  0.10270  0.67290  Biso   1.000  O
  O10      1.0000 0.19440  0.60270  0.82710  Biso   1.000  O
  O11      1.0000 0.19440  0.89730  0.32710  Biso   1.000  O
  O12      1.0000 0.80560  0.39730  0.17290  Biso   1.000  O
  O13      1.0000 0.76500  0.24400  0.57270  Biso   1.000  O
  O14      1.0000 0.23500  0.74400  0.92730  Biso   1.000  O
  O15      1.0000 0.23500  0.75600  0.42730  Biso   1.000  O
  O16      1.0000 0.76500  0.25600  0.07270  Biso   1.000  O
  Cl1      1.0000 0.84077  0.16699  0.61491  Biso   1.000  Cl
  Cl2      1.0000 0.15923  0.66699  0.88509  Biso   1.000  Cl
  Cl3      1.0000 0.15923  0.83301  0.38509  Biso   1.000  Cl
  Cl4      1.0000 0.84077  0.33301  0.11491  Biso   1.000  Cl
  O17      1.0000 0.85210  0.05610  0.10110  Biso   1.000  O
  O18      1.0000 0.14790  0.55610  0.39890  Biso   1.000  O
  O19      1.0000 0.14790  0.94390  0.89890  Biso   1.000  O
  O20      1.0000 0.85210  0.44390  0.60110  Biso   1.000  O
  H73      1.0000 0.83700  0.03200  0.04100  Biso   1.000  H
  H74      1.0000 0.16300  0.53200  0.45900  Biso   1.000  H
  H75      1.0000 0.16300  0.96800  0.95900  Biso   1.000  H
  H76      1.0000 0.83700  0.46800  0.54100  Biso   1.000  H
  H77      1.0000 0.80900  0.10800  0.09300  Biso   1.000  H
  H78      1.0000 0.19100  0.60800  0.40700  Biso   1.000  H
  H79      1.0000 0.19100  0.89200  0.90700  Biso   1.000  H
  H80      1.0000 0.80900  0.39200  0.59300  Biso   1.000  H
