data_image0
_cell_length_a       11.648
_cell_length_b       19.869
_cell_length_c       9.7035
_cell_angle_alpha    90
_cell_angle_beta     99.535
_cell_angle_gamma    90

_symmetry_space_group_name_H-M    "P 1"
_symmetry_int_tables_number       1

loop_
  _symmetry_equiv_pos_as_xyz
  'x, y, z'

loop_
  _atom_site_label
  _atom_site_occupancy
  _atom_site_fract_x
  _atom_site_fract_y
  _atom_site_fract_z
  _atom_site_thermal_displace_type
  _atom_site_B_iso_or_equiv
  _atom_site_type_symbol
  Cu1      1.0000 0.26570  0.15396  0.66781  Biso   1.000  Cu
  Cu2      1.0000 0.73430  0.65396  0.83219  Biso   1.000  Cu
  Cu3      1.0000 0.73430  0.84604  0.33219  Biso   1.000  Cu
  Cu4      1.0000 0.26570  0.34604  0.16781  Biso   1.000  Cu
  N1       1.0000 0.43390  0.16310  0.68430  Biso   1.000  N
  N2       1.0000 0.56610  0.66310  0.81570  Biso   1.000  N
  N3       1.0000 0.56610  0.83690  0.31570  Biso   1.000  N
  N4       1.0000 0.43390  0.33690  0.18430  Biso   1.000  N
  N5       1.0000 0.10360  0.12740  0.66880  Biso   1.000  N
  N6       1.0000 0.89640  0.62740  0.83120  Biso   1.000  N
  N7       1.0000 0.89640  0.87260  0.33120  Biso   1.000  N
  N8       1.0000 0.10360  0.37260  0.16880  Biso   1.000  N
  O1       1.0000 0.26900  0.08059  0.53090  Biso   1.000  O
  O2       1.0000 0.73100  0.58059  0.96910  Biso   1.000  O
  O3       1.0000 0.73100  0.91941  0.46910  Biso   1.000  O
  O4       1.0000 0.26900  0.41941  0.03090  Biso   1.000  O
  O5       1.0000 0.21000  0.21289  0.46640  Biso   1.000  O
  O6       1.0000 0.79000  0.71289  0.03360  Biso   1.000  O
  O7       1.0000 0.79000  0.78711  0.53360  Biso   1.000  O
  O8       1.0000 0.21000  0.28711  0.96640  Biso   1.000  O
  O9       1.0000 0.24760  0.23229  0.78400  Biso   1.000  O
  O10      1.0000 0.75240  0.73229  0.71600  Biso   1.000  O
  O11      1.0000 0.75240  0.76771  0.21600  Biso   1.000  O
  O12      1.0000 0.24760  0.26771  0.28400  Biso   1.000  O
  C1       1.0000 0.51120  0.20300  0.76160  Biso   1.000  C
  C2       1.0000 0.48880  0.70300  0.73840  Biso   1.000  C
  C3       1.0000 0.48880  0.79700  0.23840  Biso   1.000  C
  C4       1.0000 0.51120  0.29700  0.26160  Biso   1.000  C
  N9       1.0000 0.49340  0.12860  0.59650  Biso   1.000  N
  N10      1.0000 0.50660  0.62860  0.90350  Biso   1.000  N
  N11      1.0000 0.50660  0.87140  0.40350  Biso   1.000  N
  N12      1.0000 0.49340  0.37140  0.09650  Biso   1.000  N
  C5       1.0000 0.03200  0.12470  0.76290  Biso   1.000  C
  C6       1.0000 0.96800  0.62470  0.73710  Biso   1.000  C
  C7       1.0000 0.96800  0.87530  0.23710  Biso   1.000  C
  C8       1.0000 0.03200  0.37530  0.26290  Biso   1.000  C
  N13      1.0000 0.04280  0.10520  0.54580  Biso   1.000  N
  N14      1.0000 0.95720  0.60520  0.95420  Biso   1.000  N
  N15      1.0000 0.95720  0.89480  0.45420  Biso   1.000  N
  N16      1.0000 0.04280  0.39480  0.04580  Biso   1.000  N
  Cu5      1.0000 0.41255  0.06568  0.45724  Biso   1.000  Cu
  Cu6      1.0000 0.58745  0.56568  0.04276  Biso   1.000  Cu
  Cu7      1.0000 0.58745  0.93432  0.54276  Biso   1.000  Cu
  Cu8      1.0000 0.41255  0.43432  0.95724  Biso   1.000  Cu
  Cu9      1.0000 0.13018  0.10053  0.38980  Biso   1.000  Cu
  Cu10     1.0000 0.86982  0.60053  0.11020  Biso   1.000  Cu
  Cu11     1.0000 0.86982  0.89947  0.61020  Biso   1.000  Cu
  Cu12     1.0000 0.13018  0.39947  0.88980  Biso   1.000  Cu
  H1       1.0000 0.26700  0.04450  0.57700  Biso   1.000  H
  H2       1.0000 0.73300  0.54450  0.92300  Biso   1.000  H
  H3       1.0000 0.73300  0.95550  0.42300  Biso   1.000  H
  H4       1.0000 0.26700  0.45550  0.07700  Biso   1.000  H
  C9       1.0000 0.25520  0.23870  0.91720  Biso   1.000  C
  C10      1.0000 0.74480  0.73870  0.58280  Biso   1.000  C
  C11      1.0000 0.74480  0.76130  0.08280  Biso   1.000  C
  C12      1.0000 0.25520  0.26130  0.41720  Biso   1.000  C
  H5       1.0000 0.49380  0.23240  0.82990  Biso   1.000  H
  H6       1.0000 0.50620  0.73240  0.67010  Biso   1.000  H
  H7       1.0000 0.50620  0.76760  0.17010  Biso   1.000  H
  H8       1.0000 0.49380  0.26760  0.32990  Biso   1.000  H
  C13      1.0000 0.62010  0.19490  0.72670  Biso   1.000  C
  C14      1.0000 0.37990  0.69490  0.77330  Biso   1.000  C
  C15      1.0000 0.37990  0.80510  0.27330  Biso   1.000  C
  C16      1.0000 0.62010  0.30510  0.22670  Biso   1.000  C
  C17      1.0000 0.60460  0.14710  0.62410  Biso   1.000  C
  C18      1.0000 0.39540  0.64710  0.87590  Biso   1.000  C
  C19      1.0000 0.39540  0.85290  0.37590  Biso   1.000  C
  C20      1.0000 0.60460  0.35290  0.12410  Biso   1.000  C
  C21      1.0000 0.92500  0.10100  0.70320  Biso   1.000  C
  C22      1.0000 0.07500  0.60100  0.79680  Biso   1.000  C
  C23      1.0000 0.07500  0.89900  0.29680  Biso   1.000  C
  C24      1.0000 0.92500  0.39900  0.20320  Biso   1.000  C
  H9       1.0000 0.05210  0.13730  0.85610  Biso   1.000  H
  H10      1.0000 0.94790  0.63730  0.64390  Biso   1.000  H
  H11      1.0000 0.94790  0.86270  0.14390  Biso   1.000  H
  H12      1.0000 0.05210  0.36270  0.35610  Biso   1.000  H
  C25      1.0000 0.93510  0.08860  0.56570  Biso   1.000  C
  C26      1.0000 0.06490  0.58860  0.93430  Biso   1.000  C
  C27      1.0000 0.06490  0.91140  0.43430  Biso   1.000  C
  C28      1.0000 0.93510  0.41140  0.06570  Biso   1.000  C
  N17      1.0000 0.31930  0.03730  0.28030  Biso   1.000  N
  N18      1.0000 0.68070  0.53730  0.21970  Biso   1.000  N
  N19      1.0000 0.68070  0.96270  0.71970  Biso   1.000  N
  N20      1.0000 0.31930  0.46270  0.78030  Biso   1.000  N
  O13      1.0000 0.55920  0.03354  0.40600  Biso   1.000  O
  O14      1.0000 0.44080  0.53354  0.09400  Biso   1.000  O
  O15      1.0000 0.44080  0.96646  0.59400  Biso   1.000  O
  O16      1.0000 0.55920  0.46646  0.90600  Biso   1.000  O
  N21      1.0000 0.20940  0.06080  0.24750  Biso   1.000  N
  N22      1.0000 0.79060  0.56080  0.25250  Biso   1.000  N
  N23      1.0000 0.79060  0.93920  0.75250  Biso   1.000  N
  N24      1.0000 0.20940  0.43920  0.74750  Biso   1.000  N
  N25      1.0000 0.01040  0.14490  0.24690  Biso   1.000  N
  N26      1.0000 0.98960  0.64490  0.25310  Biso   1.000  N
  N27      1.0000 0.98960  0.85510  0.75310  Biso   1.000  N
  N28      1.0000 0.01040  0.35510  0.74690  Biso   1.000  N
  C29      1.0000 0.31930  0.18600  0.00900  Biso   1.000  C
  C30      1.0000 0.68070  0.68600  0.49100  Biso   1.000  C
  C31      1.0000 0.68070  0.81400  0.99100  Biso   1.000  C
  C32      1.0000 0.31930  0.31400  0.50900  Biso   1.000  C
  H13      1.0000 0.68860  0.21690  0.76430  Biso   1.000  H
  H14      1.0000 0.31140  0.71690  0.73570  Biso   1.000  H
  H15      1.0000 0.31140  0.78310  0.23570  Biso   1.000  H
  H16      1.0000 0.68860  0.28310  0.26430  Biso   1.000  H
  H17      1.0000 0.66330  0.12990  0.57990  Biso   1.000  H
  H18      1.0000 0.33670  0.62990  0.92010  Biso   1.000  H
  H19      1.0000 0.33670  0.87010  0.42010  Biso   1.000  H
  H20      1.0000 0.66330  0.37010  0.07990  Biso   1.000  H
  H21      1.0000 0.85990  0.09450  0.74570  Biso   1.000  H
  H22      1.0000 0.14010  0.59450  0.75430  Biso   1.000  H
  H23      1.0000 0.14010  0.90550  0.25430  Biso   1.000  H
  H24      1.0000 0.85990  0.40550  0.24570  Biso   1.000  H
  H25      1.0000 0.87660  0.07160  0.49770  Biso   1.000  H
  H26      1.0000 0.12340  0.57160  0.00230  Biso   1.000  H
  H27      1.0000 0.12340  0.92840  0.50230  Biso   1.000  H
  H28      1.0000 0.87660  0.42840  0.99770  Biso   1.000  H
  C33      1.0000 0.34490  0.00400  0.16920  Biso   1.000  C
  C34      1.0000 0.65510  0.50400  0.33080  Biso   1.000  C
  C35      1.0000 0.65510  0.99600  0.83080  Biso   1.000  C
  C36      1.0000 0.34490  0.49600  0.66920  Biso   1.000  C
  C37      1.0000 0.62400  0.05570  0.32060  Biso   1.000  C
  C38      1.0000 0.37600  0.55570  0.17940  Biso   1.000  C
  C39      1.0000 0.37600  0.94430  0.67940  Biso   1.000  C
  C40      1.0000 0.62400  0.44430  0.82060  Biso   1.000  C
  C41      1.0000 0.16710  0.04140  0.11490  Biso   1.000  C
  C42      1.0000 0.83290  0.54140  0.38510  Biso   1.000  C
  C43      1.0000 0.83290  0.95860  0.88510  Biso   1.000  C
  C44      1.0000 0.16710  0.45860  0.61490  Biso   1.000  C
  C45      1.0000 0.90480  0.12930  0.18820  Biso   1.000  C
  C46      1.0000 0.09520  0.62930  0.31180  Biso   1.000  C
  C47      1.0000 0.09520  0.87070  0.81180  Biso   1.000  C
  C48      1.0000 0.90480  0.37070  0.68820  Biso   1.000  C
  N29      1.0000 0.03820  0.19940  0.17860  Biso   1.000  N
  N30      1.0000 0.96180  0.69940  0.32140  Biso   1.000  N
  N31      1.0000 0.96180  0.80060  0.82140  Biso   1.000  N
  N32      1.0000 0.03820  0.30060  0.67860  Biso   1.000  N
  H29      1.0000 0.39800  0.20050  0.03970  Biso   1.000  H
  H30      1.0000 0.60200  0.70050  0.46030  Biso   1.000  H
  H31      1.0000 0.60200  0.79950  0.96030  Biso   1.000  H
  H32      1.0000 0.39800  0.29950  0.53970  Biso   1.000  H
  H33      1.0000 0.31940  0.14470  0.95770  Biso   1.000  H
  H34      1.0000 0.68060  0.64470  0.54230  Biso   1.000  H
  H35      1.0000 0.68060  0.85530  0.04230  Biso   1.000  H
  H36      1.0000 0.31940  0.35530  0.45770  Biso   1.000  H
  H37      1.0000 0.28170  0.17900  0.08880  Biso   1.000  H
  H38      1.0000 0.71830  0.67900  0.41120  Biso   1.000  H
  H39      1.0000 0.71830  0.82100  0.91120  Biso   1.000  H
  H40      1.0000 0.28170  0.32100  0.58880  Biso   1.000  H
  H41      1.0000 0.41560  0.98310  0.16460  Biso   1.000  H
  H42      1.0000 0.58440  0.48310  0.33540  Biso   1.000  H
  H43      1.0000 0.58440  0.01690  0.83540  Biso   1.000  H
  H44      1.0000 0.41560  0.51690  0.66460  Biso   1.000  H
  C49      1.0000 0.25130  0.00550  0.06370  Biso   1.000  C
  C50      1.0000 0.74870  0.50550  0.43630  Biso   1.000  C
  C51      1.0000 0.74870  0.99450  0.93630  Biso   1.000  C
  C52      1.0000 0.25130  0.49450  0.56370  Biso   1.000  C
  C53      1.0000 0.58330  0.11710  0.23540  Biso   1.000  C
  C54      1.0000 0.41670  0.61710  0.26460  Biso   1.000  C
  C55      1.0000 0.41670  0.88290  0.76460  Biso   1.000  C
  C56      1.0000 0.58330  0.38290  0.73540  Biso   1.000  C
  O17      1.0000 0.71620  0.02887  0.30860  Biso   1.000  O
  O18      1.0000 0.28380  0.52887  0.19140  Biso   1.000  O
  O19      1.0000 0.28380  0.97113  0.69140  Biso   1.000  O
  O20      1.0000 0.71620  0.47113  0.80860  Biso   1.000  O
  H45      1.0000 0.09310  0.05090  0.06650  Biso   1.000  H
  H46      1.0000 0.90690  0.55090  0.43350  Biso   1.000  H
  H47      1.0000 0.90690  0.94910  0.93350  Biso   1.000  H
  H48      1.0000 0.09310  0.44910  0.56650  Biso   1.000  H
  C57      1.0000 0.86310  0.17420  0.08110  Biso   1.000  C
  C58      1.0000 0.13690  0.67420  0.41890  Biso   1.000  C
  C59      1.0000 0.13690  0.82580  0.91890  Biso   1.000  C
  C60      1.0000 0.86310  0.32580  0.58110  Biso   1.000  C
  H49      1.0000 0.86280  0.09300  0.21440  Biso   1.000  H
  H50      1.0000 0.13720  0.59300  0.28560  Biso   1.000  H
  H51      1.0000 0.13720  0.90700  0.78560  Biso   1.000  H
  H52      1.0000 0.86280  0.40700  0.71440  Biso   1.000  H
  C61      1.0000 0.95180  0.21830  0.07980  Biso   1.000  C
  C62      1.0000 0.04820  0.71830  0.42020  Biso   1.000  C
  C63      1.0000 0.04820  0.78170  0.92020  Biso   1.000  C
  C64      1.0000 0.95180  0.28170  0.57980  Biso   1.000  C
  H53      1.0000 0.10420  0.21970  0.19670  Biso   1.000  H
  H54      1.0000 0.89580  0.71970  0.30330  Biso   1.000  H
  H55      1.0000 0.89580  0.78030  0.80330  Biso   1.000  H
  H56      1.0000 0.10420  0.28030  0.69670  Biso   1.000  H
  H57      1.0000 0.24580  0.98620  0.97560  Biso   1.000  H
  H58      1.0000 0.75420  0.48620  0.52440  Biso   1.000  H
  H59      1.0000 0.75420  0.01380  0.02440  Biso   1.000  H
  H60      1.0000 0.24580  0.51380  0.47560  Biso   1.000  H
  H61      1.0000 0.64880  0.14550  0.22850  Biso   1.000  H
  H62      1.0000 0.35120  0.64550  0.27150  Biso   1.000  H
  H63      1.0000 0.35120  0.85450  0.77150  Biso   1.000  H
  H64      1.0000 0.64880  0.35450  0.72850  Biso   1.000  H
  H65      1.0000 0.52820  0.14130  0.27980  Biso   1.000  H
  H66      1.0000 0.47180  0.64130  0.22020  Biso   1.000  H
  H67      1.0000 0.47180  0.85870  0.72020  Biso   1.000  H
  H68      1.0000 0.52820  0.35870  0.77980  Biso   1.000  H
  H69      1.0000 0.54700  0.10350  0.14350  Biso   1.000  H
  H70      1.0000 0.45300  0.60350  0.35650  Biso   1.000  H
  H71      1.0000 0.45300  0.89650  0.85650  Biso   1.000  H
  H72      1.0000 0.54700  0.39650  0.64350  Biso   1.000  H
  H73      1.0000 0.79090  0.17400  0.02350  Biso   1.000  H
  H74      1.0000 0.20910  0.67400  0.47650  Biso   1.000  H
  H75      1.0000 0.20910  0.82600  0.97650  Biso   1.000  H
  H76      1.0000 0.79090  0.32600  0.52350  Biso   1.000  H
  H77      1.0000 0.95200  0.25500  0.02050  Biso   1.000  H
  H78      1.0000 0.04800  0.75500  0.47950  Biso   1.000  H
  H79      1.0000 0.04800  0.74500  0.97950  Biso   1.000  H
  H80      1.0000 0.95200  0.24500  0.52050  Biso   1.000  H
