data_image0
_cell_length_a       10.55
_cell_length_b       10.55
_cell_length_c       23.15
_cell_angle_alpha    90
_cell_angle_beta     90
_cell_angle_gamma    90

_symmetry_space_group_name_H-M    "P 1"
_symmetry_int_tables_number       1

loop_
  _symmetry_equiv_pos_as_xyz
  'x, y, z'

loop_
  _atom_site_label
  _atom_site_occupancy
  _atom_site_fract_x
  _atom_site_fract_y
  _atom_site_fract_z
  _atom_site_thermal_displace_type
  _atom_site_B_iso_or_equiv
  _atom_site_type_symbol
  Cu1      1.0000 0.69480  0.77680  0.20740  Biso   1.000  Cu
  Cu2      1.0000 0.30520  0.22320  0.70740  Biso   1.000  Cu
  Cu3      1.0000 0.22320  0.69480  0.95740  Biso   1.000  Cu
  Cu4      1.0000 0.77680  0.30520  0.45740  Biso   1.000  Cu
  Co1      1.0000 0.68590  0.28110  0.23870  Biso   1.000  Co
  Co2      1.0000 0.31410  0.71890  0.73870  Biso   1.000  Co
  Co3      1.0000 0.71890  0.68590  0.98870  Biso   1.000  Co
  Co4      1.0000 0.28110  0.31410  0.48870  Biso   1.000  Co
  Co5      1.0000 0.19740  0.77260  0.17006  Biso   1.000  Co
  Co6      1.0000 0.80260  0.22740  0.67006  Biso   1.000  Co
  Co7      1.0000 0.22740  0.19740  0.92006  Biso   1.000  Co
  Co8      1.0000 0.77260  0.80260  0.42006  Biso   1.000  Co
  O1       1.0000 0.62150  0.60770  0.19850  Biso   1.000  O
  O2       1.0000 0.37850  0.39230  0.69850  Biso   1.000  O
  O3       1.0000 0.39230  0.62150  0.94850  Biso   1.000  O
  O4       1.0000 0.60770  0.37850  0.44850  Biso   1.000  O
  O5       1.0000 0.59870  0.61100  0.29240  Biso   1.000  O
  O6       1.0000 0.40130  0.38900  0.79240  Biso   1.000  O
  O7       1.0000 0.38900  0.59870  0.04240  Biso   1.000  O
  O8       1.0000 0.61100  0.40130  0.54240  Biso   1.000  O
  O9       1.0000 0.75900  0.94260  0.23210  Biso   1.000  O
  O10      1.0000 0.24100  0.05740  0.73210  Biso   1.000  O
  O11      1.0000 0.05740  0.75900  0.98210  Biso   1.000  O
  O12      1.0000 0.94260  0.24100  0.48210  Biso   1.000  O
  O13      1.0000 0.79330  0.00620  0.14100  Biso   1.000  O
  O14      1.0000 0.20670  0.99380  0.64100  Biso   1.000  O
  O15      1.0000 0.99380  0.79330  0.89100  Biso   1.000  O
  O16      1.0000 0.00620  0.20670  0.39100  Biso   1.000  O
  O17      1.0000 0.54090  0.84740  0.17430  Biso   1.000  O
  O18      1.0000 0.45910  0.15260  0.67430  Biso   1.000  O
  O19      1.0000 0.15260  0.54090  0.92430  Biso   1.000  O
  O20      1.0000 0.84740  0.45910  0.42430  Biso   1.000  O
  O21      1.0000 0.45880  0.90090  0.25870  Biso   1.000  O
  O22      1.0000 0.54120  0.09910  0.75870  Biso   1.000  O
  O23      1.0000 0.09910  0.45880  0.00870  Biso   1.000  O
  O24      1.0000 0.90090  0.54120  0.50870  Biso   1.000  O
  O25      1.0000 0.86180  0.70790  0.22600  Biso   1.000  O
  O26      1.0000 0.13820  0.29210  0.72600  Biso   1.000  O
  O27      1.0000 0.29210  0.86180  0.97600  Biso   1.000  O
  O28      1.0000 0.70790  0.13820  0.47600  Biso   1.000  O
  O29      1.0000 0.86930  0.67110  0.13230  Biso   1.000  O
  O30      1.0000 0.13070  0.32890  0.63230  Biso   1.000  O
  O31      1.0000 0.32890  0.86930  0.88230  Biso   1.000  O
  O32      1.0000 0.67110  0.13070  0.38230  Biso   1.000  O
  C1       1.0000 0.55550  0.42000  0.24430  Biso   1.000  C
  C2       1.0000 0.44450  0.58000  0.74430  Biso   1.000  C
  C3       1.0000 0.58000  0.55550  0.99430  Biso   1.000  C
  C4       1.0000 0.42000  0.44450  0.49430  Biso   1.000  C
  C5       1.0000 0.53670  0.35080  0.19350  Biso   1.000  C
  C6       1.0000 0.46330  0.64920  0.69350  Biso   1.000  C
  C7       1.0000 0.64920  0.53670  0.94350  Biso   1.000  C
  C8       1.0000 0.35080  0.46330  0.44350  Biso   1.000  C
  C9       1.0000 0.51210  0.22000  0.21080  Biso   1.000  C
  C10      1.0000 0.48790  0.78000  0.71080  Biso   1.000  C
  C11      1.0000 0.78000  0.51210  0.96080  Biso   1.000  C
  C12      1.0000 0.22000  0.48790  0.46080  Biso   1.000  C
  C13      1.0000 0.52000  0.21700  0.27300  Biso   1.000  C
  C14      1.0000 0.48000  0.78300  0.77300  Biso   1.000  C
  C15      1.0000 0.78300  0.52000  0.02300  Biso   1.000  C
  C16      1.0000 0.21700  0.48000  0.52300  Biso   1.000  C
  C17      1.0000 0.54490  0.33700  0.29230  Biso   1.000  C
  C18      1.0000 0.45510  0.66300  0.79230  Biso   1.000  C
  C19      1.0000 0.66300  0.54490  0.04230  Biso   1.000  C
  C20      1.0000 0.33700  0.45510  0.54230  Biso   1.000  C
  C21      1.0000 0.59270  0.55720  0.24750  Biso   1.000  C
  C22      1.0000 0.40730  0.44280  0.74750  Biso   1.000  C
  C23      1.0000 0.44280  0.59270  0.99750  Biso   1.000  C
  C24      1.0000 0.55720  0.40730  0.49750  Biso   1.000  C
  C25      1.0000 0.81870  0.14960  0.21740  Biso   1.000  C
  C26      1.0000 0.18130  0.85040  0.71740  Biso   1.000  C
  C27      1.0000 0.85040  0.81870  0.96740  Biso   1.000  C
  C28      1.0000 0.14960  0.18130  0.46740  Biso   1.000  C
  C29      1.0000 0.82740  0.18100  0.27520  Biso   1.000  C
  C30      1.0000 0.17260  0.81900  0.77520  Biso   1.000  C
  C31      1.0000 0.81900  0.82740  0.02520  Biso   1.000  C
  C32      1.0000 0.18100  0.17260  0.52520  Biso   1.000  C
  C33      1.0000 0.84900  0.31500  0.27890  Biso   1.000  C
  C34      1.0000 0.15100  0.68500  0.77890  Biso   1.000  C
  C35      1.0000 0.68500  0.84900  0.02890  Biso   1.000  C
  C36      1.0000 0.31500  0.15100  0.52890  Biso   1.000  C
  C37      1.0000 0.85500  0.36600  0.22520  Biso   1.000  C
  C38      1.0000 0.14500  0.63400  0.72520  Biso   1.000  C
  C39      1.0000 0.63400  0.85500  0.97520  Biso   1.000  C
  C40      1.0000 0.36600  0.14500  0.47520  Biso   1.000  C
  C41      1.0000 0.83760  0.26300  0.18610  Biso   1.000  C
  C42      1.0000 0.16240  0.73700  0.68610  Biso   1.000  C
  C43      1.0000 0.73700  0.83760  0.93610  Biso   1.000  C
  C44      1.0000 0.26300  0.16240  0.43610  Biso   1.000  C
  C45      1.0000 0.78810  0.02070  0.19350  Biso   1.000  C
  C46      1.0000 0.21190  0.97930  0.69350  Biso   1.000  C
  C47      1.0000 0.97930  0.78810  0.94350  Biso   1.000  C
  C48      1.0000 0.02070  0.21190  0.44350  Biso   1.000  C
  C49      1.0000 0.33210  0.90710  0.17450  Biso   1.000  C
  C50      1.0000 0.66790  0.09290  0.67450  Biso   1.000  C
  C51      1.0000 0.09290  0.33210  0.92450  Biso   1.000  C
  C52      1.0000 0.90710  0.66790  0.42450  Biso   1.000  C
  C53      1.0000 0.21900  0.95160  0.19920  Biso   1.000  C
  C54      1.0000 0.78100  0.04840  0.69920  Biso   1.000  C
  C55      1.0000 0.04840  0.21900  0.94920  Biso   1.000  C
  C56      1.0000 0.95160  0.78100  0.44920  Biso   1.000  C
  C57      1.0000 0.12100  0.94800  0.15540  Biso   1.000  C
  C58      1.0000 0.87900  0.05200  0.65540  Biso   1.000  C
  C59      1.0000 0.05200  0.12100  0.90540  Biso   1.000  C
  C60      1.0000 0.94800  0.87900  0.40540  Biso   1.000  C
  C61      1.0000 0.17700  0.89900  0.10370  Biso   1.000  C
  C62      1.0000 0.82300  0.10100  0.60370  Biso   1.000  C
  C63      1.0000 0.10100  0.17700  0.85370  Biso   1.000  C
  C64      1.0000 0.89900  0.82300  0.35370  Biso   1.000  C
  C65      1.0000 0.30690  0.87900  0.11530  Biso   1.000  C
  C66      1.0000 0.69310  0.12100  0.61530  Biso   1.000  C
  C67      1.0000 0.12100  0.30690  0.86530  Biso   1.000  C
  C68      1.0000 0.87900  0.69310  0.36530  Biso   1.000  C
  C69      1.0000 0.45190  0.88450  0.20470  Biso   1.000  C
  C70      1.0000 0.54810  0.11550  0.70470  Biso   1.000  C
  C71      1.0000 0.11550  0.45190  0.95470  Biso   1.000  C
  C72      1.0000 0.88450  0.54810  0.45470  Biso   1.000  C
  C73      1.0000 0.05680  0.64640  0.18650  Biso   1.000  C
  C74      1.0000 0.94320  0.35360  0.68650  Biso   1.000  C
  C75      1.0000 0.35360  0.05680  0.93650  Biso   1.000  C
  C76      1.0000 0.64640  0.94320  0.43650  Biso   1.000  C
  C77      1.0000 0.13500  0.60330  0.13920  Biso   1.000  C
  C78      1.0000 0.86500  0.39670  0.63920  Biso   1.000  C
  C79      1.0000 0.39670  0.13500  0.88920  Biso   1.000  C
  C80      1.0000 0.60330  0.86500  0.38920  Biso   1.000  C
  C81      1.0000 0.26100  0.59200  0.16160  Biso   1.000  C
  C82      1.0000 0.73900  0.40800  0.66160  Biso   1.000  C
  C83      1.0000 0.40800  0.26100  0.91160  Biso   1.000  C
  C84      1.0000 0.59200  0.73900  0.41160  Biso   1.000  C
  C85      1.0000 0.25900  0.62900  0.22010  Biso   1.000  C
  C86      1.0000 0.74100  0.37100  0.72010  Biso   1.000  C
  C87      1.0000 0.37100  0.25900  0.97010  Biso   1.000  C
  C88      1.0000 0.62900  0.74100  0.47010  Biso   1.000  C
  C89      1.0000 0.13300  0.66400  0.23660  Biso   1.000  C
  C90      1.0000 0.86700  0.33600  0.73660  Biso   1.000  C
  C91      1.0000 0.33600  0.13300  0.98660  Biso   1.000  C
  C92      1.0000 0.66400  0.86700  0.48660  Biso   1.000  C
  C93      1.0000 0.91860  0.67790  0.17960  Biso   1.000  C
  C94      1.0000 0.08140  0.32210  0.67960  Biso   1.000  C
  C95      1.0000 0.32210  0.91860  0.92960  Biso   1.000  C
  C96      1.0000 0.67790  0.08140  0.42960  Biso   1.000  C
  H1       1.0000 0.53940  0.38270  0.15520  Biso   1.000  H
  H2       1.0000 0.46060  0.61730  0.65520  Biso   1.000  H
  H3       1.0000 0.61730  0.53940  0.90520  Biso   1.000  H
  H4       1.0000 0.38270  0.46060  0.40520  Biso   1.000  H
  H5       1.0000 0.49450  0.15040  0.18590  Biso   1.000  H
  H6       1.0000 0.50550  0.84960  0.68590  Biso   1.000  H
  H7       1.0000 0.84960  0.49450  0.93590  Biso   1.000  H
  H8       1.0000 0.15040  0.50550  0.43590  Biso   1.000  H
  H9       1.0000 0.50910  0.14360  0.29660  Biso   1.000  H
  H10      1.0000 0.49090  0.85640  0.79660  Biso   1.000  H
  H11      1.0000 0.85640  0.50910  0.04660  Biso   1.000  H
  H12      1.0000 0.14360  0.49090  0.54660  Biso   1.000  H
  H13      1.0000 0.55380  0.36120  0.33160  Biso   1.000  H
  H14      1.0000 0.44620  0.63880  0.83160  Biso   1.000  H
  H15      1.0000 0.63880  0.55380  0.08160  Biso   1.000  H
  H16      1.0000 0.36120  0.44620  0.58160  Biso   1.000  H
  H17      1.0000 0.82010  0.12450  0.30690  Biso   1.000  H
  H18      1.0000 0.17990  0.87550  0.80690  Biso   1.000  H
  H19      1.0000 0.87550  0.82010  0.05690  Biso   1.000  H
  H20      1.0000 0.12450  0.17990  0.55690  Biso   1.000  H
  H21      1.0000 0.85890  0.36110  0.31380  Biso   1.000  H
  H22      1.0000 0.14110  0.63890  0.81380  Biso   1.000  H
  H23      1.0000 0.63890  0.85890  0.06380  Biso   1.000  H
  H24      1.0000 0.36110  0.14110  0.56380  Biso   1.000  H
  H25      1.0000 0.86700  0.45220  0.21570  Biso   1.000  H
  H26      1.0000 0.13300  0.54780  0.71570  Biso   1.000  H
  H27      1.0000 0.54780  0.86700  0.96570  Biso   1.000  H
  H28      1.0000 0.45220  0.13300  0.46570  Biso   1.000  H
  H29      1.0000 0.83870  0.27010  0.14520  Biso   1.000  H
  H30      1.0000 0.16130  0.72990  0.64520  Biso   1.000  H
  H31      1.0000 0.72990  0.83870  0.89520  Biso   1.000  H
  H32      1.0000 0.27010  0.16130  0.39520  Biso   1.000  H
  H33      1.0000 0.20840  0.97910  0.23800  Biso   1.000  H
  H34      1.0000 0.79160  0.02090  0.73800  Biso   1.000  H
  H35      1.0000 0.02090  0.20840  0.98800  Biso   1.000  H
  H36      1.0000 0.97910  0.79160  0.48800  Biso   1.000  H
  H37      1.0000 0.03500  0.97410  0.16000  Biso   1.000  H
  H38      1.0000 0.96500  0.02590  0.66000  Biso   1.000  H
  H39      1.0000 0.02590  0.03500  0.91000  Biso   1.000  H
  H40      1.0000 0.97410  0.96500  0.41000  Biso   1.000  H
  H41      1.0000 0.13460  0.88250  0.06830  Biso   1.000  H
  H42      1.0000 0.86540  0.11750  0.56830  Biso   1.000  H
  H43      1.0000 0.11750  0.13460  0.81830  Biso   1.000  H
  H44      1.0000 0.88250  0.86540  0.31830  Biso   1.000  H
  H45      1.0000 0.36790  0.85050  0.08790  Biso   1.000  H
  H46      1.0000 0.63210  0.14950  0.58790  Biso   1.000  H
  H47      1.0000 0.14950  0.36790  0.83790  Biso   1.000  H
  H48      1.0000 0.85050  0.63210  0.33790  Biso   1.000  H
  H49      1.0000 0.10860  0.58590  0.10090  Biso   1.000  H
  H50      1.0000 0.89140  0.41410  0.60090  Biso   1.000  H
  H51      1.0000 0.41410  0.10860  0.85090  Biso   1.000  H
  H52      1.0000 0.58590  0.89140  0.35090  Biso   1.000  H
  H53      1.0000 0.33300  0.56470  0.14060  Biso   1.000  H
  H54      1.0000 0.66700  0.43530  0.64060  Biso   1.000  H
  H55      1.0000 0.43530  0.33300  0.89060  Biso   1.000  H
  H56      1.0000 0.56470  0.66700  0.39060  Biso   1.000  H
  H57      1.0000 0.33040  0.63000  0.24490  Biso   1.000  H
  H58      1.0000 0.66960  0.37000  0.74490  Biso   1.000  H
  H59      1.0000 0.37000  0.33040  0.99490  Biso   1.000  H
  H60      1.0000 0.63000  0.66960  0.49490  Biso   1.000  H
  H61      1.0000 0.10540  0.69280  0.27340  Biso   1.000  H
  H62      1.0000 0.89460  0.30720  0.77340  Biso   1.000  H
  H63      1.0000 0.30720  0.10540  0.02340  Biso   1.000  H
  H64      1.0000 0.69280  0.89460  0.52340  Biso   1.000  H
  O33      1.0000 0.77800  0.17200  0.04480  Biso   1.000  O
  O34      1.0000 0.22200  0.82800  0.54480  Biso   1.000  O
  O35      1.0000 0.82800  0.77800  0.79480  Biso   1.000  O
  O36      1.0000 0.17200  0.22200  0.29480  Biso   1.000  O
  C97      1.0000 0.66200  0.19200  0.03770  Biso   1.000  C
  C98      1.0000 0.33800  0.80800  0.53770  Biso   1.000  C
  C99      1.0000 0.80800  0.66200  0.78770  Biso   1.000  C
  C100     1.0000 0.19200  0.33800  0.28770  Biso   1.000  C
  O37      1.0000 0.26400  0.89000  0.35000  Biso   1.000  O
  O38      1.0000 0.73600  0.11000  0.85000  Biso   1.000  O
  O39      1.0000 0.11000  0.26400  0.10000  Biso   1.000  O
  O40      1.0000 0.89000  0.73600  0.60000  Biso   1.000  O
  C101     1.0000 0.29800  0.77000  0.35600  Biso   1.000  C
  C102     1.0000 0.70200  0.23000  0.85600  Biso   1.000  C
  C103     1.0000 0.23000  0.29800  0.10600  Biso   1.000  C
  C104     1.0000 0.77000  0.70200  0.60600  Biso   1.000  C
