data_image0
_cell_length_a       11.6602
_cell_length_b       19.9062
_cell_length_c       9.6896
_cell_angle_alpha    90
_cell_angle_beta     99.576
_cell_angle_gamma    90

_symmetry_space_group_name_H-M    "P 1"
_symmetry_int_tables_number       1

loop_
  _symmetry_equiv_pos_as_xyz
  'x, y, z'

loop_
  _atom_site_label
  _atom_site_occupancy
  _atom_site_fract_x
  _atom_site_fract_y
  _atom_site_fract_z
  _atom_site_thermal_displace_type
  _atom_site_B_iso_or_equiv
  _atom_site_type_symbol
  Cu1      1.0000 0.08710  0.06582  0.04303  Biso   1.000  Cu
  Cu2      1.0000 0.91290  0.56582  0.45697  Biso   1.000  Cu
  Cu3      1.0000 0.91290  0.93418  0.95697  Biso   1.000  Cu
  Cu4      1.0000 0.08710  0.43418  0.54303  Biso   1.000  Cu
  Cu5      1.0000 0.23396  0.15425  0.83249  Biso   1.000  Cu
  Cu6      1.0000 0.76604  0.65425  0.66751  Biso   1.000  Cu
  Cu7      1.0000 0.76604  0.84575  0.16751  Biso   1.000  Cu
  Cu8      1.0000 0.23396  0.34575  0.33249  Biso   1.000  Cu
  Cu9      1.0000 0.36902  0.10079  0.11134  Biso   1.000  Cu
  Cu10     1.0000 0.63098  0.60079  0.38866  Biso   1.000  Cu
  Cu11     1.0000 0.63098  0.89921  0.88866  Biso   1.000  Cu
  Cu12     1.0000 0.36902  0.39921  0.61134  Biso   1.000  Cu
  O1       1.0000 0.23130  0.08105  0.97000  Biso   1.000  O
  O2       1.0000 0.76870  0.58105  0.53000  Biso   1.000  O
  O3       1.0000 0.76870  0.91895  0.03000  Biso   1.000  O
  O4       1.0000 0.23130  0.41895  0.47000  Biso   1.000  O
  H1       1.0000 0.24000  0.04830  0.91600  Biso   1.000  H
  H2       1.0000 0.76000  0.54830  0.58400  Biso   1.000  H
  H3       1.0000 0.76000  0.95170  0.08400  Biso   1.000  H
  H4       1.0000 0.24000  0.45170  0.41600  Biso   1.000  H
  O5       1.0000 0.25240  0.23310  0.71620  Biso   1.000  O
  O6       1.0000 0.74760  0.73310  0.78380  Biso   1.000  O
  O7       1.0000 0.74760  0.76690  0.28380  Biso   1.000  O
  O8       1.0000 0.25240  0.26690  0.21620  Biso   1.000  O
  O9       1.0000 0.29030  0.28687  0.53420  Biso   1.000  O
  O10      1.0000 0.70970  0.78687  0.96580  Biso   1.000  O
  O11      1.0000 0.70970  0.71313  0.46580  Biso   1.000  O
  O12      1.0000 0.29030  0.21313  0.03420  Biso   1.000  O
  O13      1.0000 0.94050  0.03360  0.09430  Biso   1.000  O
  O14      1.0000 0.05950  0.53360  0.40570  Biso   1.000  O
  O15      1.0000 0.05950  0.96640  0.90570  Biso   1.000  O
  O16      1.0000 0.94050  0.46640  0.59430  Biso   1.000  O
  O17      1.0000 0.78350  0.02912  0.19040  Biso   1.000  O
  O18      1.0000 0.21650  0.52912  0.30960  Biso   1.000  O
  O19      1.0000 0.21650  0.97088  0.80960  Biso   1.000  O
  O20      1.0000 0.78350  0.47088  0.69040  Biso   1.000  O
  N1       1.0000 0.39660  0.12681  0.83100  Biso   1.000  N
  N2       1.0000 0.60340  0.62681  0.66900  Biso   1.000  N
  N3       1.0000 0.60340  0.87319  0.16900  Biso   1.000  N
  N4       1.0000 0.39660  0.37319  0.33100  Biso   1.000  N
  N5       1.0000 0.45820  0.10487  0.95650  Biso   1.000  N
  N6       1.0000 0.54180  0.60487  0.54350  Biso   1.000  N
  N7       1.0000 0.54180  0.89513  0.04350  Biso   1.000  N
  N8       1.0000 0.45820  0.39513  0.45650  Biso   1.000  N
  N9       1.0000 0.06520  0.16418  0.81710  Biso   1.000  N
  N10      1.0000 0.93480  0.66418  0.68290  Biso   1.000  N
  N11      1.0000 0.93480  0.83582  0.18290  Biso   1.000  N
  N12      1.0000 0.06520  0.33582  0.31710  Biso   1.000  N
  N13      1.0000 0.00600  0.12854  0.90380  Biso   1.000  N
  N14      1.0000 0.99400  0.62854  0.59620  Biso   1.000  N
  N15      1.0000 0.99400  0.87146  0.09620  Biso   1.000  N
  N16      1.0000 0.00600  0.37146  0.40380  Biso   1.000  N
  N17      1.0000 0.17940  0.03796  0.22030  Biso   1.000  N
  N18      1.0000 0.82060  0.53796  0.27970  Biso   1.000  N
  N19      1.0000 0.82060  0.96204  0.77970  Biso   1.000  N
  N20      1.0000 0.17940  0.46204  0.72030  Biso   1.000  N
  N21      1.0000 0.29020  0.06092  0.25460  Biso   1.000  N
  N22      1.0000 0.70980  0.56092  0.24540  Biso   1.000  N
  N23      1.0000 0.70980  0.93908  0.74540  Biso   1.000  N
  N24      1.0000 0.29020  0.43908  0.75460  Biso   1.000  N
  N25      1.0000 0.48900  0.14511  0.25400  Biso   1.000  N
  N26      1.0000 0.51100  0.64511  0.24600  Biso   1.000  N
  N27      1.0000 0.51100  0.85489  0.74600  Biso   1.000  N
  N28      1.0000 0.48900  0.35489  0.75400  Biso   1.000  N
  N29      1.0000 0.46160  0.19948  0.32400  Biso   1.000  N
  N30      1.0000 0.53840  0.69948  0.17600  Biso   1.000  N
  N31      1.0000 0.53840  0.80052  0.67600  Biso   1.000  N
  N32      1.0000 0.46160  0.30052  0.82400  Biso   1.000  N
  H5       1.0000 0.40000  0.21800  0.29300  Biso   1.000  H
  H6       1.0000 0.60000  0.71800  0.20700  Biso   1.000  H
  H7       1.0000 0.60000  0.78200  0.70700  Biso   1.000  H
  H8       1.0000 0.40000  0.28200  0.79300  Biso   1.000  H
  C1       1.0000 0.56200  0.08860  0.93340  Biso   1.000  C
  C2       1.0000 0.43800  0.58860  0.56660  Biso   1.000  C
  C3       1.0000 0.43800  0.91140  0.06660  Biso   1.000  C
  C4       1.0000 0.56200  0.41140  0.43340  Biso   1.000  C
  H9       1.0000 0.62080  0.07170  0.00110  Biso   1.000  H
  H10      1.0000 0.37920  0.57170  0.49890  Biso   1.000  H
  H11      1.0000 0.37920  0.92830  0.99890  Biso   1.000  H
  H12      1.0000 0.62080  0.42830  0.50110  Biso   1.000  H
  C5       1.0000 0.57300  0.09960  0.79640  Biso   1.000  C
  C6       1.0000 0.42700  0.59960  0.70360  Biso   1.000  C
  C7       1.0000 0.42700  0.90040  0.20360  Biso   1.000  C
  C8       1.0000 0.57300  0.40040  0.29640  Biso   1.000  C
  H13      1.0000 0.63760  0.09200  0.75370  Biso   1.000  H
  H14      1.0000 0.36240  0.59200  0.74630  Biso   1.000  H
  H15      1.0000 0.36240  0.90800  0.24630  Biso   1.000  H
  H16      1.0000 0.63760  0.40800  0.25370  Biso   1.000  H
  C9       1.0000 0.46730  0.12440  0.73750  Biso   1.000  C
  C10      1.0000 0.53270  0.62440  0.76250  Biso   1.000  C
  C11      1.0000 0.53270  0.87560  0.26250  Biso   1.000  C
  C12      1.0000 0.46730  0.37560  0.23750  Biso   1.000  C
  H17      1.0000 0.44750  0.13770  0.64460  Biso   1.000  H
  H18      1.0000 0.55250  0.63770  0.85540  Biso   1.000  H
  H19      1.0000 0.55250  0.86230  0.35540  Biso   1.000  H
  H20      1.0000 0.44750  0.36230  0.14460  Biso   1.000  H
  C13      1.0000 0.98940  0.20370  0.73880  Biso   1.000  C
  C14      1.0000 0.01060  0.70370  0.76120  Biso   1.000  C
  C15      1.0000 0.01060  0.79630  0.26120  Biso   1.000  C
  C16      1.0000 0.98940  0.29630  0.23880  Biso   1.000  C
  H21      1.0000 0.00730  0.23310  0.67090  Biso   1.000  H
  H22      1.0000 0.99270  0.73310  0.82910  Biso   1.000  H
  H23      1.0000 0.99270  0.76690  0.32910  Biso   1.000  H
  H24      1.0000 0.00730  0.26690  0.17090  Biso   1.000  H
  C17      1.0000 0.87950  0.19480  0.77270  Biso   1.000  C
  C18      1.0000 0.12050  0.69480  0.72730  Biso   1.000  C
  C19      1.0000 0.12050  0.80520  0.22730  Biso   1.000  C
  C20      1.0000 0.87950  0.30520  0.27270  Biso   1.000  C
  H25      1.0000 0.81070  0.21610  0.73370  Biso   1.000  H
  H26      1.0000 0.18930  0.71610  0.76630  Biso   1.000  H
  H27      1.0000 0.18930  0.78390  0.26630  Biso   1.000  H
  H28      1.0000 0.81070  0.28390  0.23370  Biso   1.000  H
  C21      1.0000 0.89550  0.14750  0.87700  Biso   1.000  C
  C22      1.0000 0.10450  0.64750  0.62300  Biso   1.000  C
  C23      1.0000 0.10450  0.85250  0.12300  Biso   1.000  C
  C24      1.0000 0.89550  0.35250  0.37700  Biso   1.000  C
  H29      1.0000 0.83710  0.13100  0.92240  Biso   1.000  H
  H30      1.0000 0.16290  0.63100  0.57760  Biso   1.000  H
  H31      1.0000 0.16290  0.86900  0.07760  Biso   1.000  H
  H32      1.0000 0.83710  0.36900  0.42240  Biso   1.000  H
  C25      1.0000 0.15470  0.00410  0.33130  Biso   1.000  C
  C26      1.0000 0.84530  0.50410  0.16870  Biso   1.000  C
  C27      1.0000 0.84530  0.99590  0.66870  Biso   1.000  C
  C28      1.0000 0.15470  0.49590  0.83130  Biso   1.000  C
  H33      1.0000 0.08450  0.98260  0.33510  Biso   1.000  H
  H34      1.0000 0.91550  0.48260  0.16490  Biso   1.000  H
  H35      1.0000 0.91550  0.01740  0.66490  Biso   1.000  H
  H36      1.0000 0.08450  0.51740  0.83510  Biso   1.000  H
  C29      1.0000 0.24780  0.00580  0.43820  Biso   1.000  C
  C30      1.0000 0.75220  0.50580  0.06180  Biso   1.000  C
  C31      1.0000 0.75220  0.99420  0.56180  Biso   1.000  C
  C32      1.0000 0.24780  0.49420  0.93820  Biso   1.000  C
  H37      1.0000 0.25290  0.98700  0.52690  Biso   1.000  H
  H38      1.0000 0.74710  0.48700  0.97310  Biso   1.000  H
  H39      1.0000 0.74710  0.01300  0.47310  Biso   1.000  H
  H40      1.0000 0.25290  0.51300  0.02690  Biso   1.000  H
  C33      1.0000 0.33120  0.04110  0.38560  Biso   1.000  C
  C34      1.0000 0.66880  0.54110  0.11440  Biso   1.000  C
  C35      1.0000 0.66880  0.95890  0.61440  Biso   1.000  C
  C36      1.0000 0.33120  0.45890  0.88560  Biso   1.000  C
  H41      1.0000 0.40550  0.05000  0.43360  Biso   1.000  H
  H42      1.0000 0.59450  0.55000  0.06640  Biso   1.000  H
  H43      1.0000 0.59450  0.95000  0.56640  Biso   1.000  H
  H44      1.0000 0.40550  0.45000  0.93360  Biso   1.000  H
  C37      1.0000 0.59600  0.13010  0.31180  Biso   1.000  C
  C38      1.0000 0.40400  0.63010  0.18820  Biso   1.000  C
  C39      1.0000 0.40400  0.86990  0.68820  Biso   1.000  C
  C40      1.0000 0.59600  0.36990  0.81180  Biso   1.000  C
  H45      1.0000 0.63870  0.09460  0.28400  Biso   1.000  H
  H46      1.0000 0.36130  0.59460  0.21600  Biso   1.000  H
  H47      1.0000 0.36130  0.90540  0.71600  Biso   1.000  H
  H48      1.0000 0.63870  0.40540  0.78400  Biso   1.000  H
  C41      1.0000 0.63650  0.17380  0.41920  Biso   1.000  C
  C42      1.0000 0.36350  0.67380  0.08080  Biso   1.000  C
  C43      1.0000 0.36350  0.82620  0.58080  Biso   1.000  C
  C44      1.0000 0.63650  0.32620  0.91920  Biso   1.000  C
  H49      1.0000 0.70880  0.17310  0.47670  Biso   1.000  H
  H50      1.0000 0.29120  0.67310  0.02330  Biso   1.000  H
  H51      1.0000 0.29120  0.82690  0.52330  Biso   1.000  H
  H52      1.0000 0.70880  0.32690  0.97670  Biso   1.000  H
  C45      1.0000 0.54870  0.21810  0.42340  Biso   1.000  C
  C46      1.0000 0.45130  0.71810  0.07660  Biso   1.000  C
  C47      1.0000 0.45130  0.78190  0.57660  Biso   1.000  C
  C48      1.0000 0.54870  0.28190  0.92340  Biso   1.000  C
  H53      1.0000 0.54930  0.25440  0.48390  Biso   1.000  H
  H54      1.0000 0.45070  0.75440  0.01610  Biso   1.000  H
  H55      1.0000 0.45070  0.74560  0.51610  Biso   1.000  H
  H56      1.0000 0.54930  0.24560  0.98390  Biso   1.000  H
  C49      1.0000 0.24510  0.23878  0.58630  Biso   1.000  C
  C50      1.0000 0.75490  0.73878  0.91370  Biso   1.000  C
  C51      1.0000 0.75490  0.76122  0.41370  Biso   1.000  C
  C52      1.0000 0.24510  0.26122  0.08630  Biso   1.000  C
  C53      1.0000 0.18130  0.18660  0.49200  Biso   1.000  C
  C54      1.0000 0.81870  0.68660  0.00800  Biso   1.000  C
  C55      1.0000 0.81870  0.81340  0.50800  Biso   1.000  C
  C56      1.0000 0.18130  0.31340  0.99200  Biso   1.000  C
  H57      1.0000 0.15180  0.15280  0.54750  Biso   1.000  H
  H58      1.0000 0.84820  0.65280  0.95250  Biso   1.000  H
  H59      1.0000 0.84820  0.84720  0.45250  Biso   1.000  H
  H60      1.0000 0.15180  0.34720  0.04750  Biso   1.000  H
  H61      1.0000 0.23330  0.16640  0.43710  Biso   1.000  H
  H62      1.0000 0.76670  0.66640  0.06290  Biso   1.000  H
  H63      1.0000 0.76670  0.83360  0.56290  Biso   1.000  H
  H64      1.0000 0.23330  0.33360  0.93710  Biso   1.000  H
  H65      1.0000 0.11770  0.20730  0.43110  Biso   1.000  H
  H66      1.0000 0.88230  0.70730  0.06890  Biso   1.000  H
  H67      1.0000 0.88230  0.79270  0.56890  Biso   1.000  H
  H68      1.0000 0.11770  0.29270  0.93110  Biso   1.000  H
  C57      1.0000 0.87610  0.05558  0.17820  Biso   1.000  C
  C58      1.0000 0.12390  0.55558  0.32180  Biso   1.000  C
  C59      1.0000 0.12390  0.94442  0.82180  Biso   1.000  C
  C60      1.0000 0.87610  0.44442  0.67820  Biso   1.000  C
  C61      1.0000 0.91510  0.11620  0.26590  Biso   1.000  C
  C62      1.0000 0.08490  0.61620  0.23410  Biso   1.000  C
  C63      1.0000 0.08490  0.88380  0.73410  Biso   1.000  C
  C64      1.0000 0.91510  0.38380  0.76590  Biso   1.000  C
  H69      1.0000 0.98850  0.13140  0.24540  Biso   1.000  H
  H70      1.0000 0.01150  0.63140  0.25460  Biso   1.000  H
  H71      1.0000 0.01150  0.86860  0.75460  Biso   1.000  H
  H72      1.0000 0.98850  0.36860  0.74540  Biso   1.000  H
  H73      1.0000 0.92320  0.10450  0.36320  Biso   1.000  H
  H74      1.0000 0.07680  0.60450  0.13680  Biso   1.000  H
  H75      1.0000 0.07680  0.89550  0.63680  Biso   1.000  H
  H76      1.0000 0.92320  0.39550  0.86320  Biso   1.000  H
  H77      1.0000 0.85840  0.15130  0.24520  Biso   1.000  H
  H78      1.0000 0.14160  0.65130  0.25480  Biso   1.000  H
  H79      1.0000 0.14160  0.84870  0.75480  Biso   1.000  H
  H80      1.0000 0.85840  0.34870  0.74520  Biso   1.000  H
