data_image0
_cell_length_a       13.981
_cell_length_b       13.0458
_cell_length_c       8.8542
_cell_angle_alpha    90
_cell_angle_beta     94.568
_cell_angle_gamma    90

_symmetry_space_group_name_H-M    "P 1"
_symmetry_int_tables_number       1

loop_
  _symmetry_equiv_pos_as_xyz
  'x, y, z'

loop_
  _atom_site_label
  _atom_site_occupancy
  _atom_site_fract_x
  _atom_site_fract_y
  _atom_site_fract_z
  _atom_site_thermal_displace_type
  _atom_site_B_iso_or_equiv
  _atom_site_type_symbol
  Cu1      1.0000 0.05883  0.06772  0.83709  Biso   1.000  Cu
  Cu2      1.0000 0.05883  0.93228  0.33709  Biso   1.000  Cu
  Cu3      1.0000 0.55883  0.56772  0.83709  Biso   1.000  Cu
  Cu4      1.0000 0.55883  0.43228  0.33709  Biso   1.000  Cu
  O1       1.0000 0.10240  0.21050  0.84440  Biso   1.000  O
  O2       1.0000 0.10240  0.78950  0.34440  Biso   1.000  O
  O3       1.0000 0.60240  0.71050  0.84440  Biso   1.000  O
  O4       1.0000 0.60240  0.28950  0.34440  Biso   1.000  O
  O5       1.0000 0.11060  0.22740  0.09530  Biso   1.000  O
  O6       1.0000 0.11060  0.77260  0.59530  Biso   1.000  O
  O7       1.0000 0.61060  0.72740  0.09530  Biso   1.000  O
  O8       1.0000 0.61060  0.27260  0.59530  Biso   1.000  O
  O9       1.0000 0.01730  0.92110  0.82890  Biso   1.000  O
  O10      1.0000 0.01730  0.07890  0.32890  Biso   1.000  O
  O11      1.0000 0.51730  0.42110  0.82890  Biso   1.000  O
  O12      1.0000 0.51730  0.57890  0.32890  Biso   1.000  O
  O13      1.0000 0.02490  0.92970  0.08100  Biso   1.000  O
  O14      1.0000 0.02490  0.07030  0.58100  Biso   1.000  O
  O15      1.0000 0.52490  0.42970  0.08100  Biso   1.000  O
  O16      1.0000 0.52490  0.57030  0.58100  Biso   1.000  O
  N1       1.0000 0.92820  0.10700  0.89190  Biso   1.000  N
  N2       1.0000 0.92820  0.89300  0.39190  Biso   1.000  N
  N3       1.0000 0.42820  0.60700  0.89190  Biso   1.000  N
  N4       1.0000 0.42820  0.39300  0.39190  Biso   1.000  N
  N5       1.0000 0.19160  0.02040  0.81930  Biso   1.000  N
  N6       1.0000 0.19160  0.97960  0.31930  Biso   1.000  N
  N7       1.0000 0.69160  0.52040  0.81930  Biso   1.000  N
  N8       1.0000 0.69160  0.47960  0.31930  Biso   1.000  N
  F1       1.0000 0.13490  0.42720  0.06270  Biso   1.000  F
  F2       1.0000 0.13490  0.57280  0.56270  Biso   1.000  F
  F3       1.0000 0.63490  0.92720  0.06270  Biso   1.000  F
  F4       1.0000 0.63490  0.07280  0.56270  Biso   1.000  F
  F5       1.0000 0.09500  0.41420  0.83710  Biso   1.000  F
  F6       1.0000 0.09500  0.58580  0.33710  Biso   1.000  F
  F7       1.0000 0.59500  0.91420  0.83710  Biso   1.000  F
  F8       1.0000 0.59500  0.08580  0.33710  Biso   1.000  F
  F9       1.0000 0.23720  0.37440  0.91800  Biso   1.000  F
  F10      1.0000 0.23720  0.62560  0.41800  Biso   1.000  F
  F11      1.0000 0.73720  0.87440  0.91800  Biso   1.000  F
  F12      1.0000 0.73720  0.12560  0.41800  Biso   1.000  F
  F13      1.0000 0.06000  0.41400  0.97700  Biso   1.000  F
  F14      1.0000 0.06000  0.58600  0.47700  Biso   1.000  F
  F15      1.0000 0.56000  0.91400  0.97700  Biso   1.000  F
  F16      1.0000 0.56000  0.08600  0.47700  Biso   1.000  F
  F17      1.0000 0.14200  0.40300  0.81200  Biso   1.000  F
  F18      1.0000 0.14200  0.59700  0.31200  Biso   1.000  F
  F19      1.0000 0.64200  0.90300  0.81200  Biso   1.000  F
  F20      1.0000 0.64200  0.09700  0.31200  Biso   1.000  F
  F21      1.0000 0.18700  0.41000  0.03900  Biso   1.000  F
  F22      1.0000 0.18700  0.59000  0.53900  Biso   1.000  F
  F23      1.0000 0.68700  0.91000  0.03900  Biso   1.000  F
  F24      1.0000 0.68700  0.09000  0.53900  Biso   1.000  F
  F25      1.0000 0.06240  0.71540  0.98080  Biso   1.000  F
  F26      1.0000 0.06240  0.28460  0.48080  Biso   1.000  F
  F27      1.0000 0.56240  0.21540  0.98080  Biso   1.000  F
  F28      1.0000 0.56240  0.78460  0.48080  Biso   1.000  F
  F29      1.0000 0.93270  0.74700  0.07360  Biso   1.000  F
  F30      1.0000 0.93270  0.25300  0.57360  Biso   1.000  F
  F31      1.0000 0.43270  0.24700  0.07360  Biso   1.000  F
  F32      1.0000 0.43270  0.75300  0.57360  Biso   1.000  F
  F33      1.0000 0.93960  0.73890  0.83380  Biso   1.000  F
  F34      1.0000 0.93960  0.26110  0.33380  Biso   1.000  F
  F35      1.0000 0.43960  0.23890  0.83380  Biso   1.000  F
  F36      1.0000 0.43960  0.76110  0.33380  Biso   1.000  F
  F37      1.0000 0.01800  0.71100  0.87200  Biso   1.000  F
  F38      1.0000 0.01800  0.28900  0.37200  Biso   1.000  F
  F39      1.0000 0.51800  0.21100  0.87200  Biso   1.000  F
  F40      1.0000 0.51800  0.78900  0.37200  Biso   1.000  F
  F41      1.0000 0.88200  0.77100  0.93500  Biso   1.000  F
  F42      1.0000 0.88200  0.22900  0.43500  Biso   1.000  F
  F43      1.0000 0.38200  0.27100  0.93500  Biso   1.000  F
  F44      1.0000 0.38200  0.72900  0.43500  Biso   1.000  F
  F45      1.0000 0.00800  0.71100  0.06300  Biso   1.000  F
  F46      1.0000 0.00800  0.28900  0.56300  Biso   1.000  F
  F47      1.0000 0.50800  0.21100  0.06300  Biso   1.000  F
  F48      1.0000 0.50800  0.78900  0.56300  Biso   1.000  F
  C1       1.0000 0.77210  0.13400  0.89220  Biso   1.000  C
  C2       1.0000 0.77210  0.86600  0.39220  Biso   1.000  C
  C3       1.0000 0.27210  0.63400  0.89220  Biso   1.000  C
  C4       1.0000 0.27210  0.36600  0.39220  Biso   1.000  C
  H1       1.0000 0.70720  0.13750  0.86040  Biso   1.000  H
  H2       1.0000 0.70720  0.86250  0.36040  Biso   1.000  H
  H3       1.0000 0.20720  0.63750  0.86040  Biso   1.000  H
  H4       1.0000 0.20720  0.36250  0.36040  Biso   1.000  H
  C5       1.0000 0.81470  0.16020  0.02940  Biso   1.000  C
  C6       1.0000 0.81470  0.83980  0.52940  Biso   1.000  C
  C7       1.0000 0.31470  0.66020  0.02940  Biso   1.000  C
  C8       1.0000 0.31470  0.33980  0.52940  Biso   1.000  C
  H5       1.0000 0.78390  0.18470  0.11150  Biso   1.000  H
  H6       1.0000 0.78390  0.81530  0.61150  Biso   1.000  H
  H7       1.0000 0.28390  0.68470  0.11150  Biso   1.000  H
  H8       1.0000 0.28390  0.31530  0.61150  Biso   1.000  H
  C9       1.0000 0.90930  0.14460  0.02560  Biso   1.000  C
  C10      1.0000 0.90930  0.85540  0.52560  Biso   1.000  C
  C11      1.0000 0.40930  0.64460  0.02560  Biso   1.000  C
  C12      1.0000 0.40930  0.35540  0.52560  Biso   1.000  C
  H9       1.0000 0.95500  0.15820  0.10520  Biso   1.000  H
  H10      1.0000 0.95500  0.84180  0.60520  Biso   1.000  H
  H11      1.0000 0.45500  0.65820  0.10520  Biso   1.000  H
  H12      1.0000 0.45500  0.34180  0.60520  Biso   1.000  H
  C13      1.0000 0.27410  0.06690  0.85660  Biso   1.000  C
  C14      1.0000 0.27410  0.93310  0.35660  Biso   1.000  C
  C15      1.0000 0.77410  0.56690  0.85660  Biso   1.000  C
  C16      1.0000 0.77410  0.43310  0.35660  Biso   1.000  C
  H13      1.0000 0.28040  0.13230  0.89810  Biso   1.000  H
  H14      1.0000 0.28040  0.86770  0.39810  Biso   1.000  H
  H15      1.0000 0.78040  0.63230  0.89810  Biso   1.000  H
  H16      1.0000 0.78040  0.36770  0.39810  Biso   1.000  H
  C17      1.0000 0.34930  0.00440  0.82490  Biso   1.000  C
  C18      1.0000 0.34930  0.99560  0.32490  Biso   1.000  C
  C19      1.0000 0.84930  0.50440  0.82490  Biso   1.000  C
  C20      1.0000 0.84930  0.49560  0.32490  Biso   1.000  C
  H17      1.0000 0.41430  0.02050  0.83250  Biso   1.000  H
  H18      1.0000 0.41430  0.97950  0.33250  Biso   1.000  H
  H19      1.0000 0.91430  0.52050  0.83250  Biso   1.000  H
  H20      1.0000 0.91430  0.47950  0.33250  Biso   1.000  H
  C21      1.0000 0.30880  0.91570  0.78090  Biso   1.000  C
  C22      1.0000 0.30880  0.08430  0.28090  Biso   1.000  C
  C23      1.0000 0.80880  0.41570  0.78090  Biso   1.000  C
  C24      1.0000 0.80880  0.58430  0.28090  Biso   1.000  C
  H21      1.0000 0.34120  0.85600  0.75870  Biso   1.000  H
  H22      1.0000 0.34120  0.14400  0.25870  Biso   1.000  H
  H23      1.0000 0.84120  0.35600  0.75870  Biso   1.000  H
  H24      1.0000 0.84120  0.64400  0.25870  Biso   1.000  H
  C25      1.0000 0.11490  0.25770  0.96700  Biso   1.000  C
  C26      1.0000 0.11490  0.74230  0.46700  Biso   1.000  C
  C27      1.0000 0.61490  0.75770  0.96700  Biso   1.000  C
  C28      1.0000 0.61490  0.24230  0.46700  Biso   1.000  C
  C29      1.0000 0.14210  0.37080  0.94540  Biso   1.000  C
  C30      1.0000 0.14210  0.62920  0.44540  Biso   1.000  C
  C31      1.0000 0.64210  0.87080  0.94540  Biso   1.000  C
  C32      1.0000 0.64210  0.12920  0.44540  Biso   1.000  C
  C33      1.0000 0.01050  0.88540  0.96030  Biso   1.000  C
  C34      1.0000 0.01050  0.11460  0.46030  Biso   1.000  C
  C35      1.0000 0.51050  0.38540  0.96030  Biso   1.000  C
  C36      1.0000 0.51050  0.61460  0.46030  Biso   1.000  C
  C37      1.0000 0.98180  0.77120  0.96050  Biso   1.000  C
  C38      1.0000 0.98180  0.22880  0.46050  Biso   1.000  C
  C39      1.0000 0.48180  0.27120  0.96050  Biso   1.000  C
  C40      1.0000 0.48180  0.72880  0.46050  Biso   1.000  C
  N9       1.0000 0.21430  0.92720  0.77420  Biso   1.000  N
  N10      1.0000 0.21430  0.07280  0.27420  Biso   1.000  N
  N11      1.0000 0.71430  0.42720  0.77420  Biso   1.000  N
  N12      1.0000 0.71430  0.57280  0.27420  Biso   1.000  N
  H25      1.0000 0.17340  0.88060  0.74460  Biso   1.000  H
  H26      1.0000 0.17340  0.11940  0.24460  Biso   1.000  H
  H27      1.0000 0.67340  0.38060  0.74460  Biso   1.000  H
  H28      1.0000 0.67340  0.61940  0.24460  Biso   1.000  H
  N13      1.0000 0.84510  0.10120  0.81060  Biso   1.000  N
  N14      1.0000 0.84510  0.89880  0.31060  Biso   1.000  N
  N15      1.0000 0.34510  0.60120  0.81060  Biso   1.000  N
  N16      1.0000 0.34510  0.39880  0.31060  Biso   1.000  N
  H29      1.0000 0.83790  0.07960  0.71860  Biso   1.000  H
  H30      1.0000 0.83790  0.92040  0.21860  Biso   1.000  H
  H31      1.0000 0.33790  0.57960  0.71860  Biso   1.000  H
  H32      1.0000 0.33790  0.42040  0.21860  Biso   1.000  H
