data_image0
_cell_length_a       7.5756
_cell_length_b       15.256
_cell_length_c       15.213
_cell_angle_alpha    90
_cell_angle_beta     96.4
_cell_angle_gamma    90

_symmetry_space_group_name_H-M    "P 1"
_symmetry_int_tables_number       1

loop_
  _symmetry_equiv_pos_as_xyz
  'x, y, z'

loop_
  _atom_site_label
  _atom_site_occupancy
  _atom_site_fract_x
  _atom_site_fract_y
  _atom_site_fract_z
  _atom_site_thermal_displace_type
  _atom_site_B_iso_or_equiv
  _atom_site_type_symbol
  Cu1      1.0000 0.00000  0.00000  0.00000  Biso   1.000  Cu
  Cu2      1.0000 0.50000  0.50000  0.50000  Biso   1.000  Cu
  Fe1      1.0000 0.50419  0.88937  0.21076  Biso   1.000  Fe
  Fe2      1.0000 0.00419  0.61063  0.71076  Biso   1.000  Fe
  Fe3      1.0000 0.49581  0.11063  0.78924  Biso   1.000  Fe
  Fe4      1.0000 0.99581  0.38937  0.28924  Biso   1.000  Fe
  N1       1.0000 0.51620  0.69900  0.14860  Biso   1.000  N
  N2       1.0000 0.01620  0.80100  0.64860  Biso   1.000  N
  N3       1.0000 0.48380  0.30100  0.85140  Biso   1.000  N
  N4       1.0000 0.98380  0.19900  0.35140  Biso   1.000  N
  N5       1.0000 0.73000  0.93180  0.06170  Biso   1.000  N
  N6       1.0000 0.23000  0.56820  0.56170  Biso   1.000  N
  N7       1.0000 0.27000  0.06820  0.93830  Biso   1.000  N
  N8       1.0000 0.77000  0.43180  0.43830  Biso   1.000  N
  N9       1.0000 0.16740  0.93620  0.08610  Biso   1.000  N
  N10      1.0000 0.66740  0.56380  0.58610  Biso   1.000  N
  N11      1.0000 0.83260  0.06380  0.91390  Biso   1.000  N
  N12      1.0000 0.33260  0.43620  0.41390  Biso   1.000  N
  N13      1.0000 0.85500  0.86070  0.33190  Biso   1.000  N
  N14      1.0000 0.35500  0.63930  0.83190  Biso   1.000  N
  N15      1.0000 0.14500  0.13930  0.66810  Biso   1.000  N
  N16      1.0000 0.64500  0.36070  0.16810  Biso   1.000  N
  N17      1.0000 0.48590  0.01050  0.25940  Biso   1.000  N
  N18      1.0000 0.98590  0.48950  0.75940  Biso   1.000  N
  N19      1.0000 0.51410  0.98950  0.74060  Biso   1.000  N
  N20      1.0000 0.01410  0.51050  0.24060  Biso   1.000  N
  N21      1.0000 0.37900  0.85940  0.31500  Biso   1.000  N
  N22      1.0000 0.87900  0.64060  0.81500  Biso   1.000  N
  N23      1.0000 0.62100  0.14060  0.68500  Biso   1.000  N
  N24      1.0000 0.12100  0.35940  0.18500  Biso   1.000  N
  C1       1.0000 0.51060  0.77140  0.17010  Biso   1.000  C
  C2       1.0000 0.01060  0.72860  0.67010  Biso   1.000  C
  C3       1.0000 0.48940  0.22860  0.82990  Biso   1.000  C
  C4       1.0000 0.98940  0.27140  0.32990  Biso   1.000  C
  C5       1.0000 0.64430  0.91870  0.11690  Biso   1.000  C
  C6       1.0000 0.14430  0.58130  0.61690  Biso   1.000  C
  C7       1.0000 0.35570  0.08130  0.88310  Biso   1.000  C
  C8       1.0000 0.85570  0.41870  0.38310  Biso   1.000  C
  C9       1.0000 0.28840  0.91490  0.13310  Biso   1.000  C
  C10      1.0000 0.78840  0.58510  0.63310  Biso   1.000  C
  C11      1.0000 0.71160  0.08510  0.86690  Biso   1.000  C
  C12      1.0000 0.21160  0.41490  0.36690  Biso   1.000  C
  C13      1.0000 0.72570  0.87180  0.28570  Biso   1.000  C
  C14      1.0000 0.22570  0.62820  0.78570  Biso   1.000  C
  C15      1.0000 0.27430  0.12820  0.71430  Biso   1.000  C
  C16      1.0000 0.77430  0.37180  0.21430  Biso   1.000  C
  C17      1.0000 0.53980  0.08610  0.22850  Biso   1.000  C
  C18      1.0000 0.03980  0.41390  0.72850  Biso   1.000  C
  C19      1.0000 0.46020  0.91390  0.77150  Biso   1.000  C
  C20      1.0000 0.96020  0.58610  0.27150  Biso   1.000  C
  H1       1.0000 0.59210  0.08620  0.17600  Biso   1.000  H
  H2       1.0000 0.09210  0.41380  0.67600  Biso   1.000  H
  H3       1.0000 0.40790  0.91380  0.82400  Biso   1.000  H
  H4       1.0000 0.90790  0.58620  0.32400  Biso   1.000  H
  C21      1.0000 0.52080  0.16420  0.27140  Biso   1.000  C
  C22      1.0000 0.02080  0.33580  0.77140  Biso   1.000  C
  C23      1.0000 0.47920  0.83580  0.72860  Biso   1.000  C
  C24      1.0000 0.97920  0.66420  0.22860  Biso   1.000  C
  H5       1.0000 0.56080  0.21600  0.24820  Biso   1.000  H
  H6       1.0000 0.06080  0.28400  0.74820  Biso   1.000  H
  H7       1.0000 0.43920  0.78400  0.75180  Biso   1.000  H
  H8       1.0000 0.93920  0.71600  0.25180  Biso   1.000  H
  C25      1.0000 0.44270  0.16570  0.34870  Biso   1.000  C
  C26      1.0000 0.94270  0.33430  0.84870  Biso   1.000  C
  C27      1.0000 0.55730  0.83430  0.65130  Biso   1.000  C
  C28      1.0000 0.05730  0.66570  0.15130  Biso   1.000  C
  H9       1.0000 0.43070  0.21840  0.37810  Biso   1.000  H
  H10      1.0000 0.93070  0.28160  0.87810  Biso   1.000  H
  H11      1.0000 0.56930  0.78160  0.62190  Biso   1.000  H
  H12      1.0000 0.06930  0.71840  0.12190  Biso   1.000  H
  C29      1.0000 0.38140  0.08830  0.38310  Biso   1.000  C
  C30      1.0000 0.88140  0.41170  0.88310  Biso   1.000  C
  C31      1.0000 0.61860  0.91170  0.61690  Biso   1.000  C
  C32      1.0000 0.11860  0.58830  0.11690  Biso   1.000  C
  C33      1.0000 0.40520  0.01150  0.33580  Biso   1.000  C
  C34      1.0000 0.90520  0.48850  0.83580  Biso   1.000  C
  C35      1.0000 0.59480  0.98850  0.66420  Biso   1.000  C
  C36      1.0000 0.09480  0.51150  0.16420  Biso   1.000  C
  C37      1.0000 0.34900  0.92890  0.36540  Biso   1.000  C
  C38      1.0000 0.84900  0.57110  0.86540  Biso   1.000  C
  C39      1.0000 0.65100  0.07110  0.63460  Biso   1.000  C
  C40      1.0000 0.15100  0.42890  0.13460  Biso   1.000  C
  C41      1.0000 0.27010  0.92430  0.44330  Biso   1.000  C
  C42      1.0000 0.77010  0.57570  0.94330  Biso   1.000  C
  C43      1.0000 0.72990  0.07570  0.55670  Biso   1.000  C
  C44      1.0000 0.22990  0.42430  0.05670  Biso   1.000  C
  C45      1.0000 0.22790  0.83930  0.47170  Biso   1.000  C
  C46      1.0000 0.72790  0.66070  0.97170  Biso   1.000  C
  C47      1.0000 0.77210  0.16070  0.52830  Biso   1.000  C
  C48      1.0000 0.27210  0.33930  0.02830  Biso   1.000  C
  H13      1.0000 0.17610  0.83190  0.52390  Biso   1.000  H
  H14      1.0000 0.67610  0.66810  0.02390  Biso   1.000  H
  H15      1.0000 0.82390  0.16810  0.47610  Biso   1.000  H
  H16      1.0000 0.32390  0.33190  0.97610  Biso   1.000  H
  C49      1.0000 0.26340  0.76920  0.42270  Biso   1.000  C
  C50      1.0000 0.76340  0.73080  0.92270  Biso   1.000  C
  C51      1.0000 0.73660  0.23080  0.57730  Biso   1.000  C
  C52      1.0000 0.23660  0.26920  0.07730  Biso   1.000  C
  H17      1.0000 0.23920  0.71300  0.44180  Biso   1.000  H
  H18      1.0000 0.73920  0.78700  0.94180  Biso   1.000  H
  H19      1.0000 0.76080  0.28700  0.55820  Biso   1.000  H
  H20      1.0000 0.26080  0.21300  0.05820  Biso   1.000  H
  C53      1.0000 0.33620  0.78070  0.34340  Biso   1.000  C
  C54      1.0000 0.83620  0.71930  0.84340  Biso   1.000  C
  C55      1.0000 0.66380  0.21930  0.65660  Biso   1.000  C
  C56      1.0000 0.16380  0.28070  0.15660  Biso   1.000  C
  H21      1.0000 0.35540  0.73180  0.30920  Biso   1.000  H
  H22      1.0000 0.85540  0.76820  0.80920  Biso   1.000  H
  H23      1.0000 0.64460  0.26820  0.69080  Biso   1.000  H
  H24      1.0000 0.14460  0.23180  0.19080  Biso   1.000  H
  C57      1.0000 0.29830  0.08130  0.46240  Biso   1.000  C
  C58      1.0000 0.79830  0.41870  0.96240  Biso   1.000  C
  C59      1.0000 0.70170  0.91870  0.53760  Biso   1.000  C
  C60      1.0000 0.20170  0.58130  0.03760  Biso   1.000  C
  H25      1.0000 0.28090  0.13160  0.49470  Biso   1.000  H
  H26      1.0000 0.78090  0.36840  0.99470  Biso   1.000  H
  H27      1.0000 0.71910  0.86840  0.50530  Biso   1.000  H
  H28      1.0000 0.21910  0.63160  0.00530  Biso   1.000  H
  C61      1.0000 0.24460  0.00360  0.49140  Biso   1.000  C
  C62      1.0000 0.74460  0.49640  0.99140  Biso   1.000  C
  C63      1.0000 0.75540  0.99640  0.50860  Biso   1.000  C
  C64      1.0000 0.25540  0.50360  0.00860  Biso   1.000  C
  H29      1.0000 0.19030  0.00110  0.54320  Biso   1.000  H
  H30      1.0000 0.69030  0.49890  0.04320  Biso   1.000  H
  H31      1.0000 0.80970  0.99890  0.45680  Biso   1.000  H
  H32      1.0000 0.30970  0.50110  0.95680  Biso   1.000  H
  O1       1.0000 0.02060  0.90620  0.91190  Biso   1.000  O
  O2       1.0000 0.52060  0.59380  0.41190  Biso   1.000  O
  O3       1.0000 0.97940  0.09380  0.08810  Biso   1.000  O
  O4       1.0000 0.47940  0.40620  0.58810  Biso   1.000  O
  O5       1.0000 0.99580  0.03980  0.25680  Biso   1.000  O
  O6       1.0000 0.49580  0.46020  0.75680  Biso   1.000  O
  O7       1.0000 0.00420  0.96020  0.74320  Biso   1.000  O
  O8       1.0000 0.50420  0.53980  0.24320  Biso   1.000  O
  O9       1.0000 0.31680  0.79840  0.94220  Biso   1.000  O
  O10      1.0000 0.81680  0.70160  0.44220  Biso   1.000  O
  O11      1.0000 0.68320  0.20160  0.05780  Biso   1.000  O
  O12      1.0000 0.18320  0.29840  0.55780  Biso   1.000  O
