data_image0
_cell_length_a       7.083
_cell_length_b       13.529
_cell_length_c       15.622
_cell_angle_alpha    92.87
_cell_angle_beta     90.02
_cell_angle_gamma    97.97

_symmetry_space_group_name_H-M    "P 1"
_symmetry_int_tables_number       1

loop_
  _symmetry_equiv_pos_as_xyz
  'x, y, z'

loop_
  _atom_site_label
  _atom_site_occupancy
  _atom_site_fract_x
  _atom_site_fract_y
  _atom_site_fract_z
  _atom_site_thermal_displace_type
  _atom_site_B_iso_or_equiv
  _atom_site_type_symbol
  Fe1      1.0000 0.70919  0.77197  0.42313  Biso   1.000  Fe
  Fe2      1.0000 0.29081  0.22803  0.57687  Biso   1.000  Fe
  Fe3      1.0000 0.29398  0.24064  0.14921  Biso   1.000  Fe
  Fe4      1.0000 0.70602  0.75936  0.85079  Biso   1.000  Fe
  Cu1      1.0000 0.76687  0.14140  0.35772  Biso   1.000  Cu
  Cu2      1.0000 0.23313  0.85860  0.64228  Biso   1.000  Cu
  N1       1.0000 0.72930  0.98220  0.35740  Biso   1.000  N
  N2       1.0000 0.27070  0.01780  0.64260  Biso   1.000  N
  C1       1.0000 0.55770  0.81540  0.51560  Biso   1.000  C
  C2       1.0000 0.44230  0.18460  0.48440  Biso   1.000  C
  N3       1.0000 0.06030  0.83470  0.54140  Biso   1.000  N
  N4       1.0000 0.93970  0.16530  0.45860  Biso   1.000  N
  N5       1.0000 0.31740  0.71270  0.33450  Biso   1.000  N
  N6       1.0000 0.68260  0.28730  0.66550  Biso   1.000  N
  N7       1.0000 0.99440  0.16920  0.28210  Biso   1.000  N
  N8       1.0000 0.00560  0.83080  0.71790  Biso   1.000  N
  N9       1.0000 0.37640  0.44980  0.23490  Biso   1.000  N
  N10      1.0000 0.62360  0.55020  0.76510  Biso   1.000  N
  N11      1.0000 0.60490  0.17170  0.26090  Biso   1.000  N
  N12      1.0000 0.39510  0.82830  0.73910  Biso   1.000  N
  N13      1.0000 0.97050  0.30920  0.04610  Biso   1.000  N
  N14      1.0000 0.02950  0.69080  0.95390  Biso   1.000  N
  N15      1.0000 0.72180  0.63630  0.46570  Biso   1.000  N
  N16      1.0000 0.27820  0.36370  0.53430  Biso   1.000  N
  N17      1.0000 0.82670  0.71280  0.31930  Biso   1.000  N
  N18      1.0000 0.17330  0.28720  0.68070  Biso   1.000  N
  N19      1.0000 0.45700  0.28490  0.04950  Biso   1.000  N
  N20      1.0000 0.54300  0.71510  0.95050  Biso   1.000  N
  N21      1.0000 0.26680  0.10960  0.08070  Biso   1.000  N
  N22      1.0000 0.73320  0.89040  0.91930  Biso   1.000  N
  C3       1.0000 0.72010  0.90340  0.38070  Biso   1.000  C
  C4       1.0000 0.27990  0.09660  0.61930  Biso   1.000  C
  N23      1.0000 0.44850  0.83700  0.56550  Biso   1.000  N
  N24      1.0000 0.55150  0.16300  0.43450  Biso   1.000  N
  C5       1.0000 0.93870  0.81520  0.49190  Biso   1.000  C
  C6       1.0000 0.06130  0.18480  0.50810  Biso   1.000  C
  C7       1.0000 0.46240  0.73170  0.36680  Biso   1.000  C
  C8       1.0000 0.53760  0.26830  0.63320  Biso   1.000  C
  C9       1.0000 0.11120  0.19620  0.23500  Biso   1.000  C
  C10      1.0000 0.88880  0.80380  0.76500  Biso   1.000  C
  C11      1.0000 0.34080  0.37030  0.20610  Biso   1.000  C
  C12      1.0000 0.65920  0.62970  0.79390  Biso   1.000  C
  C13      1.0000 0.49650  0.19860  0.21770  Biso   1.000  C
  C14      1.0000 0.50350  0.80140  0.78230  Biso   1.000  C
  C15      1.0000 0.08590  0.28360  0.08520  Biso   1.000  C
  C16      1.0000 0.91410  0.71640  0.91480  Biso   1.000  C
  C17      1.0000 0.68990  0.60370  0.54300  Biso   1.000  C
  C18      1.0000 0.31010  0.39630  0.45700  Biso   1.000  C
  C19      1.0000 0.71230  0.50580  0.56240  Biso   1.000  C
  C20      1.0000 0.28770  0.49420  0.43760  Biso   1.000  C
  C21      1.0000 0.75990  0.44060  0.49910  Biso   1.000  C
  C22      1.0000 0.24010  0.55940  0.50090  Biso   1.000  C
  C23      1.0000 0.79450  0.47200  0.41690  Biso   1.000  C
  C24      1.0000 0.20550  0.52800  0.58310  Biso   1.000  C
  C25      1.0000 0.77820  0.57220  0.40350  Biso   1.000  C
  C26      1.0000 0.22180  0.42780  0.59650  Biso   1.000  C
  C27      1.0000 0.82860  0.61370  0.32330  Biso   1.000  C
  C28      1.0000 0.17140  0.38630  0.67670  Biso   1.000  C
  C29      1.0000 0.88030  0.55190  0.25440  Biso   1.000  C
  C30      1.0000 0.11970  0.44810  0.74560  Biso   1.000  C
  C31      1.0000 0.92590  0.59780  0.17700  Biso   1.000  C
  C32      1.0000 0.07410  0.40220  0.82300  Biso   1.000  C
  C33      1.0000 0.92690  0.69820  0.17400  Biso   1.000  C
  C34      1.0000 0.07310  0.30180  0.82600  Biso   1.000  C
  C35      1.0000 0.87830  0.75470  0.24640  Biso   1.000  C
  C36      1.0000 0.12170  0.24530  0.75360  Biso   1.000  C
  C37      1.0000 0.84830  0.41180  0.34600  Biso   1.000  C
  C38      1.0000 0.15170  0.58820  0.65400  Biso   1.000  C
  C39      1.0000 0.88540  0.44830  0.26840  Biso   1.000  C
  C40      1.0000 0.11460  0.55170  0.73160  Biso   1.000  C
  C41      1.0000 0.55230  0.37330  0.03590  Biso   1.000  C
  C42      1.0000 0.44770  0.62670  0.96410  Biso   1.000  C
  C43      1.0000 0.62480  0.39750  0.95580  Biso   1.000  C
  C44      1.0000 0.37520  0.60250  0.04420  Biso   1.000  C
  H1       1.0000 0.68990  0.46110  0.94840  Biso   1.000  H
  H2       1.0000 0.31010  0.53890  0.05160  Biso   1.000  H
  C45      1.0000 0.60210  0.32960  0.88780  Biso   1.000  C
  C46      1.0000 0.39790  0.67040  0.11220  Biso   1.000  C
  C47      1.0000 0.51260  0.23310  0.90090  Biso   1.000  C
  C48      1.0000 0.48740  0.76690  0.09910  Biso   1.000  C
  C49      1.0000 0.43750  0.21510  0.98230  Biso   1.000  C
  C50      1.0000 0.56250  0.78490  0.01770  Biso   1.000  C
  C51      1.0000 0.34020  0.12010  0.99990  Biso   1.000  C
  C52      1.0000 0.65980  0.87990  0.00010  Biso   1.000  C
  C53      1.0000 0.32130  0.04150  0.93710  Biso   1.000  C
  C54      1.0000 0.67870  0.95850  0.06290  Biso   1.000  C
  C55      1.0000 0.23500  0.94900  0.96140  Biso   1.000  C
  C56      1.0000 0.76500  0.05100  0.03860  Biso   1.000  C
  C57      1.0000 0.17260  0.93810  0.04340  Biso   1.000  C
  C58      1.0000 0.82740  0.06190  0.95660  Biso   1.000  C
  H3       1.0000 0.11910  0.87560  0.06060  Biso   1.000  H
  H4       1.0000 0.88090  0.12440  0.93940  Biso   1.000  H
  C59      1.0000 0.18910  0.02090  0.10160  Biso   1.000  C
  C60      1.0000 0.81090  0.97910  0.89840  Biso   1.000  C
  C61      1.0000 0.48750  0.15320  0.83740  Biso   1.000  C
  C62      1.0000 0.51250  0.84680  0.16260  Biso   1.000  C
  C63      1.0000 0.39810  0.06110  0.85470  Biso   1.000  C
  C64      1.0000 0.60190  0.93890  0.14530  Biso   1.000  C
  O1       1.0000 0.78770  0.05000  0.68810  Biso   1.000  O
  O2       1.0000 0.21230  0.95000  0.31190  Biso   1.000  O
  H5       1.0000 0.65900  0.64900  0.58500  Biso   1.000  H
  H6       1.0000 0.34100  0.35100  0.41500  Biso   1.000  H
  H7       1.0000 0.94400  0.55400  0.12000  Biso   1.000  H
  H8       1.0000 0.05600  0.44600  0.88000  Biso   1.000  H
  H9       1.0000 0.14700  0.01600  0.15600  Biso   1.000  H
  H10      1.0000 0.85300  0.98400  0.84400  Biso   1.000  H
  H11      1.0000 0.57100  0.42300  0.08400  Biso   1.000  H
  H12      1.0000 0.42900  0.57700  0.91600  Biso   1.000  H
  H13      1.0000 0.88000  0.82400  0.24900  Biso   1.000  H
  H14      1.0000 0.12000  0.17600  0.75100  Biso   1.000  H
  H15      1.0000 0.91500  0.40800  0.22700  Biso   1.000  H
  H16      1.0000 0.08500  0.59200  0.77300  Biso   1.000  H
  H17      1.0000 0.95300  0.72500  0.12600  Biso   1.000  H
  H18      1.0000 0.04700  0.27500  0.87400  Biso   1.000  H
  H19      1.0000 0.22500  0.89700  0.93000  Biso   1.000  H
  H20      1.0000 0.77500  0.10300  0.07000  Biso   1.000  H
  H21      1.0000 0.68900  0.50000  0.61700  Biso   1.000  H
  H22      1.0000 0.31100  0.50000  0.38300  Biso   1.000  H
  H23      1.0000 0.38500  0.00800  0.81200  Biso   1.000  H
  H24      1.0000 0.61500  0.99200  0.18800  Biso   1.000  H
  H25      1.0000 0.77500  0.37600  0.50700  Biso   1.000  H
  H26      1.0000 0.22500  0.62400  0.49300  Biso   1.000  H
  H27      1.0000 0.53400  0.16300  0.79200  Biso   1.000  H
  H28      1.0000 0.46600  0.83700  0.20800  Biso   1.000  H
  H29      1.0000 0.62500  0.35100  0.84000  Biso   1.000  H
  H30      1.0000 0.37500  0.64900  0.16000  Biso   1.000  H
  H31      1.0000 0.84700  0.34100  0.35600  Biso   1.000  H
  H32      1.0000 0.15300  0.65900  0.64400  Biso   1.000  H
