data_image0
_cell_length_a       20.019
_cell_length_b       7.2088
_cell_length_c       20.64
_cell_angle_alpha    90
_cell_angle_beta     96.641
_cell_angle_gamma    90

_symmetry_space_group_name_H-M    "P 1"
_symmetry_int_tables_number       1

loop_
  _symmetry_equiv_pos_as_xyz
  'x, y, z'

loop_
  _atom_site_label
  _atom_site_occupancy
  _atom_site_fract_x
  _atom_site_fract_y
  _atom_site_fract_z
  _atom_site_thermal_displace_type
  _atom_site_B_iso_or_equiv
  _atom_site_type_symbol
  Fe1      1.0000 0.66795  0.22330  0.10402  Biso   1.000  Fe
  Fe2      1.0000 0.16795  0.27670  0.60402  Biso   1.000  Fe
  Fe3      1.0000 0.33205  0.77670  0.89598  Biso   1.000  Fe
  Fe4      1.0000 0.83205  0.72330  0.39598  Biso   1.000  Fe
  Fe5      1.0000 0.44611  0.21330  0.31992  Biso   1.000  Fe
  Fe6      1.0000 0.94611  0.28670  0.81992  Biso   1.000  Fe
  Fe7      1.0000 0.55389  0.78670  0.68008  Biso   1.000  Fe
  Fe8      1.0000 0.05389  0.71330  0.18008  Biso   1.000  Fe
  Cu1      1.0000 0.59980  0.72897  0.25529  Biso   1.000  Cu
  Cu2      1.0000 0.09980  0.77103  0.75529  Biso   1.000  Cu
  Cu3      1.0000 0.40020  0.27103  0.74471  Biso   1.000  Cu
  Cu4      1.0000 0.90020  0.22897  0.24471  Biso   1.000  Cu
  N1       1.0000 0.62675  0.93140  0.19847  Biso   1.000  N
  N2       1.0000 0.12675  0.56860  0.69847  Biso   1.000  N
  N3       1.0000 0.37325  0.06860  0.80153  Biso   1.000  N
  N4       1.0000 0.87325  0.43140  0.30153  Biso   1.000  N
  N5       1.0000 0.80902  0.20740  0.17845  Biso   1.000  N
  N6       1.0000 0.30902  0.29260  0.67845  Biso   1.000  N
  N7       1.0000 0.19098  0.79260  0.82155  Biso   1.000  N
  N8       1.0000 0.69098  0.70740  0.32155  Biso   1.000  N
  N9       1.0000 0.62657  0.54260  0.19211  Biso   1.000  N
  N10      1.0000 0.12657  0.95740  0.69211  Biso   1.000  N
  N11      1.0000 0.37343  0.45740  0.80789  Biso   1.000  N
  N12      1.0000 0.87343  0.04260  0.30789  Biso   1.000  N
  N13      1.0000 0.70085  0.87690  0.02603  Biso   1.000  N
  N14      1.0000 0.20085  0.62310  0.52603  Biso   1.000  N
  N15      1.0000 0.29915  0.12310  0.97397  Biso   1.000  N
  N16      1.0000 0.79915  0.37690  0.47397  Biso   1.000  N
  N17      1.0000 0.40683  0.17220  0.17278  Biso   1.000  N
  N18      1.0000 0.90683  0.32780  0.67278  Biso   1.000  N
  N19      1.0000 0.59317  0.82780  0.82722  Biso   1.000  N
  N20      1.0000 0.09317  0.67220  0.32722  Biso   1.000  N
  N21      1.0000 0.55358  0.92570  0.30093  Biso   1.000  N
  N22      1.0000 0.05358  0.57430  0.80093  Biso   1.000  N
  N23      1.0000 0.44642  0.07430  0.69907  Biso   1.000  N
  N24      1.0000 0.94642  0.42570  0.19907  Biso   1.000  N
  N25      1.0000 0.54062  0.53560  0.28934  Biso   1.000  N
  N26      1.0000 0.04062  0.96440  0.78934  Biso   1.000  N
  N27      1.0000 0.45938  0.46440  0.71066  Biso   1.000  N
  N28      1.0000 0.95938  0.03560  0.21066  Biso   1.000  N
  N29      1.0000 0.36233  0.86490  0.34178  Biso   1.000  N
  N30      1.0000 0.86233  0.63510  0.84178  Biso   1.000  N
  N31      1.0000 0.63767  0.13510  0.65822  Biso   1.000  N
  N32      1.0000 0.13767  0.36490  0.15822  Biso   1.000  N
  N33      1.0000 0.69446  0.37230  0.03053  Biso   1.000  N
  N34      1.0000 0.19446  0.12770  0.53053  Biso   1.000  N
  N35      1.0000 0.30554  0.62770  0.96947  Biso   1.000  N
  N36      1.0000 0.80554  0.87230  0.46947  Biso   1.000  N
  N37      1.0000 0.57916  0.24250  0.05058  Biso   1.000  N
  N38      1.0000 0.07916  0.25750  0.55058  Biso   1.000  N
  N39      1.0000 0.42084  0.75750  0.94942  Biso   1.000  N
  N40      1.0000 0.92084  0.74250  0.44942  Biso   1.000  N
  N41      1.0000 0.46670  0.24930  0.41535  Biso   1.000  N
  N42      1.0000 0.96670  0.25070  0.91535  Biso   1.000  N
  N43      1.0000 0.53330  0.75070  0.58465  Biso   1.000  N
  N44      1.0000 0.03330  0.74930  0.08465  Biso   1.000  N
  N45      1.0000 0.36576  0.36220  0.33612  Biso   1.000  N
  N46      1.0000 0.86576  0.13780  0.83612  Biso   1.000  N
  N47      1.0000 0.63424  0.63780  0.66388  Biso   1.000  N
  N48      1.0000 0.13424  0.86220  0.16388  Biso   1.000  N
  C1       1.0000 0.64165  0.04720  0.16591  Biso   1.000  C
  C2       1.0000 0.14165  0.45280  0.66591  Biso   1.000  C
  C3       1.0000 0.35835  0.95280  0.83409  Biso   1.000  C
  C4       1.0000 0.85835  0.54720  0.33409  Biso   1.000  C
  C5       1.0000 0.75631  0.21250  0.15159  Biso   1.000  C
  C6       1.0000 0.25631  0.28750  0.65159  Biso   1.000  C
  C7       1.0000 0.24369  0.78750  0.84841  Biso   1.000  C
  C8       1.0000 0.74369  0.71250  0.34841  Biso   1.000  C
  C9       1.0000 0.64357  0.42960  0.15842  Biso   1.000  C
  C10      1.0000 0.14357  0.07040  0.65842  Biso   1.000  C
  C11      1.0000 0.35643  0.57040  0.84158  Biso   1.000  C
  C12      1.0000 0.85643  0.92960  0.34158  Biso   1.000  C
  C13      1.0000 0.68898  0.00520  0.05512  Biso   1.000  C
  C14      1.0000 0.18898  0.49480  0.55512  Biso   1.000  C
  C15      1.0000 0.31102  0.99480  0.94488  Biso   1.000  C
  C16      1.0000 0.81102  0.50520  0.44488  Biso   1.000  C
  C17      1.0000 0.42203  0.18800  0.22790  Biso   1.000  C
  C18      1.0000 0.92203  0.31200  0.72790  Biso   1.000  C
  C19      1.0000 0.57797  0.81200  0.77210  Biso   1.000  C
  C20      1.0000 0.07797  0.68800  0.27210  Biso   1.000  C
  C21      1.0000 0.51660  0.04060  0.30899  Biso   1.000  C
  C22      1.0000 0.01660  0.45940  0.80899  Biso   1.000  C
  C23      1.0000 0.48340  0.95940  0.69101  Biso   1.000  C
  C24      1.0000 0.98340  0.54060  0.19101  Biso   1.000  C
  C25      1.0000 0.50489  0.42250  0.30225  Biso   1.000  C
  C26      1.0000 0.00489  0.07750  0.80225  Biso   1.000  C
  C27      1.0000 0.49511  0.57750  0.69775  Biso   1.000  C
  C28      1.0000 0.99511  0.92250  0.19775  Biso   1.000  C
  C29      1.0000 0.39247  0.99330  0.33352  Biso   1.000  C
  C30      1.0000 0.89247  0.50670  0.83352  Biso   1.000  C
  C31      1.0000 0.60753  0.00670  0.66648  Biso   1.000  C
  C32      1.0000 0.10753  0.49330  0.16648  Biso   1.000  C
  C33      1.0000 0.75648  0.43910  0.02560  Biso   1.000  C
  C34      1.0000 0.25648  0.06090  0.52560  Biso   1.000  C
  C35      1.0000 0.24352  0.56090  0.97440  Biso   1.000  C
  C36      1.0000 0.74352  0.93910  0.47440  Biso   1.000  C
  H1       1.0000 0.78880  0.43550  0.06180  Biso   1.000  H
  H2       1.0000 0.28880  0.06450  0.56180  Biso   1.000  H
  H3       1.0000 0.21120  0.56450  0.93820  Biso   1.000  H
  H4       1.0000 0.71120  0.93550  0.43820  Biso   1.000  H
  C37      1.0000 0.77260  0.51240  0.96820  Biso   1.000  C
  C38      1.0000 0.27260  0.98760  0.46820  Biso   1.000  C
  C39      1.0000 0.22740  0.48760  0.03180  Biso   1.000  C
  C40      1.0000 0.72740  0.01240  0.53180  Biso   1.000  C
  C41      1.0000 0.72650  0.52050  0.91520  Biso   1.000  C
  C42      1.0000 0.22650  0.97950  0.41520  Biso   1.000  C
  C43      1.0000 0.27350  0.47950  0.08480  Biso   1.000  C
  C44      1.0000 0.77350  0.02050  0.58480  Biso   1.000  C
  C45      1.0000 0.66190  0.45600  0.91980  Biso   1.000  C
  C46      1.0000 0.16190  0.04400  0.41980  Biso   1.000  C
  C47      1.0000 0.33810  0.54400  0.08020  Biso   1.000  C
  C48      1.0000 0.83810  0.95600  0.58020  Biso   1.000  C
  C49      1.0000 0.64767  0.38140  0.97841  Biso   1.000  C
  C50      1.0000 0.14767  0.11860  0.47841  Biso   1.000  C
  C51      1.0000 0.35233  0.61860  0.02159  Biso   1.000  C
  C52      1.0000 0.85233  0.88140  0.52159  Biso   1.000  C
  C53      1.0000 0.58120  0.31220  0.99006  Biso   1.000  C
  C54      1.0000 0.08120  0.18780  0.49006  Biso   1.000  C
  C55      1.0000 0.41880  0.68780  0.00994  Biso   1.000  C
  C56      1.0000 0.91880  0.81220  0.50994  Biso   1.000  C
  C57      1.0000 0.52422  0.32110  0.94590  Biso   1.000  C
  C58      1.0000 0.02422  0.17890  0.44590  Biso   1.000  C
  C59      1.0000 0.47578  0.67890  0.05410  Biso   1.000  C
  C60      1.0000 0.97578  0.82110  0.55410  Biso   1.000  C
  C61      1.0000 0.46320  0.26460  0.96460  Biso   1.000  C
  C62      1.0000 0.96320  0.23540  0.46460  Biso   1.000  C
  C63      1.0000 0.53680  0.73540  0.03540  Biso   1.000  C
  C64      1.0000 0.03680  0.76460  0.53540  Biso   1.000  C
  C65      1.0000 0.46122  0.20290  0.02760  Biso   1.000  C
  C66      1.0000 0.96122  0.29710  0.52760  Biso   1.000  C
  C67      1.0000 0.53878  0.79710  0.97240  Biso   1.000  C
  C68      1.0000 0.03878  0.70290  0.47240  Biso   1.000  C
  C69      1.0000 0.51982  0.19140  0.06930  Biso   1.000  C
  C70      1.0000 0.01982  0.30860  0.56930  Biso   1.000  C
  C71      1.0000 0.48018  0.80860  0.93070  Biso   1.000  C
  C72      1.0000 0.98018  0.69140  0.43070  Biso   1.000  C
  C73      1.0000 0.52390  0.20040  0.45180  Biso   1.000  C
  C74      1.0000 0.02390  0.29960  0.95180  Biso   1.000  C
  C75      1.0000 0.47610  0.79960  0.54820  Biso   1.000  C
  C76      1.0000 0.97610  0.70040  0.04820  Biso   1.000  C
  C77      1.0000 0.53250  0.22060  0.51830  Biso   1.000  C
  C78      1.0000 0.03250  0.27940  0.01830  Biso   1.000  C
  C79      1.0000 0.46750  0.77940  0.48170  Biso   1.000  C
  C80      1.0000 0.96750  0.72060  0.98170  Biso   1.000  C
  C81      1.0000 0.48050  0.28980  0.54890  Biso   1.000  C
  C82      1.0000 0.98050  0.21020  0.04890  Biso   1.000  C
  C83      1.0000 0.51950  0.71020  0.45110  Biso   1.000  C
  C84      1.0000 0.01950  0.78980  0.95110  Biso   1.000  C
  C85      1.0000 0.42220  0.34340  0.51200  Biso   1.000  C
  C86      1.0000 0.92220  0.15660  0.01200  Biso   1.000  C
  C87      1.0000 0.57780  0.65660  0.48800  Biso   1.000  C
  C88      1.0000 0.07780  0.84340  0.98800  Biso   1.000  C
  C89      1.0000 0.41596  0.32480  0.44470  Biso   1.000  C
  C90      1.0000 0.91596  0.17520  0.94470  Biso   1.000  C
  C91      1.0000 0.58404  0.67520  0.55530  Biso   1.000  C
  C92      1.0000 0.08404  0.82480  0.05530  Biso   1.000  C
  C93      1.0000 0.35906  0.38570  0.40000  Biso   1.000  C
  C94      1.0000 0.85906  0.11430  0.90000  Biso   1.000  C
  C95      1.0000 0.64094  0.61430  0.60000  Biso   1.000  C
  C96      1.0000 0.14094  0.88570  0.10000  Biso   1.000  C
  C97      1.0000 0.30050  0.46060  0.41880  Biso   1.000  C
  C98      1.0000 0.80050  0.03940  0.91880  Biso   1.000  C
  C99      1.0000 0.69950  0.53940  0.58120  Biso   1.000  C
  C100     1.0000 0.19950  0.96060  0.08120  Biso   1.000  C
  C101     1.0000 0.24940  0.50480  0.37330  Biso   1.000  C
  C102     1.0000 0.74940  0.99520  0.87330  Biso   1.000  C
  C103     1.0000 0.75060  0.49520  0.62670  Biso   1.000  C
  C104     1.0000 0.25060  0.00480  0.12670  Biso   1.000  C
  C105     1.0000 0.25560  0.48190  0.30830  Biso   1.000  C
  C106     1.0000 0.75560  0.01810  0.80830  Biso   1.000  C
  C107     1.0000 0.74440  0.51810  0.69170  Biso   1.000  C
  C108     1.0000 0.24440  0.98190  0.19170  Biso   1.000  C
  C109     1.0000 0.31540  0.41090  0.29140  Biso   1.000  C
  C110     1.0000 0.81540  0.08910  0.79140  Biso   1.000  C
  C111     1.0000 0.68460  0.58910  0.70860  Biso   1.000  C
  C112     1.0000 0.18460  0.91090  0.20860  Biso   1.000  C
  O1       1.0000 0.83860  0.79230  0.10080  Biso   1.000  O
  O2       1.0000 0.33860  0.70770  0.60080  Biso   1.000  O
  O3       1.0000 0.16140  0.20770  0.89920  Biso   1.000  O
  O4       1.0000 0.66140  0.29230  0.39920  Biso   1.000  O
  O5       1.0000 0.42020  0.73810  0.20250  Biso   1.000  O
  O6       1.0000 0.92020  0.76190  0.70250  Biso   1.000  O
  O7       1.0000 0.57980  0.26190  0.79750  Biso   1.000  O
  O8       1.0000 0.07980  0.23810  0.29750  Biso   1.000  O
  H5       1.0000 0.52190  0.14800  0.11520  Biso   1.000  H
  H6       1.0000 0.02190  0.35200  0.61520  Biso   1.000  H
  H7       1.0000 0.47810  0.85200  0.88480  Biso   1.000  H
  H8       1.0000 0.97810  0.64800  0.38480  Biso   1.000  H
  H9       1.0000 0.41760  0.17000  0.04360  Biso   1.000  H
  H10      1.0000 0.91760  0.33000  0.54360  Biso   1.000  H
  H11      1.0000 0.58240  0.83000  0.95640  Biso   1.000  H
  H12      1.0000 0.08240  0.67000  0.45640  Biso   1.000  H
  H13      1.0000 0.42400  0.27800  0.93600  Biso   1.000  H
  H14      1.0000 0.92400  0.22200  0.43600  Biso   1.000  H
  H15      1.0000 0.57600  0.72200  0.06400  Biso   1.000  H
  H16      1.0000 0.07600  0.77800  0.56400  Biso   1.000  H
  H17      1.0000 0.52360  0.35800  0.89900  Biso   1.000  H
  H18      1.0000 0.02360  0.14200  0.39900  Biso   1.000  H
  H19      1.0000 0.47640  0.64200  0.10100  Biso   1.000  H
  H20      1.0000 0.97640  0.85800  0.60100  Biso   1.000  H
  H21      1.0000 0.62600  0.45700  0.88300  Biso   1.000  H
  H22      1.0000 0.12600  0.04300  0.38300  Biso   1.000  H
  H23      1.0000 0.37400  0.54300  0.11700  Biso   1.000  H
  H24      1.0000 0.87400  0.95700  0.61700  Biso   1.000  H
  H25      1.0000 0.73560  0.56400  0.88100  Biso   1.000  H
  H26      1.0000 0.23560  0.93600  0.38100  Biso   1.000  H
  H27      1.0000 0.26440  0.43600  0.11900  Biso   1.000  H
  H28      1.0000 0.76440  0.06400  0.61900  Biso   1.000  H
  H29      1.0000 0.81400  0.54700  0.96700  Biso   1.000  H
  H30      1.0000 0.31400  0.95300  0.46700  Biso   1.000  H
  H31      1.0000 0.18600  0.45300  0.03300  Biso   1.000  H
  H32      1.0000 0.68600  0.04700  0.53300  Biso   1.000  H
  H33      1.0000 0.55700  0.14800  0.42700  Biso   1.000  H
  H34      1.0000 0.05700  0.35200  0.92700  Biso   1.000  H
  H35      1.0000 0.44300  0.85200  0.57300  Biso   1.000  H
  H36      1.0000 0.94300  0.64800  0.07300  Biso   1.000  H
  H37      1.0000 0.57300  0.19600  0.54600  Biso   1.000  H
  H38      1.0000 0.07300  0.30400  0.04600  Biso   1.000  H
  H39      1.0000 0.42700  0.80400  0.45400  Biso   1.000  H
  H40      1.0000 0.92700  0.69600  0.95400  Biso   1.000  H
  H41      1.0000 0.48400  0.31000  0.59100  Biso   1.000  H
  H42      1.0000 0.98400  0.19000  0.09100  Biso   1.000  H
  H43      1.0000 0.51600  0.69000  0.40900  Biso   1.000  H
  H44      1.0000 0.01600  0.81000  0.90900  Biso   1.000  H
  H45      1.0000 0.38690  0.39000  0.52630  Biso   1.000  H
  H46      1.0000 0.88690  0.11000  0.02630  Biso   1.000  H
  H47      1.0000 0.61310  0.61000  0.47370  Biso   1.000  H
  H48      1.0000 0.11310  0.89000  0.97370  Biso   1.000  H
  H49      1.0000 0.29900  0.46900  0.46100  Biso   1.000  H
  H50      1.0000 0.79900  0.03100  0.96100  Biso   1.000  H
  H51      1.0000 0.70100  0.53100  0.53900  Biso   1.000  H
  H52      1.0000 0.20100  0.96900  0.03900  Biso   1.000  H
  H53      1.0000 0.21310  0.55200  0.38200  Biso   1.000  H
  H54      1.0000 0.71310  0.94800  0.88200  Biso   1.000  H
  H55      1.0000 0.78690  0.44800  0.61800  Biso   1.000  H
  H56      1.0000 0.28690  0.05200  0.11800  Biso   1.000  H
  H57      1.0000 0.22800  0.51500  0.27200  Biso   1.000  H
  H58      1.0000 0.72800  0.98500  0.77200  Biso   1.000  H
  H59      1.0000 0.77200  0.48500  0.72800  Biso   1.000  H
  H60      1.0000 0.27200  0.01500  0.22800  Biso   1.000  H
  H61      1.0000 0.32640  0.40400  0.25310  Biso   1.000  H
  H62      1.0000 0.82640  0.09600  0.75310  Biso   1.000  H
  H63      1.0000 0.67360  0.59600  0.74690  Biso   1.000  H
  H64      1.0000 0.17360  0.90400  0.24690  Biso   1.000  H
