data_image0
_cell_length_a       10.2536
_cell_length_b       19.8774
_cell_length_c       14.8763
_cell_angle_alpha    90
_cell_angle_beta     90
_cell_angle_gamma    90

_symmetry_space_group_name_H-M    "P 1"
_symmetry_int_tables_number       1

loop_
  _symmetry_equiv_pos_as_xyz
  'x, y, z'

loop_
  _atom_site_label
  _atom_site_occupancy
  _atom_site_fract_x
  _atom_site_fract_y
  _atom_site_fract_z
  _atom_site_thermal_displace_type
  _atom_site_B_iso_or_equiv
  _atom_site_type_symbol
  Cu1      1.0000 0.68572  0.25000  0.25668  Biso   1.000  Cu
  Cu2      1.0000 0.81428  0.75000  0.75668  Biso   1.000  Cu
  Cu3      1.0000 0.18572  0.25000  0.24332  Biso   1.000  Cu
  Cu4      1.0000 0.31428  0.75000  0.74332  Biso   1.000  Cu
  O1       1.0000 0.77327  0.82123  0.67123  Biso   1.000  O
  O2       1.0000 0.72673  0.17877  0.17123  Biso   1.000  O
  O3       1.0000 0.27327  0.67877  0.82877  Biso   1.000  O
  O4       1.0000 0.22673  0.32123  0.32877  Biso   1.000  O
  O5       1.0000 0.22673  0.17877  0.32877  Biso   1.000  O
  O6       1.0000 0.27327  0.82123  0.82877  Biso   1.000  O
  O7       1.0000 0.72673  0.32123  0.17123  Biso   1.000  O
  O8       1.0000 0.77327  0.67877  0.67123  Biso   1.000  O
  O9       1.0000 0.90370  0.25000  0.28750  Biso   1.000  O
  O10      1.0000 0.59630  0.75000  0.78750  Biso   1.000  O
  O11      1.0000 0.40370  0.25000  0.21250  Biso   1.000  O
  O12      1.0000 0.09630  0.75000  0.71250  Biso   1.000  O
  O13      1.0000 0.97466  0.85410  0.63369  Biso   1.000  O
  O14      1.0000 0.52534  0.14590  0.13369  Biso   1.000  O
  O15      1.0000 0.47466  0.64590  0.86631  Biso   1.000  O
  O16      1.0000 0.02534  0.35410  0.36631  Biso   1.000  O
  O17      1.0000 0.02534  0.14590  0.36631  Biso   1.000  O
  O18      1.0000 0.47466  0.85410  0.86631  Biso   1.000  O
  O19      1.0000 0.52534  0.35410  0.13369  Biso   1.000  O
  O20      1.0000 0.97466  0.64590  0.63369  Biso   1.000  O
  N1       1.0000 0.63980  0.17974  0.34854  Biso   1.000  N
  N2       1.0000 0.86020  0.82026  0.84854  Biso   1.000  N
  N3       1.0000 0.13980  0.32026  0.15146  Biso   1.000  N
  N4       1.0000 0.36020  0.67974  0.65146  Biso   1.000  N
  N5       1.0000 0.36020  0.82026  0.65146  Biso   1.000  N
  N6       1.0000 0.13980  0.17974  0.15146  Biso   1.000  N
  N7       1.0000 0.86020  0.67974  0.84854  Biso   1.000  N
  N8       1.0000 0.63980  0.32026  0.34854  Biso   1.000  N
  N9       1.0000 0.55867  0.19038  0.41961  Biso   1.000  N
  N10      1.0000 0.94133  0.80962  0.91961  Biso   1.000  N
  N11      1.0000 0.05867  0.30962  0.08039  Biso   1.000  N
  N12      1.0000 0.44133  0.69038  0.58039  Biso   1.000  N
  N13      1.0000 0.44133  0.80962  0.58039  Biso   1.000  N
  N14      1.0000 0.05867  0.19038  0.08039  Biso   1.000  N
  N15      1.0000 0.94133  0.69038  0.91961  Biso   1.000  N
  N16      1.0000 0.55867  0.30962  0.41961  Biso   1.000  N
  C1       1.0000 0.70220  0.12233  0.36691  Biso   1.000  C
  C2       1.0000 0.79780  0.87767  0.86691  Biso   1.000  C
  C3       1.0000 0.20220  0.37767  0.13309  Biso   1.000  C
  C4       1.0000 0.29780  0.62233  0.63309  Biso   1.000  C
  C5       1.0000 0.29780  0.87767  0.63309  Biso   1.000  C
  C6       1.0000 0.20220  0.12233  0.13309  Biso   1.000  C
  C7       1.0000 0.79780  0.62233  0.86691  Biso   1.000  C
  C8       1.0000 0.70220  0.37767  0.36691  Biso   1.000  C
  H1       1.0000 0.76650  0.10250  0.32930  Biso   1.000  H
  H2       1.0000 0.73350  0.89750  0.82930  Biso   1.000  H
  H3       1.0000 0.26650  0.39750  0.17070  Biso   1.000  H
  H4       1.0000 0.23350  0.60250  0.67070  Biso   1.000  H
  H5       1.0000 0.23350  0.89750  0.67070  Biso   1.000  H
  H6       1.0000 0.26650  0.10250  0.17070  Biso   1.000  H
  H7       1.0000 0.73350  0.60250  0.82930  Biso   1.000  H
  H8       1.0000 0.76650  0.39750  0.32930  Biso   1.000  H
  C9       1.0000 0.47700  0.25000  0.42030  Biso   1.000  C
  C10      1.0000 0.02300  0.75000  0.92030  Biso   1.000  C
  C11      1.0000 0.97700  0.25000  0.07970  Biso   1.000  C
  C12      1.0000 0.52300  0.75000  0.57970  Biso   1.000  C
  H9       1.0000 0.41950  0.25000  0.36680  Biso   1.000  H
  H10      1.0000 0.08050  0.75000  0.86680  Biso   1.000  H
  H11      1.0000 0.91950  0.25000  0.13320  Biso   1.000  H
  H12      1.0000 0.58050  0.75000  0.63320  Biso   1.000  H
  H13      1.0000 0.42140  0.25000  0.47470  Biso   1.000  H
  H14      1.0000 0.07860  0.75000  0.97470  Biso   1.000  H
  H15      1.0000 0.92140  0.25000  0.02530  Biso   1.000  H
  H16      1.0000 0.57860  0.75000  0.52530  Biso   1.000  H
  C13      1.0000 0.67890  0.94659  0.60605  Biso   1.000  C
  C14      1.0000 0.82110  0.05341  0.10605  Biso   1.000  C
  C15      1.0000 0.17890  0.55341  0.89395  Biso   1.000  C
  C16      1.0000 0.32110  0.44659  0.39395  Biso   1.000  C
  C17      1.0000 0.32110  0.05341  0.39395  Biso   1.000  C
  C18      1.0000 0.17890  0.94659  0.89395  Biso   1.000  C
  C19      1.0000 0.82110  0.44659  0.10605  Biso   1.000  C
  C20      1.0000 0.67890  0.55341  0.60605  Biso   1.000  C
  H17      1.0000 0.62880  0.92680  0.65280  Biso   1.000  H
  H18      1.0000 0.87120  0.07320  0.15280  Biso   1.000  H
  H19      1.0000 0.12880  0.57320  0.84720  Biso   1.000  H
  H20      1.0000 0.37120  0.42680  0.34720  Biso   1.000  H
  H21      1.0000 0.37120  0.07320  0.34720  Biso   1.000  H
  H22      1.0000 0.12880  0.92680  0.84720  Biso   1.000  H
  H23      1.0000 0.87120  0.42680  0.15280  Biso   1.000  H
  H24      1.0000 0.62880  0.57320  0.65280  Biso   1.000  H
  C21      1.0000 0.79730  0.91759  0.58048  Biso   1.000  C
  C22      1.0000 0.70270  0.08241  0.08048  Biso   1.000  C
  C23      1.0000 0.29730  0.58241  0.91952  Biso   1.000  C
  C24      1.0000 0.20270  0.41759  0.41952  Biso   1.000  C
  C25      1.0000 0.20270  0.08241  0.41952  Biso   1.000  C
  C26      1.0000 0.29730  0.91759  0.91952  Biso   1.000  C
  C27      1.0000 0.70270  0.41759  0.08048  Biso   1.000  C
  C28      1.0000 0.79730  0.58241  0.58048  Biso   1.000  C
  C29      1.0000 0.66010  0.09524  0.44922  Biso   1.000  C
  C30      1.0000 0.83990  0.90476  0.94922  Biso   1.000  C
  C31      1.0000 0.16010  0.40476  0.05078  Biso   1.000  C
  C32      1.0000 0.33990  0.59524  0.55078  Biso   1.000  C
  C33      1.0000 0.33990  0.90476  0.55078  Biso   1.000  C
  C34      1.0000 0.16010  0.09524  0.05078  Biso   1.000  C
  C35      1.0000 0.83990  0.59524  0.94922  Biso   1.000  C
  C36      1.0000 0.66010  0.40476  0.44922  Biso   1.000  C
  C37      1.0000 0.56800  0.14108  0.48090  Biso   1.000  C
  C38      1.0000 0.93200  0.85892  0.98090  Biso   1.000  C
  C39      1.0000 0.06800  0.35892  0.01910  Biso   1.000  C
  C40      1.0000 0.43200  0.64108  0.51910  Biso   1.000  C
  C41      1.0000 0.43200  0.85892  0.51910  Biso   1.000  C
  C42      1.0000 0.06800  0.14108  0.01910  Biso   1.000  C
  C43      1.0000 0.93200  0.64108  0.98090  Biso   1.000  C
  C44      1.0000 0.56800  0.35892  0.48090  Biso   1.000  C
  H25      1.0000 0.52060  0.13800  0.53560  Biso   1.000  H
  H26      1.0000 0.97940  0.86200  0.03560  Biso   1.000  H
  H27      1.0000 0.02060  0.36200  0.96440  Biso   1.000  H
  H28      1.0000 0.47940  0.63800  0.46440  Biso   1.000  H
  H29      1.0000 0.47940  0.86200  0.46440  Biso   1.000  H
  H30      1.0000 0.02060  0.13800  0.96440  Biso   1.000  H
  H31      1.0000 0.97940  0.63800  0.03560  Biso   1.000  H
  H32      1.0000 0.52060  0.36200  0.53560  Biso   1.000  H
  C45      1.0000 0.70460  0.03310  0.49308  Biso   1.000  C
  C46      1.0000 0.79540  0.96690  0.99308  Biso   1.000  C
  C47      1.0000 0.20460  0.46690  0.00692  Biso   1.000  C
  C48      1.0000 0.29540  0.53310  0.50692  Biso   1.000  C
  C49      1.0000 0.29540  0.96690  0.50692  Biso   1.000  C
  C50      1.0000 0.20460  0.03310  0.00692  Biso   1.000  C
  C51      1.0000 0.79540  0.53310  0.99308  Biso   1.000  C
  C52      1.0000 0.70460  0.46690  0.49308  Biso   1.000  C
  C53      1.0000 0.63460  0.00407  0.56337  Biso   1.000  C
  C54      1.0000 0.86540  0.99593  0.06337  Biso   1.000  C
  C55      1.0000 0.13460  0.49593  0.93663  Biso   1.000  C
  C56      1.0000 0.36540  0.50407  0.43663  Biso   1.000  C
  C57      1.0000 0.36540  0.99593  0.43663  Biso   1.000  C
  C58      1.0000 0.13460  0.00407  0.93663  Biso   1.000  C
  C59      1.0000 0.86540  0.50407  0.06337  Biso   1.000  C
  C60      1.0000 0.63460  0.49593  0.56337  Biso   1.000  C
  H33      1.0000 0.55500  0.02410  0.58230  Biso   1.000  H
  H34      1.0000 0.94500  0.97590  0.08230  Biso   1.000  H
  H35      1.0000 0.05500  0.47590  0.91770  Biso   1.000  H
  H36      1.0000 0.44500  0.52410  0.41770  Biso   1.000  H
  H37      1.0000 0.44500  0.97590  0.41770  Biso   1.000  H
  H38      1.0000 0.05500  0.02410  0.91770  Biso   1.000  H
  H39      1.0000 0.94500  0.52410  0.08230  Biso   1.000  H
  H40      1.0000 0.55500  0.47590  0.58230  Biso   1.000  H
  C61      1.0000 0.85410  0.85966  0.63224  Biso   1.000  C
  C62      1.0000 0.64590  0.14034  0.13224  Biso   1.000  C
  C63      1.0000 0.35410  0.64034  0.86776  Biso   1.000  C
  C64      1.0000 0.14590  0.35966  0.36776  Biso   1.000  C
  C65      1.0000 0.14590  0.14034  0.36776  Biso   1.000  C
  C66      1.0000 0.35410  0.85966  0.86776  Biso   1.000  C
  C67      1.0000 0.64590  0.35966  0.13224  Biso   1.000  C
  C68      1.0000 0.85410  0.64034  0.63224  Biso   1.000  C
  C69      1.0000 0.82010  0.00201  0.46500  Biso   1.000  C
  C70      1.0000 0.67990  0.99799  0.96500  Biso   1.000  C
  C71      1.0000 0.32010  0.49799  0.03500  Biso   1.000  C
  C72      1.0000 0.17990  0.50201  0.53500  Biso   1.000  C
  C73      1.0000 0.17990  0.99799  0.53500  Biso   1.000  C
  C74      1.0000 0.32010  0.00201  0.03500  Biso   1.000  C
  C75      1.0000 0.67990  0.50201  0.96500  Biso   1.000  C
  C76      1.0000 0.82010  0.49799  0.46500  Biso   1.000  C
  H41      1.0000 0.86730  0.01970  0.41530  Biso   1.000  H
  H42      1.0000 0.63270  0.98030  0.91530  Biso   1.000  H
  H43      1.0000 0.36730  0.48030  0.08470  Biso   1.000  H
  H44      1.0000 0.13270  0.51970  0.58470  Biso   1.000  H
  H45      1.0000 0.13270  0.98030  0.58470  Biso   1.000  H
  H46      1.0000 0.36730  0.01970  0.08470  Biso   1.000  H
  H47      1.0000 0.63270  0.51970  0.91530  Biso   1.000  H
  H48      1.0000 0.86730  0.48030  0.41530  Biso   1.000  H
  C77      1.0000 0.86570  0.94549  0.50950  Biso   1.000  C
  C78      1.0000 0.63430  0.05451  0.00950  Biso   1.000  C
  C79      1.0000 0.36570  0.55451  0.99050  Biso   1.000  C
  C80      1.0000 0.13430  0.44549  0.49050  Biso   1.000  C
  C81      1.0000 0.13430  0.05451  0.49050  Biso   1.000  C
  C82      1.0000 0.36570  0.94549  0.99050  Biso   1.000  C
  C83      1.0000 0.63430  0.44549  0.00950  Biso   1.000  C
  C84      1.0000 0.86570  0.55451  0.50950  Biso   1.000  C
  H49      1.0000 0.94540  0.92550  0.49090  Biso   1.000  H
  H50      1.0000 0.55460  0.07450  0.99090  Biso   1.000  H
  H51      1.0000 0.44540  0.57450  0.00910  Biso   1.000  H
  H52      1.0000 0.05460  0.42550  0.50910  Biso   1.000  H
  H53      1.0000 0.05460  0.07450  0.50910  Biso   1.000  H
  H54      1.0000 0.44540  0.92550  0.00910  Biso   1.000  H
  H55      1.0000 0.55460  0.42550  0.99090  Biso   1.000  H
  H56      1.0000 0.94540  0.57450  0.49090  Biso   1.000  H
  H57      1.0000 0.92200  0.27830  0.31100  Biso   1.000  H
  H58      1.0000 0.57800  0.72170  0.81100  Biso   1.000  H
  H59      1.0000 0.42200  0.22170  0.18900  Biso   1.000  H
  H60      1.0000 0.07800  0.77830  0.68900  Biso   1.000  H
  H61      1.0000 0.07800  0.72170  0.68900  Biso   1.000  H
  H62      1.0000 0.42200  0.27830  0.18900  Biso   1.000  H
  H63      1.0000 0.57800  0.77830  0.81100  Biso   1.000  H
  H64      1.0000 0.92200  0.22170  0.31100  Biso   1.000  H
  O21      1.0000 0.39520  0.13500  0.65570  Biso   1.000  O
  O22      1.0000 0.10480  0.86500  0.15570  Biso   1.000  O
  O23      1.0000 0.89520  0.36500  0.84430  Biso   1.000  O
  O24      1.0000 0.60480  0.63500  0.34430  Biso   1.000  O
  O25      1.0000 0.60480  0.86500  0.34430  Biso   1.000  O
  O26      1.0000 0.89520  0.13500  0.84430  Biso   1.000  O
  O27      1.0000 0.10480  0.63500  0.15570  Biso   1.000  O
  O28      1.0000 0.39520  0.36500  0.65570  Biso   1.000  O
  C85      1.0000 0.22970  0.14110  0.76400  Biso   1.000  C
  C86      1.0000 0.27030  0.85890  0.26400  Biso   1.000  C
  C87      1.0000 0.72970  0.35890  0.73600  Biso   1.000  C
  C88      1.0000 0.77030  0.64110  0.23600  Biso   1.000  C
  C89      1.0000 0.77030  0.85890  0.23600  Biso   1.000  C
  C90      1.0000 0.72970  0.14110  0.73600  Biso   1.000  C
  C91      1.0000 0.27030  0.64110  0.26400  Biso   1.000  C
  C92      1.0000 0.22970  0.35890  0.76400  Biso   1.000  C
  H65      1.0000 0.21550  0.18580  0.73800  Biso   1.000  H
  H66      1.0000 0.28450  0.81420  0.23800  Biso   1.000  H
  H67      1.0000 0.71550  0.31420  0.76200  Biso   1.000  H
  H68      1.0000 0.78450  0.68580  0.26200  Biso   1.000  H
  H69      1.0000 0.78450  0.81420  0.26200  Biso   1.000  H
  H70      1.0000 0.71550  0.18580  0.76200  Biso   1.000  H
  H71      1.0000 0.28450  0.68580  0.23800  Biso   1.000  H
  H72      1.0000 0.21550  0.31420  0.73800  Biso   1.000  H
  H73      1.0000 0.24220  0.14530  0.82910  Biso   1.000  H
  H74      1.0000 0.25780  0.85470  0.32910  Biso   1.000  H
  H75      1.0000 0.74220  0.35470  0.67090  Biso   1.000  H
  H76      1.0000 0.75780  0.64530  0.17090  Biso   1.000  H
  H77      1.0000 0.75780  0.85470  0.17090  Biso   1.000  H
  H78      1.0000 0.74220  0.14530  0.67090  Biso   1.000  H
  H79      1.0000 0.25780  0.64530  0.32910  Biso   1.000  H
  H80      1.0000 0.24220  0.35470  0.82910  Biso   1.000  H
  H81      1.0000 0.15370  0.11260  0.75190  Biso   1.000  H
  H82      1.0000 0.34630  0.88740  0.25190  Biso   1.000  H
  H83      1.0000 0.65370  0.38740  0.74810  Biso   1.000  H
  H84      1.0000 0.84630  0.61260  0.24810  Biso   1.000  H
  H85      1.0000 0.84630  0.88740  0.24810  Biso   1.000  H
  H86      1.0000 0.65370  0.11260  0.74810  Biso   1.000  H
  H87      1.0000 0.34630  0.61260  0.25190  Biso   1.000  H
  H88      1.0000 0.15370  0.38740  0.75190  Biso   1.000  H
  C93      1.0000 0.34830  0.11010  0.72280  Biso   1.000  C
  C94      1.0000 0.15170  0.88990  0.22280  Biso   1.000  C
  C95      1.0000 0.84830  0.38990  0.77720  Biso   1.000  C
  C96      1.0000 0.65170  0.61010  0.27720  Biso   1.000  C
  C97      1.0000 0.65170  0.88990  0.27720  Biso   1.000  C
  C98      1.0000 0.84830  0.11010  0.77720  Biso   1.000  C
  C99      1.0000 0.15170  0.61010  0.22280  Biso   1.000  C
  C100     1.0000 0.34830  0.38990  0.72280  Biso   1.000  C
  C101     1.0000 0.39860  0.04870  0.76580  Biso   1.000  C
  C102     1.0000 0.10140  0.95130  0.26580  Biso   1.000  C
  C103     1.0000 0.89860  0.45130  0.73420  Biso   1.000  C
  C104     1.0000 0.60140  0.54870  0.23420  Biso   1.000  C
  C105     1.0000 0.60140  0.95130  0.23420  Biso   1.000  C
  C106     1.0000 0.89860  0.04870  0.73420  Biso   1.000  C
  C107     1.0000 0.10140  0.54870  0.26580  Biso   1.000  C
  C108     1.0000 0.39860  0.45130  0.76580  Biso   1.000  C
  H89      1.0000 0.33740  0.01160  0.75570  Biso   1.000  H
  H90      1.0000 0.16260  0.98840  0.25570  Biso   1.000  H
  H91      1.0000 0.83740  0.48840  0.74430  Biso   1.000  H
  H92      1.0000 0.66260  0.51160  0.24430  Biso   1.000  H
  H93      1.0000 0.66260  0.98840  0.24430  Biso   1.000  H
  H94      1.0000 0.83740  0.01160  0.74430  Biso   1.000  H
  H95      1.0000 0.16260  0.51160  0.25570  Biso   1.000  H
  H96      1.0000 0.33740  0.48840  0.75570  Biso   1.000  H
  H97      1.0000 0.40830  0.05640  0.83060  Biso   1.000  H
  H98      1.0000 0.09170  0.94360  0.33060  Biso   1.000  H
  H99      1.0000 0.90830  0.44360  0.66940  Biso   1.000  H
  H100     1.0000 0.59170  0.55640  0.16940  Biso   1.000  H
  H101     1.0000 0.59170  0.94360  0.16940  Biso   1.000  H
  H102     1.0000 0.90830  0.05640  0.66940  Biso   1.000  H
  H103     1.0000 0.09170  0.55640  0.33060  Biso   1.000  H
  H104     1.0000 0.40830  0.44360  0.83060  Biso   1.000  H
  H105     1.0000 0.48360  0.03720  0.73990  Biso   1.000  H
  H106     1.0000 0.01640  0.96280  0.23990  Biso   1.000  H
  H107     1.0000 0.98360  0.46280  0.76010  Biso   1.000  H
  H108     1.0000 0.51640  0.53720  0.26010  Biso   1.000  H
  H109     1.0000 0.51640  0.96280  0.26010  Biso   1.000  H
  H110     1.0000 0.98360  0.03720  0.76010  Biso   1.000  H
  H111     1.0000 0.01640  0.53720  0.23990  Biso   1.000  H
  H112     1.0000 0.48360  0.46280  0.73990  Biso   1.000  H
  C109     1.0000 0.11830  0.25000  0.54900  Biso   1.000  C
  C110     1.0000 0.38170  0.75000  0.04900  Biso   1.000  C
  C111     1.0000 0.61830  0.25000  0.95100  Biso   1.000  C
  C112     1.0000 0.88170  0.75000  0.45100  Biso   1.000  C
  H113     1.0000 0.13810  0.20800  0.58060  Biso   1.000  H
  H114     1.0000 0.36190  0.79200  0.08060  Biso   1.000  H
  H115     1.0000 0.63810  0.29200  0.91940  Biso   1.000  H
  H116     1.0000 0.86190  0.70800  0.41940  Biso   1.000  H
  H117     1.0000 0.86190  0.79200  0.41940  Biso   1.000  H
  H118     1.0000 0.63810  0.20800  0.91940  Biso   1.000  H
  H119     1.0000 0.36190  0.70800  0.08060  Biso   1.000  H
  H120     1.0000 0.13810  0.29200  0.58060  Biso   1.000  H
  H121     1.0000 0.18250  0.28430  0.56580  Biso   1.000  H
  H122     1.0000 0.31750  0.71570  0.06580  Biso   1.000  H
  H123     1.0000 0.68250  0.21570  0.93420  Biso   1.000  H
  H124     1.0000 0.81750  0.78430  0.43420  Biso   1.000  H
  H125     1.0000 0.81750  0.71570  0.43420  Biso   1.000  H
  H126     1.0000 0.68250  0.28430  0.93420  Biso   1.000  H
  H127     1.0000 0.31750  0.78430  0.06580  Biso   1.000  H
  H128     1.0000 0.18250  0.21570  0.56580  Biso   1.000  H
  H129     1.0000 0.12200  0.24240  0.48400  Biso   1.000  H
  H130     1.0000 0.37800  0.75760  0.98400  Biso   1.000  H
  H131     1.0000 0.62200  0.25760  0.01600  Biso   1.000  H
  H132     1.0000 0.87800  0.74240  0.51600  Biso   1.000  H
  H133     1.0000 0.87800  0.75760  0.51600  Biso   1.000  H
  H134     1.0000 0.62200  0.24240  0.01600  Biso   1.000  H
  H135     1.0000 0.37800  0.74240  0.98400  Biso   1.000  H
  H136     1.0000 0.12200  0.25760  0.48400  Biso   1.000  H
  C113     1.0000 0.87080  0.25000  0.52700  Biso   1.000  C
  C114     1.0000 0.62920  0.75000  0.02700  Biso   1.000  C
  C115     1.0000 0.37080  0.25000  0.97300  Biso   1.000  C
  C116     1.0000 0.12920  0.75000  0.47300  Biso   1.000  C
  H137     1.0000 0.87510  0.20100  0.52040  Biso   1.000  H
  H138     1.0000 0.62490  0.79900  0.02040  Biso   1.000  H
  H139     1.0000 0.37510  0.29900  0.97960  Biso   1.000  H
  H140     1.0000 0.12490  0.70100  0.47960  Biso   1.000  H
  H141     1.0000 0.12490  0.79900  0.47960  Biso   1.000  H
  H142     1.0000 0.37510  0.20100  0.97960  Biso   1.000  H
  H143     1.0000 0.62490  0.70100  0.02040  Biso   1.000  H
  H144     1.0000 0.87510  0.29900  0.52040  Biso   1.000  H
  H145     1.0000 0.86750  0.27100  0.46750  Biso   1.000  H
  H146     1.0000 0.63250  0.72900  0.96750  Biso   1.000  H
  H147     1.0000 0.36750  0.22900  0.03250  Biso   1.000  H
  H148     1.0000 0.13250  0.77100  0.53250  Biso   1.000  H
  H149     1.0000 0.13250  0.72900  0.53250  Biso   1.000  H
  H150     1.0000 0.36750  0.27100  0.03250  Biso   1.000  H
  H151     1.0000 0.63250  0.77100  0.96750  Biso   1.000  H
  H152     1.0000 0.86750  0.22900  0.46750  Biso   1.000  H
  H153     1.0000 0.79240  0.26210  0.56100  Biso   1.000  H
  H154     1.0000 0.70760  0.73790  0.06100  Biso   1.000  H
  H155     1.0000 0.29240  0.23790  0.93900  Biso   1.000  H
  H156     1.0000 0.20760  0.76210  0.43900  Biso   1.000  H
  H157     1.0000 0.20760  0.73790  0.43900  Biso   1.000  H
  H158     1.0000 0.29240  0.26210  0.93900  Biso   1.000  H
  H159     1.0000 0.70760  0.76210  0.06100  Biso   1.000  H
  H160     1.0000 0.79240  0.23790  0.56100  Biso   1.000  H
  C117     1.0000 0.98480  0.27340  0.57450  Biso   1.000  C
  C118     1.0000 0.51520  0.72660  0.07450  Biso   1.000  C
  C119     1.0000 0.48480  0.22660  0.92550  Biso   1.000  C
  C120     1.0000 0.01520  0.77340  0.42550  Biso   1.000  C
  C121     1.0000 0.01520  0.72660  0.42550  Biso   1.000  C
  C122     1.0000 0.48480  0.27340  0.92550  Biso   1.000  C
  C123     1.0000 0.51520  0.77340  0.07450  Biso   1.000  C
  C124     1.0000 0.98480  0.22660  0.57450  Biso   1.000  C
  O29      1.0000 0.97120  0.31790  0.62910  Biso   1.000  O
  O30      1.0000 0.52880  0.68210  0.12910  Biso   1.000  O
  O31      1.0000 0.47120  0.18210  0.87090  Biso   1.000  O
  O32      1.0000 0.02880  0.81790  0.37090  Biso   1.000  O
  O33      1.0000 0.02880  0.68210  0.37090  Biso   1.000  O
  O34      1.0000 0.47120  0.31790  0.87090  Biso   1.000  O
  O35      1.0000 0.52880  0.81790  0.12910  Biso   1.000  O
  O36      1.0000 0.97120  0.18210  0.62910  Biso   1.000  O
