data_image0
_cell_length_a       6.6057
_cell_length_b       19.747
_cell_length_c       11.5891
_cell_angle_alpha    90
_cell_angle_beta     91.723
_cell_angle_gamma    90

_symmetry_space_group_name_H-M    "P 1"
_symmetry_int_tables_number       1

loop_
  _symmetry_equiv_pos_as_xyz
  'x, y, z'

loop_
  _atom_site_label
  _atom_site_occupancy
  _atom_site_fract_x
  _atom_site_fract_y
  _atom_site_fract_z
  _atom_site_thermal_displace_type
  _atom_site_B_iso_or_equiv
  _atom_site_type_symbol
  Cu1      1.0000 0.00000  0.37077  0.25000  Biso   1.000  Cu
  Cu2      1.0000 0.50000  0.87077  0.25000  Biso   1.000  Cu
  Cu3      1.0000 0.00000  0.62923  0.75000  Biso   1.000  Cu
  Cu4      1.0000 0.50000  0.12923  0.75000  Biso   1.000  Cu
  Pt1      1.0000 0.50000  0.50000  0.50000  Biso   1.000  Pt
  Pt2      1.0000 0.50000  0.50000  0.00000  Biso   1.000  Pt
  Pt3      1.0000 0.00000  0.00000  0.50000  Biso   1.000  Pt
  Pt4      1.0000 0.00000  0.00000  0.00000  Biso   1.000  Pt
  N1       1.0000 0.17440  0.29270  0.30770  Biso   1.000  N
  N2       1.0000 0.82560  0.29270  0.19230  Biso   1.000  N
  N3       1.0000 0.67440  0.79270  0.30770  Biso   1.000  N
  N4       1.0000 0.32560  0.79270  0.19230  Biso   1.000  N
  N5       1.0000 0.82560  0.70730  0.69230  Biso   1.000  N
  N6       1.0000 0.17440  0.70730  0.80770  Biso   1.000  N
  N7       1.0000 0.32560  0.20730  0.69230  Biso   1.000  N
  N8       1.0000 0.67440  0.20730  0.80770  Biso   1.000  N
  C1       1.0000 0.08910  0.10740  0.27840  Biso   1.000  C
  C2       1.0000 0.91090  0.10740  0.22160  Biso   1.000  C
  C3       1.0000 0.58910  0.60740  0.27840  Biso   1.000  C
  C4       1.0000 0.41090  0.60740  0.22160  Biso   1.000  C
  C5       1.0000 0.91090  0.89260  0.72160  Biso   1.000  C
  C6       1.0000 0.08910  0.89260  0.77840  Biso   1.000  C
  C7       1.0000 0.41090  0.39260  0.72160  Biso   1.000  C
  C8       1.0000 0.58910  0.39260  0.77840  Biso   1.000  C
  H1       1.0000 0.15150  0.06640  0.29620  Biso   1.000  H
  H2       1.0000 0.84850  0.06640  0.20380  Biso   1.000  H
  H3       1.0000 0.65150  0.56640  0.29620  Biso   1.000  H
  H4       1.0000 0.34850  0.56640  0.20380  Biso   1.000  H
  H5       1.0000 0.84850  0.93360  0.70380  Biso   1.000  H
  H6       1.0000 0.15150  0.93360  0.79620  Biso   1.000  H
  H7       1.0000 0.34850  0.43360  0.70380  Biso   1.000  H
  H8       1.0000 0.65150  0.43360  0.79620  Biso   1.000  H
  C9       1.0000 0.28890  0.46250  0.39270  Biso   1.000  C
  C10      1.0000 0.71110  0.46250  0.10730  Biso   1.000  C
  C11      1.0000 0.78890  0.96250  0.39270  Biso   1.000  C
  C12      1.0000 0.21110  0.96250  0.10730  Biso   1.000  C
  C13      1.0000 0.71110  0.53750  0.60730  Biso   1.000  C
  C14      1.0000 0.28890  0.53750  0.89270  Biso   1.000  C
  C15      1.0000 0.21110  0.03750  0.60730  Biso   1.000  C
  C16      1.0000 0.78890  0.03750  0.89270  Biso   1.000  C
  N9       1.0000 0.17460  0.43750  0.33180  Biso   1.000  N
  N10      1.0000 0.82540  0.43750  0.16820  Biso   1.000  N
  N11      1.0000 0.67460  0.93750  0.33180  Biso   1.000  N
  N12      1.0000 0.32540  0.93750  0.16820  Biso   1.000  N
  N13      1.0000 0.82540  0.56250  0.66820  Biso   1.000  N
  N14      1.0000 0.17460  0.56250  0.83180  Biso   1.000  N
  N15      1.0000 0.32540  0.06250  0.66820  Biso   1.000  N
  N16      1.0000 0.67460  0.06250  0.83180  Biso   1.000  N
  C17      1.0000 0.09490  0.23060  0.28160  Biso   1.000  C
  C18      1.0000 0.90510  0.23060  0.21840  Biso   1.000  C
  C19      1.0000 0.59490  0.73060  0.28160  Biso   1.000  C
  C20      1.0000 0.40510  0.73060  0.21840  Biso   1.000  C
  C21      1.0000 0.90510  0.76940  0.71840  Biso   1.000  C
  C22      1.0000 0.09490  0.76940  0.78160  Biso   1.000  C
  C23      1.0000 0.40510  0.26940  0.71840  Biso   1.000  C
  C24      1.0000 0.59490  0.26940  0.78160  Biso   1.000  C
  N17      1.0000 0.77990  0.37920  0.42900  Biso   1.000  N
  N18      1.0000 0.22010  0.37920  0.07100  Biso   1.000  N
  N19      1.0000 0.27990  0.87920  0.42900  Biso   1.000  N
  N20      1.0000 0.72010  0.87920  0.07100  Biso   1.000  N
  N21      1.0000 0.22010  0.62080  0.57100  Biso   1.000  N
  N22      1.0000 0.77990  0.62080  0.92900  Biso   1.000  N
  N23      1.0000 0.72010  0.12080  0.57100  Biso   1.000  N
  N24      1.0000 0.27990  0.12080  0.92900  Biso   1.000  N
  C25      1.0000 0.45210  0.23470  0.40090  Biso   1.000  C
  C26      1.0000 0.54790  0.23470  0.09910  Biso   1.000  C
  C27      1.0000 0.95210  0.73470  0.40090  Biso   1.000  C
  C28      1.0000 0.04790  0.73470  0.09910  Biso   1.000  C
  C29      1.0000 0.54790  0.76530  0.59910  Biso   1.000  C
  C30      1.0000 0.45210  0.76530  0.90090  Biso   1.000  C
  C31      1.0000 0.04790  0.26530  0.59910  Biso   1.000  C
  C32      1.0000 0.95210  0.26530  0.90090  Biso   1.000  C
  H9       1.0000 0.57510  0.23770  0.44180  Biso   1.000  H
  H10      1.0000 0.42490  0.23770  0.05820  Biso   1.000  H
  H11      1.0000 0.07510  0.73770  0.44180  Biso   1.000  H
  H12      1.0000 0.92490  0.73770  0.05820  Biso   1.000  H
  H13      1.0000 0.42490  0.76230  0.55820  Biso   1.000  H
  H14      1.0000 0.57510  0.76230  0.94180  Biso   1.000  H
  H15      1.0000 0.92490  0.26230  0.55820  Biso   1.000  H
  H16      1.0000 0.07510  0.26230  0.94180  Biso   1.000  H
  C33      1.0000 0.34980  0.29380  0.36480  Biso   1.000  C
  C34      1.0000 0.65020  0.29380  0.13520  Biso   1.000  C
  C35      1.0000 0.84980  0.79380  0.36480  Biso   1.000  C
  C36      1.0000 0.15020  0.79380  0.13520  Biso   1.000  C
  C37      1.0000 0.65020  0.70620  0.63520  Biso   1.000  C
  C38      1.0000 0.34980  0.70620  0.86480  Biso   1.000  C
  C39      1.0000 0.15020  0.20620  0.63520  Biso   1.000  C
  C40      1.0000 0.84980  0.20620  0.86480  Biso   1.000  C
  H17      1.0000 0.40860  0.33550  0.38200  Biso   1.000  H
  H18      1.0000 0.59140  0.33550  0.11800  Biso   1.000  H
  H19      1.0000 0.90860  0.83550  0.38200  Biso   1.000  H
  H20      1.0000 0.09140  0.83550  0.11800  Biso   1.000  H
  H21      1.0000 0.59140  0.66450  0.61800  Biso   1.000  H
  H22      1.0000 0.40860  0.66450  0.88200  Biso   1.000  H
  H23      1.0000 0.09140  0.16450  0.61800  Biso   1.000  H
  H24      1.0000 0.90860  0.16450  0.88200  Biso   1.000  H
  C41      1.0000 0.37000  0.17350  0.37550  Biso   1.000  C
  C42      1.0000 0.63000  0.17350  0.12450  Biso   1.000  C
  C43      1.0000 0.87000  0.67350  0.37550  Biso   1.000  C
  C44      1.0000 0.13000  0.67350  0.12450  Biso   1.000  C
  C45      1.0000 0.63000  0.82650  0.62450  Biso   1.000  C
  C46      1.0000 0.37000  0.82650  0.87550  Biso   1.000  C
  C47      1.0000 0.13000  0.32650  0.62450  Biso   1.000  C
  C48      1.0000 0.87000  0.32650  0.87550  Biso   1.000  C
  H25      1.0000 0.43570  0.13420  0.40010  Biso   1.000  H
  H26      1.0000 0.56430  0.13420  0.09990  Biso   1.000  H
  H27      1.0000 0.93570  0.63420  0.40010  Biso   1.000  H
  H28      1.0000 0.06430  0.63420  0.09990  Biso   1.000  H
  H29      1.0000 0.56430  0.86580  0.59990  Biso   1.000  H
  H30      1.0000 0.43570  0.86580  0.90010  Biso   1.000  H
  H31      1.0000 0.06430  0.36580  0.59990  Biso   1.000  H
  H32      1.0000 0.93570  0.36580  0.90010  Biso   1.000  H
  C49      1.0000 0.68270  0.42320  0.45650  Biso   1.000  C
  C50      1.0000 0.31730  0.42320  0.04350  Biso   1.000  C
  C51      1.0000 0.18270  0.92320  0.45650  Biso   1.000  C
  C52      1.0000 0.81730  0.92320  0.04350  Biso   1.000  C
  C53      1.0000 0.31730  0.57680  0.54350  Biso   1.000  C
  C54      1.0000 0.68270  0.57680  0.95650  Biso   1.000  C
  C55      1.0000 0.81730  0.07680  0.54350  Biso   1.000  C
  C56      1.0000 0.18270  0.07680  0.95650  Biso   1.000  C
  C57      1.0000 0.18650  0.16920  0.31240  Biso   1.000  C
  C58      1.0000 0.81350  0.16920  0.18760  Biso   1.000  C
  C59      1.0000 0.68650  0.66920  0.31240  Biso   1.000  C
  C60      1.0000 0.31350  0.66920  0.18760  Biso   1.000  C
  C61      1.0000 0.81350  0.83080  0.68760  Biso   1.000  C
  C62      1.0000 0.18650  0.83080  0.81240  Biso   1.000  C
  C63      1.0000 0.31350  0.33080  0.68760  Biso   1.000  C
  C64      1.0000 0.68650  0.33080  0.81240  Biso   1.000  C
