data_image0
_cell_length_a       9.383
_cell_length_b       10.11
_cell_length_c       10.51
_cell_angle_alpha    84.32
_cell_angle_beta     80.42
_cell_angle_gamma    70.61

_symmetry_space_group_name_H-M    "P 1"
_symmetry_int_tables_number       1

loop_
  _symmetry_equiv_pos_as_xyz
  'x, y, z'

loop_
  _atom_site_label
  _atom_site_occupancy
  _atom_site_fract_x
  _atom_site_fract_y
  _atom_site_fract_z
  _atom_site_thermal_displace_type
  _atom_site_B_iso_or_equiv
  _atom_site_type_symbol
  Cu1      1.0000 0.83704  0.05201  0.60102  Biso   1.000  Cu
  Cu2      1.0000 0.16296  0.94799  0.39898  Biso   1.000  Cu
  S1       1.0000 0.83108  0.84909  0.41148  Biso   1.000  S
  S2       1.0000 0.16892  0.15091  0.58852  Biso   1.000  S
  O1       1.0000 0.51260  0.06380  0.24260  Biso   1.000  O
  O2       1.0000 0.48740  0.93620  0.75740  Biso   1.000  O
  O3       1.0000 0.15120  0.46750  0.40310  Biso   1.000  O
  O4       1.0000 0.84880  0.53250  0.59690  Biso   1.000  O
  O5       1.0000 0.93070  0.92110  0.45440  Biso   1.000  O
  O6       1.0000 0.06930  0.07890  0.54560  Biso   1.000  O
  O7       1.0000 0.68710  0.88990  0.49740  Biso   1.000  O
  O8       1.0000 0.31290  0.11010  0.50260  Biso   1.000  O
  O9       1.0000 0.90950  0.69970  0.41950  Biso   1.000  O
  O10      1.0000 0.09050  0.30030  0.58050  Biso   1.000  O
  O11      1.0000 0.81410  0.89010  0.27720  Biso   1.000  O
  O12      1.0000 0.18590  0.10990  0.72280  Biso   1.000  O
  N1       1.0000 0.70840  0.32770  0.90020  Biso   1.000  N
  N2       1.0000 0.29160  0.67230  0.09980  Biso   1.000  N
  N3       1.0000 0.73810  0.17740  0.75150  Biso   1.000  N
  N4       1.0000 0.26190  0.82260  0.24850  Biso   1.000  N
  N5       1.0000 0.86170  0.74430  0.89190  Biso   1.000  N
  N6       1.0000 0.13830  0.25570  0.10810  Biso   1.000  N
  N7       1.0000 0.89820  0.89780  0.73580  Biso   1.000  N
  N8       1.0000 0.10180  0.10220  0.26420  Biso   1.000  N
  N9       1.0000 0.67870  0.41120  0.37690  Biso   1.000  N
  N10      1.0000 0.32130  0.58880  0.62310  Biso   1.000  N
  N11      1.0000 0.73720  0.20720  0.48360  Biso   1.000  N
  N12      1.0000 0.26280  0.79280  0.51640  Biso   1.000  N
  C1       1.0000 0.73170  0.43500  0.96560  Biso   1.000  C
  C2       1.0000 0.26830  0.56500  0.03440  Biso   1.000  C
  C3       1.0000 0.78330  0.53750  0.89490  Biso   1.000  C
  C4       1.0000 0.21670  0.46250  0.10510  Biso   1.000  C
  C5       1.0000 0.80880  0.63790  0.96140  Biso   1.000  C
  C6       1.0000 0.19120  0.36210  0.03860  Biso   1.000  C
  C7       1.0000 0.78000  0.63810  0.09510  Biso   1.000  C
  C8       1.0000 0.22000  0.36190  0.90490  Biso   1.000  C
  C9       1.0000 0.72780  0.53420  0.16450  Biso   1.000  C
  C10      1.0000 0.27220  0.46580  0.83550  Biso   1.000  C
  C11      1.0000 0.70380  0.43200  0.10010  Biso   1.000  C
  C12      1.0000 0.29620  0.56800  0.89990  Biso   1.000  C
  C13      1.0000 0.78310  0.28020  0.78190  Biso   1.000  C
  C14      1.0000 0.21690  0.71980  0.21810  Biso   1.000  C
  C15      1.0000 0.63370  0.15610  0.85520  Biso   1.000  C
  C16      1.0000 0.36630  0.84390  0.14480  Biso   1.000  C
  C17      1.0000 0.61400  0.24900  0.94630  Biso   1.000  C
  C18      1.0000 0.38600  0.75100  0.05370  Biso   1.000  C
  C19      1.0000 0.83290  0.79840  0.77170  Biso   1.000  C
  C20      1.0000 0.16710  0.20160  0.22830  Biso   1.000  C
  C21      1.0000 0.97240  0.90610  0.83630  Biso   1.000  C
  C22      1.0000 0.02760  0.09390  0.16370  Biso   1.000  C
  C23      1.0000 0.94920  0.81410  0.93320  Biso   1.000  C
  C24      1.0000 0.05080  0.18590  0.06680  Biso   1.000  C
  C25      1.0000 0.69370  0.54050  0.31110  Biso   1.000  C
  C26      1.0000 0.30630  0.45950  0.68890  Biso   1.000  C
  C27      1.0000 0.78770  0.31120  0.43050  Biso   1.000  C
  C28      1.0000 0.21230  0.68880  0.56950  Biso   1.000  C
  C29      1.0000 0.58670  0.24420  0.46110  Biso   1.000  C
  C30      1.0000 0.41330  0.75580  0.53890  Biso   1.000  C
  C31      1.0000 0.54970  0.37140  0.39500  Biso   1.000  C
  C32      1.0000 0.45030  0.62860  0.60500  Biso   1.000  C
  H1       1.0000 0.80130  0.53940  0.80120  Biso   1.000  H
  H2       1.0000 0.19870  0.46060  0.19880  Biso   1.000  H
  H3       1.0000 0.79650  0.71000  0.13990  Biso   1.000  H
  H4       1.0000 0.20350  0.29000  0.86010  Biso   1.000  H
  H5       1.0000 0.66720  0.35960  0.14780  Biso   1.000  H
  H6       1.0000 0.33280  0.64040  0.85220  Biso   1.000  H
  H7       1.0000 0.85780  0.31630  0.72830  Biso   1.000  H
  H8       1.0000 0.14220  0.68370  0.27170  Biso   1.000  H
  H9       1.0000 0.58160  0.08700  0.86000  Biso   1.000  H
  H10      1.0000 0.41840  0.91300  0.14000  Biso   1.000  H
  H11      1.0000 0.54750  0.25750  0.02830  Biso   1.000  H
  H12      1.0000 0.45250  0.74250  0.97170  Biso   1.000  H
  H13      1.0000 0.77380  0.76870  0.71970  Biso   1.000  H
  H14      1.0000 0.22620  0.23130  0.28030  Biso   1.000  H
  H15      1.0000 0.03090  0.96890  0.83720  Biso   1.000  H
  H16      1.0000 0.96910  0.03110  0.16280  Biso   1.000  H
  H17      1.0000 0.98680  0.79880  0.01580  Biso   1.000  H
  H18      1.0000 0.01320  0.20120  0.98420  Biso   1.000  H
  H19      1.0000 0.59830  0.61560  0.33230  Biso   1.000  H
  H20      1.0000 0.40170  0.38440  0.66770  Biso   1.000  H
  H21      1.0000 0.77530  0.56140  0.34200  Biso   1.000  H
  H22      1.0000 0.22470  0.43860  0.65800  Biso   1.000  H
  H23      1.0000 0.89010  0.31340  0.43100  Biso   1.000  H
  H24      1.0000 0.10990  0.68660  0.56900  Biso   1.000  H
  H25      1.0000 0.51950  0.18830  0.48830  Biso   1.000  H
  H26      1.0000 0.48050  0.81170  0.51170  Biso   1.000  H
  H27      1.0000 0.45220  0.42290  0.36640  Biso   1.000  H
  H28      1.0000 0.54780  0.57710  0.63360  Biso   1.000  H
