data_image0
_cell_length_a       8.676
_cell_length_b       9.911
_cell_length_c       9.999
_cell_angle_alpha    82.3
_cell_angle_beta     81.31
_cell_angle_gamma    89.57

_symmetry_space_group_name_H-M    "P 1"
_symmetry_int_tables_number       1

loop_
  _symmetry_equiv_pos_as_xyz
  'x, y, z'

loop_
  _atom_site_label
  _atom_site_occupancy
  _atom_site_fract_x
  _atom_site_fract_y
  _atom_site_fract_z
  _atom_site_thermal_displace_type
  _atom_site_B_iso_or_equiv
  _atom_site_type_symbol
  Cu1      1.0000 0.50000  0.50000  0.50000  Biso   1.000  Cu
  Cu2      1.0000 0.00000  0.50000  0.00000  Biso   1.000  Cu
  S1       1.0000 0.27369  0.35613  0.71874  Biso   1.000  S
  S2       1.0000 0.72631  0.64387  0.28126  Biso   1.000  S
  O1       1.0000 0.33500  0.03800  0.94010  Biso   1.000  O
  O2       1.0000 0.66500  0.96200  0.05990  Biso   1.000  O
  O3       1.0000 0.44650  0.37290  0.67090  Biso   1.000  O
  O4       1.0000 0.55350  0.62710  0.32910  Biso   1.000  O
  O5       1.0000 0.19490  0.42890  0.61120  Biso   1.000  O
  O6       1.0000 0.80510  0.57110  0.38880  Biso   1.000  O
  O7       1.0000 0.23480  0.21020  0.73770  Biso   1.000  O
  O8       1.0000 0.76520  0.78980  0.26230  Biso   1.000  O
  O9       1.0000 0.23430  0.41240  0.84750  Biso   1.000  O
  O10      1.0000 0.76570  0.58760  0.15250  Biso   1.000  O
  N1       1.0000 0.37160  0.16010  0.35440  Biso   1.000  N
  N2       1.0000 0.62840  0.83990  0.64560  Biso   1.000  N
  N3       1.0000 0.46480  0.35410  0.39200  Biso   1.000  N
  N4       1.0000 0.53520  0.64590  0.60800  Biso   1.000  N
  N5       1.0000 0.24690  0.72860  0.21490  Biso   1.000  N
  N6       1.0000 0.75310  0.27140  0.78510  Biso   1.000  N
  N7       1.0000 0.15500  0.59110  0.09090  Biso   1.000  N
  N8       1.0000 0.84500  0.40890  0.90910  Biso   1.000  N
  N9       1.0000 0.09060  0.81280  0.68300  Biso   1.000  N
  N10      1.0000 0.90940  0.18720  0.31700  Biso   1.000  N
  N11      1.0000 0.00950  0.67190  0.86840  Biso   1.000  N
  N12      1.0000 0.99050  0.32810  0.13160  Biso   1.000  N
  C1       1.0000 0.30640  0.02590  0.38600  Biso   1.000  C
  C2       1.0000 0.69360  0.97410  0.61400  Biso   1.000  C
  C3       1.0000 0.31610  0.94150  0.28570  Biso   1.000  C
  C4       1.0000 0.68390  0.05850  0.71430  Biso   1.000  C
  H1       1.0000 0.36810  0.96990  0.19820  Biso   1.000  H
  H2       1.0000 0.63190  0.03010  0.80180  Biso   1.000  H
  C5       1.0000 0.24650  0.81390  0.31890  Biso   1.000  C
  C6       1.0000 0.75350  0.18610  0.68110  Biso   1.000  C
  C7       1.0000 0.17170  0.77010  0.44920  Biso   1.000  C
  C8       1.0000 0.82830  0.22990  0.55080  Biso   1.000  C
  H3       1.0000 0.12730  0.68330  0.47080  Biso   1.000  H
  H4       1.0000 0.87270  0.31670  0.52920  Biso   1.000  H
  C9       1.0000 0.16380  0.85720  0.54750  Biso   1.000  C
  C10      1.0000 0.83620  0.14280  0.45250  Biso   1.000  C
  C11      1.0000 0.23050  0.98620  0.51660  Biso   1.000  C
  C12      1.0000 0.76950  0.01380  0.48340  Biso   1.000  C
  H5       1.0000 0.22420  0.04480  0.58250  Biso   1.000  H
  H6       1.0000 0.77580  0.95520  0.41750  Biso   1.000  H
  C13      1.0000 0.43260  0.22710  0.44320  Biso   1.000  C
  C14      1.0000 0.56740  0.77290  0.55680  Biso   1.000  C
  H7       1.0000 0.44960  0.18820  0.52950  Biso   1.000  H
  H8       1.0000 0.55040  0.81180  0.47050  Biso   1.000  H
  C15      1.0000 0.42190  0.37020  0.26410  Biso   1.000  C
  C16      1.0000 0.57810  0.62980  0.73590  Biso   1.000  C
  H9       1.0000 0.43040  0.45110  0.20430  Biso   1.000  H
  H10      1.0000 0.56960  0.54890  0.79570  Biso   1.000  H
  C17      1.0000 0.36550  0.25180  0.23790  Biso   1.000  C
  C18      1.0000 0.63450  0.74820  0.76210  Biso   1.000  C
  H11      1.0000 0.33000  0.23510  0.15840  Biso   1.000  H
  H12      1.0000 0.67000  0.76490  0.84160  Biso   1.000  H
  C19      1.0000 0.12870  0.64380  0.20530  Biso   1.000  C
  C20      1.0000 0.87130  0.35620  0.79470  Biso   1.000  C
  H13      1.0000 0.04080  0.62540  0.27110  Biso   1.000  H
  H14      1.0000 0.95920  0.37460  0.72890  Biso   1.000  H
  C21      1.0000 0.29660  0.64150  0.02440  Biso   1.000  C
  C22      1.0000 0.70340  0.35850  0.97560  Biso   1.000  C
  H15      1.0000 0.34530  0.61950  0.94090  Biso   1.000  H
  H16      1.0000 0.65470  0.38050  0.05910  Biso   1.000  H
  C23      1.0000 0.35490  0.72760  0.09830  Biso   1.000  C
  C24      1.0000 0.64510  0.27240  0.90170  Biso   1.000  C
  H17      1.0000 0.44840  0.77640  0.07550  Biso   1.000  H
  H18      1.0000 0.55160  0.22360  0.92450  Biso   1.000  H
  C25      1.0000 0.07240  0.68130  0.73990  Biso   1.000  C
  C26      1.0000 0.92760  0.31870  0.26010  Biso   1.000  C
  H19      1.0000 0.10090  0.60730  0.69390  Biso   1.000  H
  H20      1.0000 0.89910  0.39270  0.30610  Biso   1.000  H
  C27      1.0000 0.98590  0.80330  0.89740  Biso   1.000  C
  C28      1.0000 0.01410  0.19670  0.10260  Biso   1.000  C
  H21      1.0000 0.94270  0.82770  0.98150  Biso   1.000  H
  H22      1.0000 0.05730  0.17230  0.01850  Biso   1.000  H
  C29      1.0000 0.03540  0.89050  0.78450  Biso   1.000  C
  C30      1.0000 0.96460  0.10950  0.21550  Biso   1.000  C
  H23      1.0000 0.03300  0.98510  0.77620  Biso   1.000  H
  H24      1.0000 0.96700  0.01490  0.22380  Biso   1.000  H
