data_image0
_cell_length_a       12.902
_cell_length_b       20.561
_cell_length_c       13.558
_cell_angle_alpha    90
_cell_angle_beta     109.38
_cell_angle_gamma    90

_symmetry_space_group_name_H-M    "P 1"
_symmetry_int_tables_number       1

loop_
  _symmetry_equiv_pos_as_xyz
  'x, y, z'

loop_
  _atom_site_label
  _atom_site_occupancy
  _atom_site_fract_x
  _atom_site_fract_y
  _atom_site_fract_z
  _atom_site_thermal_displace_type
  _atom_site_B_iso_or_equiv
  _atom_site_type_symbol
  Cu1      1.0000 0.01560  0.05580  0.18300  Biso   1.000  Cu
  Cu2      1.0000 0.48440  0.55580  0.31700  Biso   1.000  Cu
  Cu3      1.0000 0.98440  0.94420  0.81700  Biso   1.000  Cu
  Cu4      1.0000 0.51560  0.44420  0.68300  Biso   1.000  Cu
  Cu5      1.0000 0.90330  0.84120  0.32730  Biso   1.000  Cu
  Cu6      1.0000 0.59670  0.34120  0.17270  Biso   1.000  Cu
  Cu7      1.0000 0.09670  0.15880  0.67270  Biso   1.000  Cu
  Cu8      1.0000 0.40330  0.65880  0.82730  Biso   1.000  Cu
  O1       1.0000 0.94240  0.95030  0.16900  Biso   1.000  O
  O2       1.0000 0.55760  0.45030  0.33100  Biso   1.000  O
  O3       1.0000 0.05760  0.04970  0.83100  Biso   1.000  O
  O4       1.0000 0.44240  0.54970  0.66900  Biso   1.000  O
  O5       1.0000 0.81480  0.88820  0.20220  Biso   1.000  O
  O6       1.0000 0.68520  0.38820  0.29780  Biso   1.000  O
  O7       1.0000 0.18520  0.11180  0.79780  Biso   1.000  O
  O8       1.0000 0.31480  0.61180  0.70220  Biso   1.000  O
  O9       1.0000 0.88480  0.97000  0.88930  Biso   1.000  O
  O10      1.0000 0.61520  0.47000  0.61070  Biso   1.000  O
  O11      1.0000 0.11520  0.03000  0.11070  Biso   1.000  O
  O12      1.0000 0.38480  0.53000  0.38930  Biso   1.000  O
  O13      1.0000 0.82930  0.87720  0.94190  Biso   1.000  O
  O14      1.0000 0.67070  0.37720  0.55810  Biso   1.000  O
  O15      1.0000 0.17070  0.12280  0.05810  Biso   1.000  O
  O16      1.0000 0.32930  0.62280  0.44190  Biso   1.000  O
  O17      1.0000 0.12360  0.02430  0.31190  Biso   1.000  O
  O18      1.0000 0.37640  0.52430  0.18810  Biso   1.000  O
  O19      1.0000 0.87640  0.97570  0.68810  Biso   1.000  O
  O20      1.0000 0.62360  0.47570  0.81190  Biso   1.000  O
  O21      1.0000 0.18650  0.12290  0.37040  Biso   1.000  O
  O22      1.0000 0.31350  0.62290  0.12960  Biso   1.000  O
  O23      1.0000 0.81350  0.87710  0.62960  Biso   1.000  O
  O24      1.0000 0.68650  0.37710  0.87040  Biso   1.000  O
  O25      1.0000 0.15070  0.10110  0.58700  Biso   1.000  O
  O26      1.0000 0.34930  0.60110  0.91300  Biso   1.000  O
  O27      1.0000 0.84930  0.89890  0.41300  Biso   1.000  O
  O28      1.0000 0.65070  0.39890  0.08700  Biso   1.000  O
  O29      1.0000 0.30420  0.15910  0.64360  Biso   1.000  O
  O30      1.0000 0.19580  0.65910  0.85640  Biso   1.000  O
  O31      1.0000 0.69580  0.84090  0.35640  Biso   1.000  O
  O32      1.0000 0.80420  0.34090  0.14360  Biso   1.000  O
  O33      1.0000 0.07300  0.88900  0.35830  Biso   1.000  O
  O34      1.0000 0.42700  0.38900  0.14170  Biso   1.000  O
  O35      1.0000 0.92700  0.11100  0.64170  Biso   1.000  O
  O36      1.0000 0.57300  0.61100  0.85830  Biso   1.000  O
  N1       1.0000 0.91410  0.08740  0.25620  Biso   1.000  N
  N2       1.0000 0.58590  0.58740  0.24380  Biso   1.000  N
  N3       1.0000 0.08590  0.91260  0.74380  Biso   1.000  N
  N4       1.0000 0.41410  0.41260  0.75620  Biso   1.000  N
  N5       1.0000 0.91200  0.10780  0.06710  Biso   1.000  N
  N6       1.0000 0.58800  0.60780  0.43290  Biso   1.000  N
  N7       1.0000 0.08800  0.89220  0.93290  Biso   1.000  N
  N8       1.0000 0.41200  0.39220  0.56710  Biso   1.000  N
  N9       1.0000 0.97170  0.77870  0.44390  Biso   1.000  N
  N10      1.0000 0.52830  0.27870  0.05610  Biso   1.000  N
  N11      1.0000 0.02830  0.22130  0.55610  Biso   1.000  N
  N12      1.0000 0.47170  0.72130  0.94390  Biso   1.000  N
  N13      1.0000 0.95240  0.77140  0.24830  Biso   1.000  N
  N14      1.0000 0.54760  0.27140  0.25170  Biso   1.000  N
  N15      1.0000 0.04760  0.22860  0.75170  Biso   1.000  N
  N16      1.0000 0.45240  0.72860  0.74830  Biso   1.000  N
  C1       1.0000 0.84540  0.93330  0.15450  Biso   1.000  C
  C2       1.0000 0.65460  0.43330  0.34550  Biso   1.000  C
  C3       1.0000 0.15460  0.06670  0.84550  Biso   1.000  C
  C4       1.0000 0.34540  0.56670  0.65450  Biso   1.000  C
  C5       1.0000 0.75500  0.97090  0.07550  Biso   1.000  C
  C6       1.0000 0.74500  0.47090  0.42450  Biso   1.000  C
  C7       1.0000 0.24500  0.02910  0.92450  Biso   1.000  C
  C8       1.0000 0.25500  0.52910  0.57550  Biso   1.000  C
  C9       1.0000 0.68190  0.00600  0.10960  Biso   1.000  C
  C10      1.0000 0.81810  0.50600  0.39040  Biso   1.000  C
  C11      1.0000 0.31810  0.99400  0.89040  Biso   1.000  C
  C12      1.0000 0.18190  0.49400  0.60960  Biso   1.000  C
  C13      1.0000 0.60670  0.04810  0.04140  Biso   1.000  C
  C14      1.0000 0.89330  0.54810  0.45860  Biso   1.000  C
  C15      1.0000 0.39330  0.95190  0.95860  Biso   1.000  C
  C16      1.0000 0.10670  0.45190  0.54140  Biso   1.000  C
  C17      1.0000 0.60400  0.05450  0.93990  Biso   1.000  C
  C18      1.0000 0.89600  0.55450  0.56010  Biso   1.000  C
  C19      1.0000 0.39600  0.94550  0.06010  Biso   1.000  C
  C20      1.0000 0.10400  0.44550  0.43990  Biso   1.000  C
  C21      1.0000 0.67730  0.01850  0.90480  Biso   1.000  C
  C22      1.0000 0.82270  0.51850  0.59520  Biso   1.000  C
  C23      1.0000 0.32270  0.98150  0.09520  Biso   1.000  C
  C24      1.0000 0.17730  0.48150  0.40480  Biso   1.000  C
  C25      1.0000 0.75310  0.97710  0.97200  Biso   1.000  C
  C26      1.0000 0.74690  0.47710  0.52800  Biso   1.000  C
  C27      1.0000 0.24690  0.02290  0.02800  Biso   1.000  C
  C28      1.0000 0.25310  0.52290  0.47200  Biso   1.000  C
  C29      1.0000 0.82910  0.93750  0.93170  Biso   1.000  C
  C30      1.0000 0.67090  0.43750  0.56830  Biso   1.000  C
  C31      1.0000 0.17090  0.06250  0.06830  Biso   1.000  C
  C32      1.0000 0.32910  0.56250  0.43170  Biso   1.000  C
  C33      1.0000 0.18820  0.06260  0.37640  Biso   1.000  C
  C34      1.0000 0.31180  0.56260  0.12360  Biso   1.000  C
  C35      1.0000 0.81180  0.93740  0.62360  Biso   1.000  C
  C36      1.0000 0.68820  0.43740  0.87640  Biso   1.000  C
  C37      1.0000 0.27590  0.03000  0.46570  Biso   1.000  C
  C38      1.0000 0.22410  0.53000  0.03430  Biso   1.000  C
  C39      1.0000 0.72410  0.97000  0.53430  Biso   1.000  C
  C40      1.0000 0.77590  0.47000  0.96570  Biso   1.000  C
  C41      1.0000 0.32700  0.97530  0.44380  Biso   1.000  C
  C42      1.0000 0.17300  0.47530  0.05620  Biso   1.000  C
  C43      1.0000 0.67300  0.02470  0.55620  Biso   1.000  C
  C44      1.0000 0.82700  0.52470  0.94380  Biso   1.000  C
  C45      1.0000 0.41330  0.94560  0.52160  Biso   1.000  C
  C46      1.0000 0.08670  0.44560  0.97840  Biso   1.000  C
  C47      1.0000 0.58670  0.05440  0.47840  Biso   1.000  C
  C48      1.0000 0.91330  0.55440  0.02160  Biso   1.000  C
  C49      1.0000 0.44770  0.97210  0.62220  Biso   1.000  C
  C50      1.0000 0.05230  0.47210  0.87780  Biso   1.000  C
  C51      1.0000 0.55230  0.02790  0.37780  Biso   1.000  C
  C52      1.0000 0.94770  0.52790  0.12220  Biso   1.000  C
  C53      1.0000 0.39760  0.02720  0.64270  Biso   1.000  C
  C54      1.0000 0.10240  0.52720  0.85730  Biso   1.000  C
  C55      1.0000 0.60240  0.97280  0.35730  Biso   1.000  C
  C56      1.0000 0.89760  0.47280  0.14270  Biso   1.000  C
  C57      1.0000 0.31080  0.05620  0.56650  Biso   1.000  C
  C58      1.0000 0.18920  0.55620  0.93350  Biso   1.000  C
  C59      1.0000 0.68920  0.94380  0.43350  Biso   1.000  C
  C60      1.0000 0.81080  0.44380  0.06650  Biso   1.000  C
  C61      1.0000 0.25170  0.11060  0.60040  Biso   1.000  C
  C62      1.0000 0.24830  0.61060  0.89960  Biso   1.000  C
  C63      1.0000 0.74830  0.88940  0.39960  Biso   1.000  C
  C64      1.0000 0.75170  0.38940  0.10040  Biso   1.000  C
  C65      1.0000 0.91080  0.06580  0.34840  Biso   1.000  C
  C66      1.0000 0.58920  0.56580  0.15160  Biso   1.000  C
  C67      1.0000 0.08920  0.93420  0.65160  Biso   1.000  C
  C68      1.0000 0.41080  0.43420  0.84840  Biso   1.000  C
  C69      1.0000 0.83460  0.09070  0.39110  Biso   1.000  C
  C70      1.0000 0.66540  0.59070  0.10890  Biso   1.000  C
  C71      1.0000 0.16540  0.90930  0.60890  Biso   1.000  C
  C72      1.0000 0.33460  0.40930  0.89110  Biso   1.000  C
  C73      1.0000 0.76190  0.13740  0.33920  Biso   1.000  C
  C74      1.0000 0.73810  0.63740  0.16080  Biso   1.000  C
  C75      1.0000 0.23810  0.86260  0.66080  Biso   1.000  C
  C76      1.0000 0.26190  0.36260  0.83920  Biso   1.000  C
  C77      1.0000 0.76550  0.15950  0.24470  Biso   1.000  C
  C78      1.0000 0.73450  0.65950  0.25530  Biso   1.000  C
  C79      1.0000 0.23450  0.84050  0.75530  Biso   1.000  C
  C80      1.0000 0.26550  0.34050  0.74470  Biso   1.000  C
  C81      1.0000 0.84140  0.13250  0.20330  Biso   1.000  C
  C82      1.0000 0.65860  0.63250  0.29670  Biso   1.000  C
  C83      1.0000 0.15860  0.86750  0.79670  Biso   1.000  C
  C84      1.0000 0.34140  0.36750  0.70330  Biso   1.000  C
  C85      1.0000 0.84390  0.14610  0.09730  Biso   1.000  C
  C86      1.0000 0.65610  0.64610  0.40270  Biso   1.000  C
  C87      1.0000 0.15610  0.85390  0.90270  Biso   1.000  C
  C88      1.0000 0.34390  0.35390  0.59730  Biso   1.000  C
  C89      1.0000 0.77820  0.19230  0.03150  Biso   1.000  C
  C90      1.0000 0.72180  0.69230  0.46850  Biso   1.000  C
  C91      1.0000 0.22180  0.80770  0.96850  Biso   1.000  C
  C92      1.0000 0.27820  0.30770  0.53150  Biso   1.000  C
  C93      1.0000 0.77950  0.19510  0.93000  Biso   1.000  C
  C94      1.0000 0.72050  0.69510  0.57000  Biso   1.000  C
  C95      1.0000 0.22050  0.80490  0.07000  Biso   1.000  C
  C96      1.0000 0.27950  0.30490  0.43000  Biso   1.000  C
  C97      1.0000 0.84390  0.15340  0.89640  Biso   1.000  C
  C98      1.0000 0.65610  0.65340  0.60360  Biso   1.000  C
  C99      1.0000 0.15610  0.84660  0.10360  Biso   1.000  C
  C100     1.0000 0.34390  0.34660  0.39640  Biso   1.000  C
  C101     1.0000 0.91130  0.11140  0.96790  Biso   1.000  C
  C102     1.0000 0.58870  0.61140  0.53210  Biso   1.000  C
  C103     1.0000 0.08870  0.88860  0.03210  Biso   1.000  C
  C104     1.0000 0.41130  0.38860  0.46790  Biso   1.000  C
  C105     1.0000 0.96830  0.78350  0.54220  Biso   1.000  C
  C106     1.0000 0.53170  0.28350  0.95780  Biso   1.000  C
  C107     1.0000 0.03170  0.21650  0.45780  Biso   1.000  C
  C108     1.0000 0.46830  0.71650  0.04220  Biso   1.000  C
  C109     1.0000 0.02850  0.74200  0.62090  Biso   1.000  C
  C110     1.0000 0.47150  0.24200  0.87910  Biso   1.000  C
  C111     1.0000 0.97150  0.25800  0.37910  Biso   1.000  C
  C112     1.0000 0.52850  0.75800  0.12090  Biso   1.000  C
  C113     1.0000 0.09430  0.69560  0.59980  Biso   1.000  C
  C114     1.0000 0.40570  0.19560  0.90020  Biso   1.000  C
  C115     1.0000 0.90570  0.30440  0.40020  Biso   1.000  C
  C116     1.0000 0.59430  0.80440  0.09980  Biso   1.000  C
  C117     1.0000 0.09710  0.69000  0.49860  Biso   1.000  C
  C118     1.0000 0.40290  0.19000  0.00140  Biso   1.000  C
  C119     1.0000 0.90290  0.31000  0.50140  Biso   1.000  C
  C120     1.0000 0.59710  0.81000  0.99860  Biso   1.000  C
  C121     1.0000 0.03350  0.73170  0.42240  Biso   1.000  C
  C122     1.0000 0.46650  0.23170  0.07760  Biso   1.000  C
  C123     1.0000 0.96650  0.26830  0.57760  Biso   1.000  C
  C124     1.0000 0.53350  0.76830  0.92240  Biso   1.000  C
  C125     1.0000 0.02470  0.72860  0.30950  Biso   1.000  C
  C126     1.0000 0.47530  0.22860  0.19050  Biso   1.000  C
  C127     1.0000 0.97530  0.27140  0.69050  Biso   1.000  C
  C128     1.0000 0.52470  0.77140  0.80950  Biso   1.000  C
  C129     1.0000 0.08560  0.68570  0.27270  Biso   1.000  C
  C130     1.0000 0.41440  0.18570  0.22730  Biso   1.000  C
  C131     1.0000 0.91440  0.31430  0.72730  Biso   1.000  C
  C132     1.0000 0.58560  0.81430  0.77270  Biso   1.000  C
  C133     1.0000 0.06830  0.68610  0.16640  Biso   1.000  C
  C134     1.0000 0.43170  0.18610  0.33360  Biso   1.000  C
  C135     1.0000 0.93170  0.31390  0.83360  Biso   1.000  C
  C136     1.0000 0.56830  0.81390  0.66640  Biso   1.000  C
  C137     1.0000 0.99110  0.72830  0.10180  Biso   1.000  C
  C138     1.0000 0.50890  0.22830  0.39820  Biso   1.000  C
  C139     1.0000 0.00890  0.27170  0.89820  Biso   1.000  C
  C140     1.0000 0.49110  0.77170  0.60180  Biso   1.000  C
  C141     1.0000 0.93400  0.77070  0.14610  Biso   1.000  C
  C142     1.0000 0.56600  0.27070  0.35390  Biso   1.000  C
  C143     1.0000 0.06600  0.22930  0.85390  Biso   1.000  C
  C144     1.0000 0.43400  0.72930  0.64610  Biso   1.000  C
  H1       1.0000 0.68500  0.00300  0.18500  Biso   1.000  H
  H2       1.0000 0.81500  0.50300  0.31500  Biso   1.000  H
  H3       1.0000 0.31500  0.99700  0.81500  Biso   1.000  H
  H4       1.0000 0.18500  0.49700  0.68500  Biso   1.000  H
  H5       1.0000 0.56100  0.07500  0.07700  Biso   1.000  H
  H6       1.0000 0.93900  0.57500  0.42300  Biso   1.000  H
  H7       1.0000 0.43900  0.92500  0.92300  Biso   1.000  H
  H8       1.0000 0.06100  0.42500  0.57700  Biso   1.000  H
  H9       1.0000 0.54800  0.07700  0.87900  Biso   1.000  H
  H10      1.0000 0.95200  0.57700  0.62100  Biso   1.000  H
  H11      1.0000 0.45200  0.92300  0.12100  Biso   1.000  H
  H12      1.0000 0.04800  0.42300  0.37900  Biso   1.000  H
  H13      1.0000 0.67000  0.02200  0.81900  Biso   1.000  H
  H14      1.0000 0.83000  0.52200  0.68100  Biso   1.000  H
  H15      1.0000 0.33000  0.97800  0.18100  Biso   1.000  H
  H16      1.0000 0.17000  0.47800  0.31900  Biso   1.000  H
  H17      1.0000 0.28200  0.95400  0.36300  Biso   1.000  H
  H18      1.0000 0.21800  0.45400  0.13700  Biso   1.000  H
  H19      1.0000 0.71800  0.04600  0.63700  Biso   1.000  H
  H20      1.0000 0.78200  0.54600  0.86300  Biso   1.000  H
  H21      1.0000 0.45600  0.90500  0.51200  Biso   1.000  H
  H22      1.0000 0.04400  0.40500  0.98800  Biso   1.000  H
  H23      1.0000 0.54400  0.09500  0.48800  Biso   1.000  H
  H24      1.0000 0.95600  0.59500  0.01200  Biso   1.000  H
  H25      1.0000 0.51700  0.95100  0.68200  Biso   1.000  H
  H26      1.0000 0.98300  0.45100  0.81800  Biso   1.000  H
  H27      1.0000 0.48300  0.04900  0.31800  Biso   1.000  H
  H28      1.0000 0.01700  0.54900  0.18200  Biso   1.000  H
  H29      1.0000 0.42500  0.04500  0.72100  Biso   1.000  H
  H30      1.0000 0.07500  0.54500  0.77900  Biso   1.000  H
  H31      1.0000 0.57500  0.95500  0.27900  Biso   1.000  H
  H32      1.0000 0.92500  0.45500  0.22100  Biso   1.000  H
  H33      1.0000 0.97300  0.02800  0.38300  Biso   1.000  H
  H34      1.0000 0.52700  0.52800  0.11700  Biso   1.000  H
  H35      1.0000 0.02700  0.97200  0.61700  Biso   1.000  H
  H36      1.0000 0.47300  0.47200  0.88300  Biso   1.000  H
  H37      1.0000 0.86200  0.07600  0.47400  Biso   1.000  H
  H38      1.0000 0.63800  0.57600  0.02600  Biso   1.000  H
  H39      1.0000 0.13800  0.92400  0.52600  Biso   1.000  H
  H40      1.0000 0.36200  0.42400  0.97400  Biso   1.000  H
  H41      1.0000 0.69600  0.16200  0.36700  Biso   1.000  H
  H42      1.0000 0.80400  0.66200  0.13300  Biso   1.000  H
  H43      1.0000 0.30400  0.83800  0.63300  Biso   1.000  H
  H44      1.0000 0.19600  0.33800  0.86700  Biso   1.000  H
  H45      1.0000 0.72600  0.21400  0.21000  Biso   1.000  H
  H46      1.0000 0.77400  0.71400  0.29000  Biso   1.000  H
  H47      1.0000 0.27400  0.78600  0.79000  Biso   1.000  H
  H48      1.0000 0.22600  0.28600  0.71000  Biso   1.000  H
  H49      1.0000 0.72700  0.22500  0.05700  Biso   1.000  H
  H50      1.0000 0.77300  0.72500  0.44300  Biso   1.000  H
  H51      1.0000 0.27300  0.77500  0.94300  Biso   1.000  H
  H52      1.0000 0.22700  0.27500  0.55700  Biso   1.000  H
  H53      1.0000 0.72800  0.22800  0.87300  Biso   1.000  H
  H54      1.0000 0.77200  0.72800  0.62700  Biso   1.000  H
  H55      1.0000 0.27200  0.77200  0.12700  Biso   1.000  H
  H56      1.0000 0.22800  0.27200  0.37300  Biso   1.000  H
  H57      1.0000 0.85200  0.15800  0.81700  Biso   1.000  H
  H58      1.0000 0.64800  0.65800  0.68300  Biso   1.000  H
  H59      1.0000 0.14800  0.84200  0.18300  Biso   1.000  H
  H60      1.0000 0.35200  0.34200  0.31700  Biso   1.000  H
  H61      1.0000 0.97300  0.08300  0.94800  Biso   1.000  H
  H62      1.0000 0.52700  0.58300  0.55200  Biso   1.000  H
  H63      1.0000 0.02700  0.91700  0.05200  Biso   1.000  H
  H64      1.0000 0.47300  0.41700  0.44800  Biso   1.000  H
  H65      1.0000 0.92000  0.82000  0.55600  Biso   1.000  H
  H66      1.0000 0.58000  0.32000  0.94400  Biso   1.000  H
  H67      1.0000 0.08000  0.18000  0.44400  Biso   1.000  H
  H68      1.0000 0.42000  0.68000  0.05600  Biso   1.000  H
  H69      1.0000 0.01500  0.75400  0.70200  Biso   1.000  H
  H70      1.0000 0.48500  0.25400  0.79800  Biso   1.000  H
  H71      1.0000 0.98500  0.24600  0.29800  Biso   1.000  H
  H72      1.0000 0.51500  0.74600  0.20200  Biso   1.000  H
  H73      1.0000 0.12900  0.65900  0.65200  Biso   1.000  H
  H74      1.0000 0.37100  0.15900  0.84800  Biso   1.000  H
  H75      1.0000 0.87100  0.34100  0.34800  Biso   1.000  H
  H76      1.0000 0.62900  0.84100  0.15200  Biso   1.000  H
  H77      1.0000 0.15300  0.66000  0.47800  Biso   1.000  H
  H78      1.0000 0.34700  0.16000  0.02200  Biso   1.000  H
  H79      1.0000 0.84700  0.34000  0.52200  Biso   1.000  H
  H80      1.0000 0.65300  0.84000  0.97800  Biso   1.000  H
  H81      1.0000 0.15700  0.65300  0.32800  Biso   1.000  H
  H82      1.0000 0.34300  0.15300  0.17200  Biso   1.000  H
  H83      1.0000 0.84300  0.34700  0.67200  Biso   1.000  H
  H84      1.0000 0.65700  0.84700  0.82800  Biso   1.000  H
  H85      1.0000 0.11900  0.65800  0.13800  Biso   1.000  H
  H86      1.0000 0.38100  0.15800  0.36200  Biso   1.000  H
  H87      1.0000 0.88100  0.34200  0.86200  Biso   1.000  H
  H88      1.0000 0.61900  0.84200  0.63800  Biso   1.000  H
  H89      1.0000 0.98500  0.72600  0.02000  Biso   1.000  H
  H90      1.0000 0.51500  0.22600  0.48000  Biso   1.000  H
  H91      1.0000 0.01500  0.27400  0.98000  Biso   1.000  H
  H92      1.0000 0.48500  0.77400  0.52000  Biso   1.000  H
  H93      1.0000 0.87700  0.80800  0.09700  Biso   1.000  H
  H94      1.0000 0.62300  0.30800  0.40300  Biso   1.000  H
  H95      1.0000 0.12300  0.19200  0.90300  Biso   1.000  H
  H96      1.0000 0.37700  0.69200  0.59700  Biso   1.000  H
  O37      1.0000 0.12320  0.20160  0.19870  Biso   1.000  O
  O38      1.0000 0.37680  0.70160  0.30130  Biso   1.000  O
  O39      1.0000 0.87680  0.79840  0.80130  Biso   1.000  O
  O40      1.0000 0.62320  0.29840  0.69870  Biso   1.000  O
  O41      1.0000 0.23670  0.31340  0.12620  Biso   1.000  O
  O42      1.0000 0.26330  0.81340  0.37380  Biso   1.000  O
  O43      1.0000 0.76330  0.68660  0.87380  Biso   1.000  O
  O44      1.0000 0.73670  0.18660  0.62620  Biso   1.000  O
  O45      1.0000 0.02430  0.32420  0.14660  Biso   1.000  O
  O46      1.0000 0.47570  0.82420  0.35340  Biso   1.000  O
  O47      1.0000 0.97570  0.67580  0.85340  Biso   1.000  O
  O48      1.0000 0.52430  0.17580  0.64660  Biso   1.000  O
