data_image0
_cell_length_a       11.302
_cell_length_b       11.814
_cell_length_c       10.457
_cell_angle_alpha    97.09
_cell_angle_beta     109.44
_cell_angle_gamma    77.89

_symmetry_space_group_name_H-M    "P 1"
_symmetry_int_tables_number       1

loop_
  _symmetry_equiv_pos_as_xyz
  'x, y, z'

loop_
  _atom_site_label
  _atom_site_occupancy
  _atom_site_fract_x
  _atom_site_fract_y
  _atom_site_fract_z
  _atom_site_thermal_displace_type
  _atom_site_B_iso_or_equiv
  _atom_site_type_symbol
  Ag1      1.0000 0.00000  0.00000  0.00000  Biso   1.000  Ag
  Ag2      1.0000 0.00000  0.50000  0.00000  Biso   1.000  Ag
  Ag3      1.0000 0.04343  0.24111  0.97594  Biso   1.000  Ag
  Ag4      1.0000 0.95657  0.75889  0.02406  Biso   1.000  Ag
  Cu1      1.0000 0.80258  0.29480  0.32173  Biso   1.000  Cu
  Cu2      1.0000 0.19742  0.70520  0.67827  Biso   1.000  Cu
  O1       1.0000 0.59450  0.11020  0.79270  Biso   1.000  O
  O2       1.0000 0.40550  0.88980  0.20730  Biso   1.000  O
  N1       1.0000 0.63400  0.33990  0.17790  Biso   1.000  N
  N2       1.0000 0.36600  0.66010  0.82210  Biso   1.000  N
  N3       1.0000 0.72480  0.43360  0.42380  Biso   1.000  N
  N4       1.0000 0.27520  0.56640  0.57620  Biso   1.000  N
  N5       1.0000 0.95990  0.25060  0.48340  Biso   1.000  N
  N6       1.0000 0.04010  0.74940  0.51660  Biso   1.000  N
  N7       1.0000 0.74960  0.15700  0.41020  Biso   1.000  N
  N8       1.0000 0.25040  0.84300  0.58980  Biso   1.000  N
  N9       1.0000 0.87510  0.17880  0.19840  Biso   1.000  N
  N10      1.0000 0.12490  0.82120  0.80160  Biso   1.000  N
  N11      1.0000 0.90920  0.44300  0.24080  Biso   1.000  N
  N12      1.0000 0.09080  0.55700  0.75920  Biso   1.000  N
  N13      1.0000 0.32430  0.15690  0.17500  Biso   1.000  N
  N14      1.0000 0.67570  0.84310  0.82500  Biso   1.000  N
  N15      1.0000 0.75830  0.28720  0.77270  Biso   1.000  N
  N16      1.0000 0.24170  0.71280  0.22730  Biso   1.000  N
  C1       1.0000 0.55330  0.42870  0.21470  Biso   1.000  C
  C2       1.0000 0.44670  0.57130  0.78530  Biso   1.000  C
  C3       1.0000 0.42870  0.46100  0.13160  Biso   1.000  C
  C4       1.0000 0.57130  0.53900  0.86840  Biso   1.000  C
  C5       1.0000 0.38800  0.40220  0.00640  Biso   1.000  C
  C6       1.0000 0.61200  0.59780  0.99360  Biso   1.000  C
  C7       1.0000 0.47140  0.31320  0.96900  Biso   1.000  C
  C8       1.0000 0.52860  0.68680  0.03100  Biso   1.000  C
  C9       1.0000 0.59470  0.28440  0.05770  Biso   1.000  C
  C10      1.0000 0.40530  0.71560  0.94230  Biso   1.000  C
  C11      1.0000 0.60760  0.48640  0.35060  Biso   1.000  C
  C12      1.0000 0.39240  0.51360  0.64940  Biso   1.000  C
  C13      1.0000 0.54400  0.58710  0.40050  Biso   1.000  C
  C14      1.0000 0.45600  0.41290  0.59950  Biso   1.000  C
  C15      1.0000 0.60290  0.63240  0.52970  Biso   1.000  C
  C16      1.0000 0.39710  0.36760  0.47030  Biso   1.000  C
  C17      1.0000 0.72050  0.57700  0.60480  Biso   1.000  C
  C18      1.0000 0.27950  0.42300  0.39520  Biso   1.000  C
  C19      1.0000 0.77870  0.47730  0.54830  Biso   1.000  C
  C20      1.0000 0.22130  0.52270  0.45170  Biso   1.000  C
  C21      1.0000 0.96080  0.16520  0.56020  Biso   1.000  C
  C22      1.0000 0.03920  0.83480  0.43980  Biso   1.000  C
  C23      1.0000 0.06720  0.12970  0.66870  Biso   1.000  C
  C24      1.0000 0.93280  0.87030  0.33130  Biso   1.000  C
  C25      1.0000 0.17320  0.18260  0.70120  Biso   1.000  C
  C26      1.0000 0.82680  0.81740  0.29880  Biso   1.000  C
  C27      1.0000 0.17070  0.26930  0.62430  Biso   1.000  C
  C28      1.0000 0.82930  0.73070  0.37570  Biso   1.000  C
  C29      1.0000 0.06310  0.30030  0.51580  Biso   1.000  C
  C30      1.0000 0.93690  0.69970  0.48420  Biso   1.000  C
  C31      1.0000 0.84310  0.11440  0.52020  Biso   1.000  C
  C32      1.0000 0.15690  0.88560  0.47980  Biso   1.000  C
  C33      1.0000 0.82980  0.03010  0.59210  Biso   1.000  C
  C34      1.0000 0.17020  0.96990  0.40790  Biso   1.000  C
  C35      1.0000 0.71560  0.98600  0.54620  Biso   1.000  C
  C36      1.0000 0.28440  0.01400  0.45380  Biso   1.000  C
  C37      1.0000 0.62130  0.02700  0.43300  Biso   1.000  C
  C38      1.0000 0.37870  0.97300  0.56700  Biso   1.000  C
  C39      1.0000 0.64150  0.11350  0.36790  Biso   1.000  C
  C40      1.0000 0.35850  0.88650  0.63210  Biso   1.000  C
  C41      1.0000 0.91760  0.11260  0.12890  Biso   1.000  C
  C42      1.0000 0.08240  0.88740  0.87110  Biso   1.000  C
  C43      1.0000 0.94320  0.46620  0.15910  Biso   1.000  C
  C44      1.0000 0.05680  0.53380  0.84090  Biso   1.000  C
  C45      1.0000 0.22790  0.19000  0.10300  Biso   1.000  C
  C46      1.0000 0.77210  0.81000  0.89700  Biso   1.000  C
  C47      1.0000 0.85870  0.27300  0.84160  Biso   1.000  C
  C48      1.0000 0.14130  0.72700  0.15840  Biso   1.000  C
  H1       1.0000 0.36470  0.53130  0.16350  Biso   1.000  H
  H2       1.0000 0.63530  0.46870  0.83650  Biso   1.000  H
  H3       1.0000 0.29190  0.42630  0.93910  Biso   1.000  H
  H4       1.0000 0.70810  0.57370  0.06090  Biso   1.000  H
  H5       1.0000 0.44160  0.26600  0.87200  Biso   1.000  H
  H6       1.0000 0.55840  0.73400  0.12800  Biso   1.000  H
  H7       1.0000 0.66010  0.21400  0.02800  Biso   1.000  H
  H8       1.0000 0.33990  0.78600  0.97200  Biso   1.000  H
  H9       1.0000 0.45090  0.62900  0.34010  Biso   1.000  H
  H10      1.0000 0.54910  0.37100  0.65990  Biso   1.000  H
  H11      1.0000 0.55630  0.71070  0.57080  Biso   1.000  H
  H12      1.0000 0.44370  0.28930  0.42920  Biso   1.000  H
  H13      1.0000 0.76700  0.61050  0.70600  Biso   1.000  H
  H14      1.0000 0.23300  0.38950  0.29400  Biso   1.000  H
  H15      1.0000 0.87130  0.43390  0.60780  Biso   1.000  H
  H16      1.0000 0.12870  0.56610  0.39220  Biso   1.000  H
  H17      1.0000 0.06810  0.06080  0.72820  Biso   1.000  H
  H18      1.0000 0.93190  0.93920  0.27180  Biso   1.000  H
  H19      1.0000 0.25650  0.15570  0.78620  Biso   1.000  H
  H20      1.0000 0.74350  0.84430  0.21380  Biso   1.000  H
  H21      1.0000 0.25130  0.31250  0.64810  Biso   1.000  H
  H22      1.0000 0.74870  0.68750  0.35190  Biso   1.000  H
  H23      1.0000 0.06200  0.36760  0.45410  Biso   1.000  H
  H24      1.0000 0.93800  0.63240  0.54590  Biso   1.000  H
  H25      1.0000 0.90560  0.99870  0.68170  Biso   1.000  H
  H26      1.0000 0.09440  0.00130  0.31830  Biso   1.000  H
  H27      1.0000 0.70260  0.91980  0.60030  Biso   1.000  H
  H28      1.0000 0.29740  0.08020  0.39970  Biso   1.000  H
  H29      1.0000 0.53350  0.99330  0.39490  Biso   1.000  H
  H30      1.0000 0.46650  0.00670  0.60510  Biso   1.000  H
  H31      1.0000 0.56650  0.14690  0.27890  Biso   1.000  H
  H32      1.0000 0.43350  0.85310  0.72110  Biso   1.000  H
