data_image0
_cell_length_a       13.828
_cell_length_b       15.044
_cell_length_c       10.702
_cell_angle_alpha    90
_cell_angle_beta     91.36
_cell_angle_gamma    90

_symmetry_space_group_name_H-M    "P 1"
_symmetry_int_tables_number       1

loop_
  _symmetry_equiv_pos_as_xyz
  'x, y, z'

loop_
  _atom_site_label
  _atom_site_occupancy
  _atom_site_fract_x
  _atom_site_fract_y
  _atom_site_fract_z
  _atom_site_thermal_displace_type
  _atom_site_B_iso_or_equiv
  _atom_site_type_symbol
  Cu1      1.0000 0.00000  0.13787  0.25000  Biso   1.000  Cu
  Cu2      1.0000 0.50000  0.63787  0.25000  Biso   1.000  Cu
  Cu3      1.0000 0.00000  0.86213  0.75000  Biso   1.000  Cu
  Cu4      1.0000 0.50000  0.36213  0.75000  Biso   1.000  Cu
  Cu5      1.0000 0.00000  0.00000  0.50000  Biso   1.000  Cu
  Cu6      1.0000 0.50000  0.50000  0.50000  Biso   1.000  Cu
  Cu7      1.0000 0.00000  0.00000  0.00000  Biso   1.000  Cu
  Cu8      1.0000 0.50000  0.50000  0.00000  Biso   1.000  Cu
  Cl1      1.0000 0.00000  0.97778  0.25000  Biso   1.000  Cl
  Cl2      1.0000 0.50000  0.47778  0.25000  Biso   1.000  Cl
  Cl3      1.0000 0.00000  0.02222  0.75000  Biso   1.000  Cl
  Cl4      1.0000 0.50000  0.52222  0.75000  Biso   1.000  Cl
  Cl5      1.0000 0.00000  0.28936  0.25000  Biso   1.000  Cl
  Cl6      1.0000 0.50000  0.78936  0.25000  Biso   1.000  Cl
  Cl7      1.0000 0.00000  0.71064  0.75000  Biso   1.000  Cl
  Cl8      1.0000 0.50000  0.21064  0.75000  Biso   1.000  Cl
  Cl9      1.0000 0.91161  0.12187  0.47321  Biso   1.000  Cl
  Cl10     1.0000 0.41161  0.62187  0.47321  Biso   1.000  Cl
  Cl11     1.0000 0.08839  0.12187  0.02679  Biso   1.000  Cl
  Cl12     1.0000 0.58839  0.62187  0.02679  Biso   1.000  Cl
  Cl13     1.0000 0.08839  0.87813  0.52679  Biso   1.000  Cl
  Cl14     1.0000 0.58839  0.37813  0.52679  Biso   1.000  Cl
  Cl15     1.0000 0.91161  0.87813  0.97321  Biso   1.000  Cl
  Cl16     1.0000 0.41161  0.37813  0.97321  Biso   1.000  Cl
  N1       1.0000 0.12990  0.08030  0.45200  Biso   1.000  N
  N2       1.0000 0.62990  0.58030  0.45200  Biso   1.000  N
  N3       1.0000 0.87010  0.08030  0.04800  Biso   1.000  N
  N4       1.0000 0.37010  0.58030  0.04800  Biso   1.000  N
  N5       1.0000 0.87010  0.91970  0.54800  Biso   1.000  N
  N6       1.0000 0.37010  0.41970  0.54800  Biso   1.000  N
  N7       1.0000 0.12990  0.91970  0.95200  Biso   1.000  N
  N8       1.0000 0.62990  0.41970  0.95200  Biso   1.000  N
  N9       1.0000 0.21910  0.08850  0.50210  Biso   1.000  N
  N10      1.0000 0.71910  0.58850  0.50210  Biso   1.000  N
  N11      1.0000 0.78090  0.08850  0.99790  Biso   1.000  N
  N12      1.0000 0.28090  0.58850  0.99790  Biso   1.000  N
  N13      1.0000 0.78090  0.91150  0.49790  Biso   1.000  N
  N14      1.0000 0.28090  0.41150  0.49790  Biso   1.000  N
  N15      1.0000 0.21910  0.91150  0.00210  Biso   1.000  N
  N16      1.0000 0.71910  0.41150  0.00210  Biso   1.000  N
  C1       1.0000 0.27250  0.14610  0.43410  Biso   1.000  C
  C2       1.0000 0.77250  0.64610  0.43410  Biso   1.000  C
  C3       1.0000 0.72750  0.14610  0.06590  Biso   1.000  C
  C4       1.0000 0.22750  0.64610  0.06590  Biso   1.000  C
  C5       1.0000 0.72750  0.85390  0.56590  Biso   1.000  C
  C6       1.0000 0.22750  0.35390  0.56590  Biso   1.000  C
  C7       1.0000 0.27250  0.85390  0.93410  Biso   1.000  C
  C8       1.0000 0.77250  0.35390  0.93410  Biso   1.000  C
  C9       1.0000 0.36640  0.17840  0.44940  Biso   1.000  C
  C10      1.0000 0.86640  0.67840  0.44940  Biso   1.000  C
  C11      1.0000 0.63360  0.17840  0.05060  Biso   1.000  C
  C12      1.0000 0.13360  0.67840  0.05060  Biso   1.000  C
  C13      1.0000 0.63360  0.82160  0.55060  Biso   1.000  C
  C14      1.0000 0.13360  0.32160  0.55060  Biso   1.000  C
  C15      1.0000 0.36640  0.82160  0.94940  Biso   1.000  C
  C16      1.0000 0.86640  0.32160  0.94940  Biso   1.000  C
  H1       1.0000 0.40680  0.16060  0.51550  Biso   1.000  H
  H2       1.0000 0.90680  0.66060  0.51550  Biso   1.000  H
  H3       1.0000 0.59320  0.16060  0.98450  Biso   1.000  H
  H4       1.0000 0.09320  0.66060  0.98450  Biso   1.000  H
  H5       1.0000 0.59320  0.83940  0.48450  Biso   1.000  H
  H6       1.0000 0.09320  0.33940  0.48450  Biso   1.000  H
  H7       1.0000 0.40680  0.83940  0.01550  Biso   1.000  H
  H8       1.0000 0.90680  0.33940  0.01550  Biso   1.000  H
  C17      1.0000 0.39540  0.23710  0.36220  Biso   1.000  C
  C18      1.0000 0.89540  0.73710  0.36220  Biso   1.000  C
  C19      1.0000 0.60460  0.23710  0.13780  Biso   1.000  C
  C20      1.0000 0.10460  0.73710  0.13780  Biso   1.000  C
  C21      1.0000 0.60460  0.76290  0.63780  Biso   1.000  C
  C22      1.0000 0.10460  0.26290  0.63780  Biso   1.000  C
  C23      1.0000 0.39540  0.76290  0.86220  Biso   1.000  C
  C24      1.0000 0.89540  0.26290  0.86220  Biso   1.000  C
  H9       1.0000 0.45720  0.26100  0.36960  Biso   1.000  H
  H10      1.0000 0.95720  0.76100  0.36960  Biso   1.000  H
  H11      1.0000 0.54280  0.26100  0.13040  Biso   1.000  H
  H12      1.0000 0.04280  0.76100  0.13040  Biso   1.000  H
  H13      1.0000 0.54280  0.73900  0.63040  Biso   1.000  H
  H14      1.0000 0.04280  0.23900  0.63040  Biso   1.000  H
  H15      1.0000 0.45720  0.73900  0.86960  Biso   1.000  H
  H16      1.0000 0.95720  0.23900  0.86960  Biso   1.000  H
  C25      1.0000 0.33620  0.26300  0.26210  Biso   1.000  C
  C26      1.0000 0.83620  0.76300  0.26210  Biso   1.000  C
  C27      1.0000 0.66380  0.26300  0.23790  Biso   1.000  C
  C28      1.0000 0.16380  0.76300  0.23790  Biso   1.000  C
  C29      1.0000 0.66380  0.73700  0.73790  Biso   1.000  C
  C30      1.0000 0.16380  0.23700  0.73790  Biso   1.000  C
  C31      1.0000 0.33620  0.73700  0.76210  Biso   1.000  C
  C32      1.0000 0.83620  0.23700  0.76210  Biso   1.000  C
  H17      1.0000 0.36060  0.30250  0.20380  Biso   1.000  H
  H18      1.0000 0.86060  0.80250  0.20380  Biso   1.000  H
  H19      1.0000 0.63940  0.30250  0.29620  Biso   1.000  H
  H20      1.0000 0.13940  0.80250  0.29620  Biso   1.000  H
  H21      1.0000 0.63940  0.69750  0.79620  Biso   1.000  H
  H22      1.0000 0.13940  0.19750  0.79620  Biso   1.000  H
  H23      1.0000 0.36060  0.69750  0.70380  Biso   1.000  H
  H24      1.0000 0.86060  0.19750  0.70380  Biso   1.000  H
  C33      1.0000 0.24300  0.23260  0.24580  Biso   1.000  C
  C34      1.0000 0.74300  0.73260  0.24580  Biso   1.000  C
  C35      1.0000 0.75700  0.23260  0.25420  Biso   1.000  C
  C36      1.0000 0.25700  0.73260  0.25420  Biso   1.000  C
  C37      1.0000 0.75700  0.76740  0.75420  Biso   1.000  C
  C38      1.0000 0.25700  0.26740  0.75420  Biso   1.000  C
  C39      1.0000 0.24300  0.76740  0.74580  Biso   1.000  C
  C40      1.0000 0.74300  0.26740  0.74580  Biso   1.000  C
  H25      1.0000 0.20350  0.25070  0.17900  Biso   1.000  H
  H26      1.0000 0.70350  0.75070  0.17900  Biso   1.000  H
  H27      1.0000 0.79650  0.25070  0.32100  Biso   1.000  H
  H28      1.0000 0.29650  0.75070  0.32100  Biso   1.000  H
  H29      1.0000 0.79650  0.74930  0.82100  Biso   1.000  H
  H30      1.0000 0.29650  0.24930  0.82100  Biso   1.000  H
  H31      1.0000 0.20350  0.74930  0.67900  Biso   1.000  H
  H32      1.0000 0.70350  0.24930  0.67900  Biso   1.000  H
  C41      1.0000 0.21120  0.17260  0.33620  Biso   1.000  C
  C42      1.0000 0.71120  0.67260  0.33620  Biso   1.000  C
  C43      1.0000 0.78880  0.17260  0.16380  Biso   1.000  C
  C44      1.0000 0.28880  0.67260  0.16380  Biso   1.000  C
  C45      1.0000 0.78880  0.82740  0.66380  Biso   1.000  C
  C46      1.0000 0.28880  0.32740  0.66380  Biso   1.000  C
  C47      1.0000 0.21120  0.82740  0.83620  Biso   1.000  C
  C48      1.0000 0.71120  0.32740  0.83620  Biso   1.000  C
  N17      1.0000 0.12380  0.13090  0.35140  Biso   1.000  N
  N18      1.0000 0.62380  0.63090  0.35140  Biso   1.000  N
  N19      1.0000 0.87620  0.13090  0.14860  Biso   1.000  N
  N20      1.0000 0.37620  0.63090  0.14860  Biso   1.000  N
  N21      1.0000 0.87620  0.86910  0.64860  Biso   1.000  N
  N22      1.0000 0.37620  0.36910  0.64860  Biso   1.000  N
  N23      1.0000 0.12380  0.86910  0.85140  Biso   1.000  N
  N24      1.0000 0.62380  0.36910  0.85140  Biso   1.000  N
  C49      1.0000 0.25070  0.03940  0.61490  Biso   1.000  C
  C50      1.0000 0.75070  0.53940  0.61490  Biso   1.000  C
  C51      1.0000 0.74930  0.03940  0.88510  Biso   1.000  C
  C52      1.0000 0.24930  0.53940  0.88510  Biso   1.000  C
  C53      1.0000 0.74930  0.96060  0.38510  Biso   1.000  C
  C54      1.0000 0.24930  0.46060  0.38510  Biso   1.000  C
  C55      1.0000 0.25070  0.96060  0.11490  Biso   1.000  C
  C56      1.0000 0.75070  0.46060  0.11490  Biso   1.000  C
  H33      1.0000 0.19480  0.01320  0.65400  Biso   1.000  H
  H34      1.0000 0.69480  0.51320  0.65400  Biso   1.000  H
  H35      1.0000 0.80520  0.01320  0.84600  Biso   1.000  H
  H36      1.0000 0.30520  0.51320  0.84600  Biso   1.000  H
  H37      1.0000 0.80520  0.98680  0.34600  Biso   1.000  H
  H38      1.0000 0.30520  0.48680  0.34600  Biso   1.000  H
  H39      1.0000 0.19480  0.98680  0.15400  Biso   1.000  H
  H40      1.0000 0.69480  0.48680  0.15400  Biso   1.000  H
  H41      1.0000 0.28090  0.08020  0.67410  Biso   1.000  H
  H42      1.0000 0.78090  0.58020  0.67410  Biso   1.000  H
  H43      1.0000 0.71910  0.08020  0.82590  Biso   1.000  H
  H44      1.0000 0.21910  0.58020  0.82590  Biso   1.000  H
  H45      1.0000 0.71910  0.91980  0.32590  Biso   1.000  H
  H46      1.0000 0.21910  0.41980  0.32590  Biso   1.000  H
  H47      1.0000 0.28090  0.91980  0.17410  Biso   1.000  H
  H48      1.0000 0.78090  0.41980  0.17410  Biso   1.000  H
  C57      1.0000 0.31990  0.96860  0.58330  Biso   1.000  C
  C58      1.0000 0.81990  0.46860  0.58330  Biso   1.000  C
  C59      1.0000 0.68010  0.96860  0.91670  Biso   1.000  C
  C60      1.0000 0.18010  0.46860  0.91670  Biso   1.000  C
  C61      1.0000 0.68010  0.03140  0.41670  Biso   1.000  C
  C62      1.0000 0.18010  0.53140  0.41670  Biso   1.000  C
  C63      1.0000 0.31990  0.03140  0.08330  Biso   1.000  C
  C64      1.0000 0.81990  0.53140  0.08330  Biso   1.000  C
  H49      1.0000 0.30100  0.92350  0.52860  Biso   1.000  H
  H50      1.0000 0.80100  0.42350  0.52860  Biso   1.000  H
  H51      1.0000 0.69900  0.92350  0.97140  Biso   1.000  H
  H52      1.0000 0.19900  0.42350  0.97140  Biso   1.000  H
  H53      1.0000 0.69900  0.07650  0.47140  Biso   1.000  H
  H54      1.0000 0.19900  0.57650  0.47140  Biso   1.000  H
  H55      1.0000 0.30100  0.07650  0.02860  Biso   1.000  H
  H56      1.0000 0.80100  0.57650  0.02860  Biso   1.000  H
  C65      1.0000 0.40340  0.96890  0.62920  Biso   1.000  C
  C66      1.0000 0.90340  0.46890  0.62920  Biso   1.000  C
  C67      1.0000 0.59660  0.96890  0.87080  Biso   1.000  C
  C68      1.0000 0.09660  0.46890  0.87080  Biso   1.000  C
  C69      1.0000 0.59660  0.03110  0.37080  Biso   1.000  C
  C70      1.0000 0.09660  0.53110  0.37080  Biso   1.000  C
  C71      1.0000 0.40340  0.03110  0.12920  Biso   1.000  C
  C72      1.0000 0.90340  0.53110  0.12920  Biso   1.000  C
  H57      1.0000 0.42260  0.01390  0.68390  Biso   1.000  H
  H58      1.0000 0.92260  0.51390  0.68390  Biso   1.000  H
  H59      1.0000 0.57740  0.01390  0.81610  Biso   1.000  H
  H60      1.0000 0.07740  0.51390  0.81610  Biso   1.000  H
  H61      1.0000 0.57740  0.98610  0.31610  Biso   1.000  H
  H62      1.0000 0.07740  0.48610  0.31610  Biso   1.000  H
  H63      1.0000 0.42260  0.98610  0.18390  Biso   1.000  H
  H64      1.0000 0.92260  0.48610  0.18390  Biso   1.000  H
  H65      1.0000 0.44660  0.92410  0.60880  Biso   1.000  H
  H66      1.0000 0.94660  0.42410  0.60880  Biso   1.000  H
  H67      1.0000 0.55340  0.92410  0.89120  Biso   1.000  H
  H68      1.0000 0.05340  0.42410  0.89120  Biso   1.000  H
  H69      1.0000 0.55340  0.07590  0.39120  Biso   1.000  H
  H70      1.0000 0.05340  0.57590  0.39120  Biso   1.000  H
  H71      1.0000 0.44660  0.07590  0.10880  Biso   1.000  H
  H72      1.0000 0.94660  0.57590  0.10880  Biso   1.000  H
