data_image0
_cell_length_a       13.361
_cell_length_b       13.0991
_cell_length_c       13.361
_cell_angle_alpha    90
_cell_angle_beta     116.375
_cell_angle_gamma    90

_symmetry_space_group_name_H-M    "P 1"
_symmetry_int_tables_number       1

loop_
  _symmetry_equiv_pos_as_xyz
  'x, y, z'

loop_
  _atom_site_label
  _atom_site_occupancy
  _atom_site_fract_x
  _atom_site_fract_y
  _atom_site_fract_z
  _atom_site_thermal_displace_type
  _atom_site_B_iso_or_equiv
  _atom_site_type_symbol
  Cu1      1.0000 0.28363  0.42489  0.09707  Biso   1.000  Cu
  Cu2      1.0000 0.71637  0.92489  0.90293  Biso   1.000  Cu
  Cu3      1.0000 0.20719  0.45009  0.88600  Biso   1.000  Cu
  Cu4      1.0000 0.79281  0.95009  0.11400  Biso   1.000  Cu
  O1       1.0000 0.29940  0.28410  0.06120  Biso   1.000  O
  O2       1.0000 0.70060  0.78410  0.93880  Biso   1.000  O
  O3       1.0000 0.24730  0.30760  0.87840  Biso   1.000  O
  O4       1.0000 0.75270  0.80760  0.12160  Biso   1.000  O
  O5       1.0000 0.56750  0.95480  0.89610  Biso   1.000  O
  O6       1.0000 0.43250  0.45480  0.10390  Biso   1.000  O
  O7       1.0000 0.64220  0.99290  0.08000  Biso   1.000  O
  O8       1.0000 0.35780  0.49290  0.92000  Biso   1.000  O
  O9       1.0000 0.12650  0.39890  0.05840  Biso   1.000  O
  O10      1.0000 0.87350  0.89890  0.94160  Biso   1.000  O
  O11      1.0000 0.05950  0.40530  0.87340  Biso   1.000  O
  O12      1.0000 0.94050  0.90530  0.12660  Biso   1.000  O
  O13      1.0000 0.73890  0.06800  0.89020  Biso   1.000  O
  O14      1.0000 0.26110  0.56800  0.10980  Biso   1.000  O
  O15      1.0000 0.82570  0.08830  0.07760  Biso   1.000  O
  O16      1.0000 0.17430  0.58830  0.92240  Biso   1.000  O
  O17      1.0000 0.35490  0.98290  0.47530  Biso   1.000  O
  O18      1.0000 0.64510  0.48290  0.52470  Biso   1.000  O
  O19      1.0000 0.29330  0.07900  0.57440  Biso   1.000  O
  O20      1.0000 0.70670  0.57900  0.42560  Biso   1.000  O
  H1       1.0000 0.25810  0.02910  0.55400  Biso   1.000  H
  H2       1.0000 0.74190  0.52910  0.44600  Biso   1.000  H
  O21      1.0000 0.36000  0.39010  0.27480  Biso   1.000  O
  O22      1.0000 0.64000  0.89010  0.72520  Biso   1.000  O
  O23      1.0000 0.52730  0.34650  0.29790  Biso   1.000  O
  O24      1.0000 0.47270  0.84650  0.70210  Biso   1.000  O
  H3       1.0000 0.51970  0.39670  0.25360  Biso   1.000  H
  H4       1.0000 0.48030  0.89670  0.74640  Biso   1.000  H
  O25      1.0000 0.16000  0.92960  0.56450  Biso   1.000  O
  O26      1.0000 0.84000  0.42960  0.43550  Biso   1.000  O
  O27      1.0000 0.21670  0.83300  0.46010  Biso   1.000  O
  O28      1.0000 0.78330  0.33300  0.53990  Biso   1.000  O
  H5       1.0000 0.25900  0.88460  0.45550  Biso   1.000  H
  H6       1.0000 0.74100  0.38460  0.54450  Biso   1.000  H
  O29      1.0000 0.13550  0.49610  0.71120  Biso   1.000  O
  O30      1.0000 0.86450  0.99610  0.28880  Biso   1.000  O
  O31      1.0000 0.96150  0.52900  0.69090  Biso   1.000  O
  O32      1.0000 0.03850  0.02900  0.30910  Biso   1.000  O
  H7       1.0000 0.98440  0.50420  0.76060  Biso   1.000  H
  H8       1.0000 0.01560  0.00420  0.23940  Biso   1.000  H
  C1       1.0000 0.31070  0.14170  0.95400  Biso   1.000  C
  C2       1.0000 0.68930  0.64170  0.04600  Biso   1.000  C
  C3       1.0000 0.42830  0.13490  0.95810  Biso   1.000  C
  C4       1.0000 0.57170  0.63490  0.04190  Biso   1.000  C
  C5       1.0000 0.44600  0.01620  0.97210  Biso   1.000  C
  C6       1.0000 0.55400  0.51620  0.02790  Biso   1.000  C
  H9       1.0000 0.38940  0.98360  0.90460  Biso   1.000  H
  H10      1.0000 0.61060  0.48360  0.09540  Biso   1.000  H
  C7       1.0000 0.42350  0.98530  0.06930  Biso   1.000  C
  C8       1.0000 0.57650  0.48530  0.93070  Biso   1.000  C
  H11      1.0000 0.49010  0.98900  0.14000  Biso   1.000  H
  H12      1.0000 0.50990  0.48900  0.86000  Biso   1.000  H
  H13      1.0000 0.39100  0.91760  0.05950  Biso   1.000  H
  H14      1.0000 0.60900  0.41760  0.94050  Biso   1.000  H
  C9       1.0000 0.33390  0.07440  0.05730  Biso   1.000  C
  C10      1.0000 0.66610  0.57440  0.94270  Biso   1.000  C
  H15      1.0000 0.26470  0.04360  0.04940  Biso   1.000  H
  H16      1.0000 0.73530  0.54360  0.95060  Biso   1.000  H
  H17      1.0000 0.36320  0.11640  0.12410  Biso   1.000  H
  H18      1.0000 0.63680  0.61640  0.87590  Biso   1.000  H
  C11      1.0000 0.28350  0.25600  0.96220  Biso   1.000  C
  C12      1.0000 0.71650  0.75600  0.03780  Biso   1.000  C
  C13      1.0000 0.56050  0.98700  0.98240  Biso   1.000  C
  C14      1.0000 0.43950  0.48700  0.01760  Biso   1.000  C
  C15      1.0000 0.23640  0.09650  0.84300  Biso   1.000  C
  C16      1.0000 0.76360  0.59650  0.15700  Biso   1.000  C
  H19      1.0000 0.21720  0.14790  0.78620  Biso   1.000  H
  H20      1.0000 0.78280  0.64790  0.21380  Biso   1.000  H
  H21      1.0000 0.16960  0.07110  0.84430  Biso   1.000  H
  H22      1.0000 0.83040  0.57110  0.15570  Biso   1.000  H
  H23      1.0000 0.27450  0.04150  0.82710  Biso   1.000  H
  H24      1.0000 0.72550  0.54150  0.17290  Biso   1.000  H
  C17      1.0000 0.43470  0.17420  0.85860  Biso   1.000  C
  C18      1.0000 0.56530  0.67420  0.14140  Biso   1.000  C
  H25      1.0000 0.51150  0.18460  0.87470  Biso   1.000  H
  H26      1.0000 0.48850  0.68460  0.12530  Biso   1.000  H
  H27      1.0000 0.39530  0.23790  0.83700  Biso   1.000  H
  H28      1.0000 0.60470  0.73790  0.16300  Biso   1.000  H
  H29      1.0000 0.40140  0.12600  0.79870  Biso   1.000  H
  H30      1.0000 0.59860  0.62600  0.20130  Biso   1.000  H
  C19      1.0000 0.51640  0.18780  0.06360  Biso   1.000  C
  C20      1.0000 0.48360  0.68780  0.93640  Biso   1.000  C
  H31      1.0000 0.58440  0.19600  0.05670  Biso   1.000  H
  H32      1.0000 0.41560  0.69600  0.94330  Biso   1.000  H
  H33      1.0000 0.53040  0.14670  0.12800  Biso   1.000  H
  H34      1.0000 0.46960  0.64670  0.87200  Biso   1.000  H
  H35      1.0000 0.48910  0.25350  0.07180  Biso   1.000  H
  H36      1.0000 0.51090  0.75350  0.92820  Biso   1.000  H
  C21      1.0000 0.93520  0.36180  0.95050  Biso   1.000  C
  C22      1.0000 0.06480  0.86180  0.04950  Biso   1.000  C
  C23      1.0000 0.92100  0.24480  0.95710  Biso   1.000  C
  C24      1.0000 0.07900  0.74480  0.04290  Biso   1.000  C
  C25      1.0000 0.81610  0.23130  0.96360  Biso   1.000  C
  C26      1.0000 0.18390  0.73130  0.03640  Biso   1.000  C
  H37      1.0000 0.75680  0.25320  0.89150  Biso   1.000  H
  H38      1.0000 0.24320  0.75320  0.10850  Biso   1.000  H
  C27      1.0000 0.81250  0.30110  0.04830  Biso   1.000  C
  C28      1.0000 0.18750  0.80110  0.95170  Biso   1.000  C
  H39      1.0000 0.82930  0.26670  0.11830  Biso   1.000  H
  H40      1.0000 0.17070  0.76670  0.88170  Biso   1.000  H
  H41      1.0000 0.74170  0.33660  0.02210  Biso   1.000  H
  H42      1.0000 0.25830  0.83660  0.97790  Biso   1.000  H
  C29      1.0000 0.92350  0.38330  0.05800  Biso   1.000  C
  C30      1.0000 0.07650  0.88330  0.94200  Biso   1.000  C
  H43      1.0000 0.90460  0.45430  0.06150  Biso   1.000  H
  H44      1.0000 0.09540  0.95430  0.93850  Biso   1.000  H
  H45      1.0000 0.99220  0.36740  0.12370  Biso   1.000  H
  H46      1.0000 0.00780  0.86740  0.87630  Biso   1.000  H
  C31      1.0000 0.04840  0.39210  0.96360  Biso   1.000  C
  C32      1.0000 0.95160  0.89210  0.03640  Biso   1.000  C
  C33      1.0000 0.79060  0.12260  0.98030  Biso   1.000  C
  C34      1.0000 0.20940  0.62260  0.01970  Biso   1.000  C
  C35      1.0000 0.84010  0.39340  0.84520  Biso   1.000  C
  C36      1.0000 0.15990  0.89340  0.15480  Biso   1.000  C
  H47      1.0000 0.82510  0.46460  0.84900  Biso   1.000  H
  H48      1.0000 0.17490  0.96460  0.15100  Biso   1.000  H
  H49      1.0000 0.77530  0.35410  0.83410  Biso   1.000  H
  H50      1.0000 0.22470  0.85410  0.16590  Biso   1.000  H
  H51      1.0000 0.85800  0.38190  0.78400  Biso   1.000  H
  H52      1.0000 0.14200  0.88190  0.21600  Biso   1.000  H
  C37      1.0000 0.89100  0.20190  0.82000  Biso   1.000  C
  C38      1.0000 0.10900  0.70190  0.18000  Biso   1.000  C
  H53      1.0000 0.95810  0.20290  0.81060  Biso   1.000  H
  H54      1.0000 0.04190  0.70290  0.18940  Biso   1.000  H
  H55      1.0000 0.83640  0.24610  0.76590  Biso   1.000  H
  H56      1.0000 0.16360  0.74610  0.23410  Biso   1.000  H
  H57      1.0000 0.86220  0.13350  0.80980  Biso   1.000  H
  H58      1.0000 0.13780  0.63350  0.19020  Biso   1.000  H
  C39      1.0000 0.01380  0.18520  0.02240  Biso   1.000  C
  C40      1.0000 0.98620  0.68520  0.97760  Biso   1.000  C
  H59      1.0000 0.04760  0.21080  0.09760  Biso   1.000  H
  H60      1.0000 0.95240  0.71080  0.90240  Biso   1.000  H
  H61      1.0000 0.06680  0.18800  0.99220  Biso   1.000  H
  H62      1.0000 0.93320  0.68800  0.00780  Biso   1.000  H
  H63      1.0000 0.99060  0.11580  0.02240  Biso   1.000  H
  H64      1.0000 0.00940  0.61580  0.97760  Biso   1.000  H
  C41      1.0000 0.42830  0.15080  0.52360  Biso   1.000  C
  C42      1.0000 0.57170  0.65080  0.47640  Biso   1.000  C
  C43      1.0000 0.41800  0.17890  0.40650  Biso   1.000  C
  C44      1.0000 0.58200  0.67890  0.59350  Biso   1.000  C
  C45      1.0000 0.47100  0.28580  0.43130  Biso   1.000  C
  C46      1.0000 0.52900  0.78580  0.56870  Biso   1.000  C
  H65      1.0000 0.55220  0.27760  0.47220  Biso   1.000  H
  H66      1.0000 0.44780  0.77760  0.52780  Biso   1.000  H
  C47      1.0000 0.43120  0.33850  0.50730  Biso   1.000  C
  C48      1.0000 0.56880  0.83850  0.49270  Biso   1.000  C
  H67      1.0000 0.36890  0.38340  0.46500  Biso   1.000  H
  H68      1.0000 0.63110  0.88340  0.53500  Biso   1.000  H
  H69      1.0000 0.49090  0.37840  0.56350  Biso   1.000  H
  H70      1.0000 0.50910  0.87840  0.43650  Biso   1.000  H
  C49      1.0000 0.39560  0.25350  0.56090  Biso   1.000  C
  C50      1.0000 0.60440  0.75350  0.43910  Biso   1.000  C
  H71      1.0000 0.31560  0.25620  0.53670  Biso   1.000  H
  H72      1.0000 0.68440  0.75620  0.46330  Biso   1.000  H
  H73      1.0000 0.43320  0.25980  0.64160  Biso   1.000  H
  H74      1.0000 0.56680  0.75980  0.35840  Biso   1.000  H
  C51      1.0000 0.35410  0.06440  0.52240  Biso   1.000  C
  C52      1.0000 0.64590  0.56440  0.47760  Biso   1.000  C
  C53      1.0000 0.44600  0.34740  0.32700  Biso   1.000  C
  C54      1.0000 0.55400  0.84740  0.67300  Biso   1.000  C
  C55      1.0000 0.54730  0.11630  0.60580  Biso   1.000  C
  C56      1.0000 0.45270  0.61630  0.39420  Biso   1.000  C
  H75      1.0000 0.55200  0.10940  0.67920  Biso   1.000  H
  H76      1.0000 0.44800  0.60940  0.32080  Biso   1.000  H
  H77      1.0000 0.60040  0.16640  0.60720  Biso   1.000  H
  H78      1.0000 0.39960  0.66640  0.39280  Biso   1.000  H
  H79      1.0000 0.56350  0.05190  0.58200  Biso   1.000  H
  H80      1.0000 0.43650  0.55190  0.41800  Biso   1.000  H
  C57      1.0000 0.47600  0.10920  0.36430  Biso   1.000  C
  C58      1.0000 0.52400  0.60920  0.63570  Biso   1.000  C
  H81      1.0000 0.44840  0.04110  0.36170  Biso   1.000  H
  H82      1.0000 0.55160  0.54110  0.63830  Biso   1.000  H
  H83      1.0000 0.55470  0.11080  0.41290  Biso   1.000  H
  H84      1.0000 0.44530  0.61080  0.58710  Biso   1.000  H
  H85      1.0000 0.46300  0.12980  0.29060  Biso   1.000  H
  H86      1.0000 0.53700  0.62980  0.70940  Biso   1.000  H
  C59      1.0000 0.29310  0.18650  0.32380  Biso   1.000  C
  C60      1.0000 0.70690  0.68650  0.67620  Biso   1.000  C
  H87      1.0000 0.28570  0.20770  0.25210  Biso   1.000  H
  H88      1.0000 0.71430  0.70770  0.74790  Biso   1.000  H
  H89      1.0000 0.25760  0.23560  0.35080  Biso   1.000  H
  H90      1.0000 0.74240  0.73560  0.64920  Biso   1.000  H
  H91      1.0000 0.25840  0.12110  0.31720  Biso   1.000  H
  H92      1.0000 0.74160  0.62110  0.68280  Biso   1.000  H
  C61      1.0000 0.06850  0.77200  0.50190  Biso   1.000  C
  C62      1.0000 0.93150  0.27200  0.49810  Biso   1.000  C
  C63      1.0000 0.12520  0.67390  0.57460  Biso   1.000  C
  C64      1.0000 0.87480  0.17390  0.42540  Biso   1.000  C
  C65      1.0000 0.02410  0.62380  0.58220  Biso   1.000  C
  C66      1.0000 0.97590  0.12380  0.41780  Biso   1.000  C
  H93      1.0000 0.98060  0.59050  0.51000  Biso   1.000  H
  H94      1.0000 0.01940  0.09050  0.49000  Biso   1.000  H
  C67      1.0000 0.95150  0.71310  0.58860  Biso   1.000  C
  C68      1.0000 0.04850  0.21310  0.41140  Biso   1.000  C
  H95      1.0000 0.87330  0.70100  0.53920  Biso   1.000  H
  H96      1.0000 0.12670  0.20100  0.46080  Biso   1.000  H
  H97      1.0000 0.96020  0.72100  0.66420  Biso   1.000  H
  H98      1.0000 0.03980  0.22100  0.33580  Biso   1.000  H
  C69      1.0000 0.99260  0.80780  0.55250  Biso   1.000  C
  C70      1.0000 0.00740  0.30780  0.44750  Biso   1.000  C
  H99      1.0000 0.03350  0.85160  0.61630  Biso   1.000  H
  H100     1.0000 0.96650  0.35160  0.38370  Biso   1.000  H
  H101     1.0000 0.93000  0.84590  0.49790  Biso   1.000  H
  H102     1.0000 0.07000  0.34590  0.50210  Biso   1.000  H
  C71      1.0000 0.15040  0.84820  0.50940  Biso   1.000  C
  C72      1.0000 0.84960  0.34820  0.49060  Biso   1.000  C
  C73      1.0000 0.04910  0.54440  0.66710  Biso   1.000  C
  C74      1.0000 0.95090  0.04440  0.33290  Biso   1.000  C
  C75      1.0000 0.00000  0.73980  0.38130  Biso   1.000  C
  C76      1.0000 0.00000  0.23980  0.61870  Biso   1.000  C
  H103     1.0000 0.04510  0.74430  0.34210  Biso   1.000  H
  H104     1.0000 0.95490  0.24430  0.65790  Biso   1.000  H
  H105     1.0000 0.93640  0.78390  0.34660  Biso   1.000  H
  H106     1.0000 0.06360  0.28390  0.65340  Biso   1.000  H
  H107     1.0000 0.97510  0.67070  0.37900  Biso   1.000  H
  H108     1.0000 0.02490  0.17070  0.62100  Biso   1.000  H
  C77      1.0000 0.18180  0.59940  0.52590  Biso   1.000  C
  C78      1.0000 0.81820  0.09940  0.47410  Biso   1.000  C
  H109     1.0000 0.23190  0.55550  0.58410  Biso   1.000  H
  H110     1.0000 0.76810  0.05550  0.41590  Biso   1.000  H
  H111     1.0000 0.22290  0.63750  0.49500  Biso   1.000  H
  H112     1.0000 0.77710  0.13750  0.50500  Biso   1.000  H
  H113     1.0000 0.12580  0.55890  0.46830  Biso   1.000  H
  H114     1.0000 0.87420  0.05890  0.53170  Biso   1.000  H
  C79      1.0000 0.21100  0.70450  0.68490  Biso   1.000  C
  C80      1.0000 0.78900  0.20450  0.31510  Biso   1.000  C
  H115     1.0000 0.23170  0.64670  0.73420  Biso   1.000  H
  H116     1.0000 0.76830  0.14670  0.26580  Biso   1.000  H
  H117     1.0000 0.18220  0.75750  0.71440  Biso   1.000  H
  H118     1.0000 0.81780  0.25750  0.28560  Biso   1.000  H
  H119     1.0000 0.27550  0.72920  0.67830  Biso   1.000  H
  H120     1.0000 0.72450  0.22920  0.32170  Biso   1.000  H
