data_image0
_cell_length_a       12.6991
_cell_length_b       14.0263
_cell_length_c       15.03
_cell_angle_alpha    90
_cell_angle_beta     107.103
_cell_angle_gamma    90

_symmetry_space_group_name_H-M    "P 1"
_symmetry_int_tables_number       1

loop_
  _symmetry_equiv_pos_as_xyz
  'x, y, z'

loop_
  _atom_site_label
  _atom_site_occupancy
  _atom_site_fract_x
  _atom_site_fract_y
  _atom_site_fract_z
  _atom_site_thermal_displace_type
  _atom_site_B_iso_or_equiv
  _atom_site_type_symbol
  Cu1      1.0000 0.80644  0.77569  0.06620  Biso   1.000  Cu
  Cu2      1.0000 0.19356  0.27569  0.43380  Biso   1.000  Cu
  Cu3      1.0000 0.19356  0.22431  0.93380  Biso   1.000  Cu
  Cu4      1.0000 0.80644  0.72431  0.56620  Biso   1.000  Cu
  Cu5      1.0000 0.07937  0.92254  0.35230  Biso   1.000  Cu
  Cu6      1.0000 0.92063  0.42254  0.14770  Biso   1.000  Cu
  Cu7      1.0000 0.92063  0.07746  0.64770  Biso   1.000  Cu
  Cu8      1.0000 0.07937  0.57746  0.85230  Biso   1.000  Cu
  S1       1.0000 0.26497  0.65529  0.32658  Biso   1.000  S
  S2       1.0000 0.73503  0.15529  0.17342  Biso   1.000  S
  S3       1.0000 0.73503  0.34471  0.67342  Biso   1.000  S
  S4       1.0000 0.26497  0.84471  0.82658  Biso   1.000  S
  S5       1.0000 0.77428  0.74913  0.34055  Biso   1.000  S
  S6       1.0000 0.22572  0.24913  0.15945  Biso   1.000  S
  S7       1.0000 0.22572  0.25087  0.65945  Biso   1.000  S
  S8       1.0000 0.77428  0.75087  0.84055  Biso   1.000  S
  O1       1.0000 0.89280  0.88794  0.10392  Biso   1.000  O
  O2       1.0000 0.10720  0.38794  0.39608  Biso   1.000  O
  O3       1.0000 0.10720  0.11206  0.89608  Biso   1.000  O
  O4       1.0000 0.89280  0.61206  0.60392  Biso   1.000  O
  O5       1.0000 0.03816  0.96004  0.19550  Biso   1.000  O
  O6       1.0000 0.96184  0.46004  0.30450  Biso   1.000  O
  O7       1.0000 0.96184  0.03996  0.80450  Biso   1.000  O
  O8       1.0000 0.03816  0.53996  0.69550  Biso   1.000  O
  O9       1.0000 0.98983  0.53969  0.12039  Biso   1.000  O
  O10      1.0000 0.01017  0.03969  0.37961  Biso   1.000  O
  O11      1.0000 0.01017  0.46031  0.87961  Biso   1.000  O
  O12      1.0000 0.98983  0.96031  0.62039  Biso   1.000  O
  O13      1.0000 0.78541  0.49798  0.10834  Biso   1.000  O
  O14      1.0000 0.21459  0.99798  0.39166  Biso   1.000  O
  O15      1.0000 0.21459  0.50202  0.89166  Biso   1.000  O
  O16      1.0000 0.78541  0.00202  0.60834  Biso   1.000  O
  N1       1.0000 0.94052  0.69787  0.08385  Biso   1.000  N
  N2       1.0000 0.05948  0.19787  0.41615  Biso   1.000  N
  N3       1.0000 0.05948  0.30213  0.91615  Biso   1.000  N
  N4       1.0000 0.94052  0.80213  0.58385  Biso   1.000  N
  N5       1.0000 0.73403  0.65385  0.07024  Biso   1.000  N
  N6       1.0000 0.26597  0.15385  0.42976  Biso   1.000  N
  N7       1.0000 0.26597  0.34615  0.92976  Biso   1.000  N
  N8       1.0000 0.73403  0.84615  0.57024  Biso   1.000  N
  N9       1.0000 0.66686  0.85655  0.03676  Biso   1.000  N
  N10      1.0000 0.33314  0.35655  0.46324  Biso   1.000  N
  N11      1.0000 0.33314  0.14345  0.96324  Biso   1.000  N
  N12      1.0000 0.66686  0.64345  0.53676  Biso   1.000  N
  N13      1.0000 0.15083  0.80036  0.34220  Biso   1.000  N
  N14      1.0000 0.84917  0.30036  0.15780  Biso   1.000  N
  N15      1.0000 0.84917  0.19964  0.65780  Biso   1.000  N
  N16      1.0000 0.15083  0.69964  0.84220  Biso   1.000  N
  N17      1.0000 0.95136  0.83884  0.34618  Biso   1.000  N
  N18      1.0000 0.04864  0.33884  0.15382  Biso   1.000  N
  N19      1.0000 0.04864  0.16116  0.65382  Biso   1.000  N
  N20      1.0000 0.95136  0.66116  0.84618  Biso   1.000  N
  N21      1.0000 0.33190  0.83799  0.34550  Biso   1.000  N
  N22      1.0000 0.66810  0.33799  0.15450  Biso   1.000  N
  N23      1.0000 0.66810  0.16201  0.65450  Biso   1.000  N
  N24      1.0000 0.33190  0.66201  0.84550  Biso   1.000  N
  N25      1.0000 0.80870  0.93835  0.35900  Biso   1.000  N
  N26      1.0000 0.19130  0.43835  0.14100  Biso   1.000  N
  N27      1.0000 0.19130  0.06165  0.64100  Biso   1.000  N
  N28      1.0000 0.80870  0.56165  0.85900  Biso   1.000  N
  C1       1.0000 0.99720  0.89549  0.13940  Biso   1.000  C
  C2       1.0000 0.00280  0.39549  0.36060  Biso   1.000  C
  C3       1.0000 0.00280  0.10451  0.86060  Biso   1.000  C
  C4       1.0000 0.99720  0.60451  0.63940  Biso   1.000  C
  C5       1.0000 0.07300  0.82771  0.11232  Biso   1.000  C
  C6       1.0000 0.92700  0.32771  0.38768  Biso   1.000  C
  C7       1.0000 0.92700  0.17229  0.88768  Biso   1.000  C
  C8       1.0000 0.07300  0.67229  0.61232  Biso   1.000  C
  C9       1.0000 0.04591  0.73288  0.08606  Biso   1.000  C
  C10      1.0000 0.95409  0.23288  0.41394  Biso   1.000  C
  C11      1.0000 0.95409  0.26712  0.91394  Biso   1.000  C
  C12      1.0000 0.04591  0.76712  0.58606  Biso   1.000  C
  C13      1.0000 0.12360  0.67630  0.06215  Biso   1.000  C
  C14      1.0000 0.87640  0.17630  0.43785  Biso   1.000  C
  C15      1.0000 0.87640  0.32370  0.93785  Biso   1.000  C
  C16      1.0000 0.12360  0.82370  0.56215  Biso   1.000  C
  H1       1.0000 0.10580  0.61380  0.04310  Biso   1.000  H
  H2       1.0000 0.89420  0.11380  0.45690  Biso   1.000  H
  H3       1.0000 0.89420  0.38620  0.95690  Biso   1.000  H
  H4       1.0000 0.10580  0.88620  0.54310  Biso   1.000  H
  C17      1.0000 0.22650  0.71120  0.06621  Biso   1.000  C
  C18      1.0000 0.77350  0.21120  0.43379  Biso   1.000  C
  C19      1.0000 0.77350  0.28880  0.93379  Biso   1.000  C
  C20      1.0000 0.22650  0.78880  0.56621  Biso   1.000  C
  H5       1.0000 0.27760  0.67180  0.05110  Biso   1.000  H
  H6       1.0000 0.72240  0.17180  0.44890  Biso   1.000  H
  H7       1.0000 0.72240  0.32820  0.94890  Biso   1.000  H
  H8       1.0000 0.27760  0.82820  0.55110  Biso   1.000  H
  C21      1.0000 0.25360  0.80430  0.09260  Biso   1.000  C
  C22      1.0000 0.74640  0.30430  0.40740  Biso   1.000  C
  C23      1.0000 0.74640  0.19570  0.90740  Biso   1.000  C
  C24      1.0000 0.25360  0.69570  0.59260  Biso   1.000  C
  H9       1.0000 0.32250  0.82830  0.09460  Biso   1.000  H
  H10      1.0000 0.67750  0.32830  0.40540  Biso   1.000  H
  H11      1.0000 0.67750  0.17170  0.90540  Biso   1.000  H
  H12      1.0000 0.32250  0.67170  0.59460  Biso   1.000  H
  C25      1.0000 0.17750  0.86128  0.11587  Biso   1.000  C
  C26      1.0000 0.82250  0.36128  0.38413  Biso   1.000  C
  C27      1.0000 0.82250  0.13872  0.88413  Biso   1.000  C
  C28      1.0000 0.17750  0.63872  0.61587  Biso   1.000  C
  H13      1.0000 0.19630  0.92380  0.13440  Biso   1.000  H
  H14      1.0000 0.80370  0.42380  0.36560  Biso   1.000  H
  H15      1.0000 0.80370  0.07620  0.86560  Biso   1.000  H
  H16      1.0000 0.19630  0.57620  0.63440  Biso   1.000  H
  C29      1.0000 0.92245  0.60850  0.09978  Biso   1.000  C
  C30      1.0000 0.07755  0.10850  0.40022  Biso   1.000  C
  C31      1.0000 0.07755  0.39150  0.90022  Biso   1.000  C
  C32      1.0000 0.92245  0.89150  0.59978  Biso   1.000  C
  C33      1.0000 0.80415  0.58473  0.09291  Biso   1.000  C
  C34      1.0000 0.19585  0.08473  0.40709  Biso   1.000  C
  C35      1.0000 0.19585  0.41527  0.90709  Biso   1.000  C
  C36      1.0000 0.80415  0.91527  0.59291  Biso   1.000  C
  C37      1.0000 0.61680  0.63150  0.05690  Biso   1.000  C
  C38      1.0000 0.38320  0.13150  0.44310  Biso   1.000  C
  C39      1.0000 0.38320  0.36850  0.94310  Biso   1.000  C
  C40      1.0000 0.61680  0.86850  0.55690  Biso   1.000  C
  H17      1.0000 0.61100  0.58570  0.10360  Biso   1.000  H
  H18      1.0000 0.38900  0.08570  0.39640  Biso   1.000  H
  H19      1.0000 0.38900  0.41430  0.89640  Biso   1.000  H
  H20      1.0000 0.61100  0.91430  0.60360  Biso   1.000  H
  H21      1.0000 0.58580  0.60270  0.99620  Biso   1.000  H
  H22      1.0000 0.41420  0.10270  0.50380  Biso   1.000  H
  H23      1.0000 0.41420  0.39730  0.00380  Biso   1.000  H
  H24      1.0000 0.58580  0.89730  0.49620  Biso   1.000  H
  C41      1.0000 0.55230  0.71910  0.06420  Biso   1.000  C
  C42      1.0000 0.44770  0.21910  0.43580  Biso   1.000  C
  C43      1.0000 0.44770  0.28090  0.93580  Biso   1.000  C
  C44      1.0000 0.55230  0.78090  0.56420  Biso   1.000  C
  H25      1.0000 0.57580  0.74130  0.12820  Biso   1.000  H
  H26      1.0000 0.42420  0.24130  0.37180  Biso   1.000  H
  H27      1.0000 0.42420  0.25870  0.87180  Biso   1.000  H
  H28      1.0000 0.57580  0.75870  0.62820  Biso   1.000  H
  H29      1.0000 0.47500  0.70210  0.04940  Biso   1.000  H
  H30      1.0000 0.52500  0.20210  0.45060  Biso   1.000  H
  H31      1.0000 0.52500  0.29790  0.95060  Biso   1.000  H
  H32      1.0000 0.47500  0.79790  0.54940  Biso   1.000  H
  C45      1.0000 0.56380  0.79990  0.00180  Biso   1.000  C
  C46      1.0000 0.43620  0.29990  0.49820  Biso   1.000  C
  C47      1.0000 0.43620  0.20010  0.99820  Biso   1.000  C
  C48      1.0000 0.56380  0.70010  0.50180  Biso   1.000  C
  H33      1.0000 0.56080  0.77400  0.94120  Biso   1.000  H
  H34      1.0000 0.43920  0.27400  0.55880  Biso   1.000  H
  H35      1.0000 0.43920  0.22600  0.05880  Biso   1.000  H
  H36      1.0000 0.56080  0.72600  0.44120  Biso   1.000  H
  H37      1.0000 0.50130  0.84240  0.99330  Biso   1.000  H
  H38      1.0000 0.49870  0.34240  0.50670  Biso   1.000  H
  H39      1.0000 0.49870  0.15760  0.00670  Biso   1.000  H
  H40      1.0000 0.50130  0.65760  0.49330  Biso   1.000  H
  C49      1.0000 0.66950  0.92960  0.96610  Biso   1.000  C
  C50      1.0000 0.33050  0.42960  0.53390  Biso   1.000  C
  C51      1.0000 0.33050  0.07040  0.03390  Biso   1.000  C
  C52      1.0000 0.66950  0.57040  0.46610  Biso   1.000  C
  H41      1.0000 0.60780  0.97180  0.95750  Biso   1.000  H
  H42      1.0000 0.39220  0.47180  0.54250  Biso   1.000  H
  H43      1.0000 0.39220  0.02820  0.04250  Biso   1.000  H
  H44      1.0000 0.60780  0.52820  0.45750  Biso   1.000  H
  H45      1.0000 0.66570  0.89880  0.90820  Biso   1.000  H
  H46      1.0000 0.33430  0.39880  0.59180  Biso   1.000  H
  H47      1.0000 0.33430  0.10120  0.09180  Biso   1.000  H
  H48      1.0000 0.66570  0.60120  0.40820  Biso   1.000  H
  H49      1.0000 0.73670  0.96540  0.98690  Biso   1.000  H
  H50      1.0000 0.26330  0.46540  0.51310  Biso   1.000  H
  H51      1.0000 0.26330  0.03460  0.01310  Biso   1.000  H
  H52      1.0000 0.73670  0.53460  0.48690  Biso   1.000  H
  C53      1.0000 0.66590  0.90850  0.12220  Biso   1.000  C
  C54      1.0000 0.33410  0.40850  0.37780  Biso   1.000  C
  C55      1.0000 0.33410  0.09150  0.87780  Biso   1.000  C
  C56      1.0000 0.66590  0.59150  0.62220  Biso   1.000  C
  H53      1.0000 0.73010  0.94820  0.14210  Biso   1.000  H
  H54      1.0000 0.26990  0.44820  0.35790  Biso   1.000  H
  H55      1.0000 0.26990  0.05180  0.85790  Biso   1.000  H
  H56      1.0000 0.73010  0.55180  0.64210  Biso   1.000  H
  H57      1.0000 0.66590  0.86350  0.17040  Biso   1.000  H
  H58      1.0000 0.33410  0.36350  0.32960  Biso   1.000  H
  H59      1.0000 0.33410  0.13650  0.82960  Biso   1.000  H
  H60      1.0000 0.66590  0.63650  0.67040  Biso   1.000  H
  H61      1.0000 0.60100  0.94740  0.10950  Biso   1.000  H
  H62      1.0000 0.39900  0.44740  0.39050  Biso   1.000  H
  H63      1.0000 0.39900  0.05260  0.89050  Biso   1.000  H
  H64      1.0000 0.60100  0.55260  0.60950  Biso   1.000  H
  C57      1.0000 0.24980  0.77719  0.33829  Biso   1.000  C
  C58      1.0000 0.75020  0.27719  0.16171  Biso   1.000  C
  C59      1.0000 0.75020  0.22281  0.66171  Biso   1.000  C
  C60      1.0000 0.24980  0.72281  0.83829  Biso   1.000  C
  C61      1.0000 0.13160  0.63758  0.32828  Biso   1.000  C
  C62      1.0000 0.86840  0.13758  0.17172  Biso   1.000  C
  C63      1.0000 0.86840  0.36242  0.67172  Biso   1.000  C
  C64      1.0000 0.13160  0.86242  0.82828  Biso   1.000  C
  H65      1.0000 0.09740  0.57840  0.32390  Biso   1.000  H
  H66      1.0000 0.90260  0.07840  0.17610  Biso   1.000  H
  H67      1.0000 0.90260  0.42160  0.67610  Biso   1.000  H
  H68      1.0000 0.09740  0.92160  0.82390  Biso   1.000  H
  C65      1.0000 0.08390  0.72087  0.33685  Biso   1.000  C
  C66      1.0000 0.91610  0.22087  0.16315  Biso   1.000  C
  C67      1.0000 0.91610  0.27913  0.66315  Biso   1.000  C
  C68      1.0000 0.08390  0.77913  0.83685  Biso   1.000  C
  C69      1.0000 0.97230  0.74175  0.33878  Biso   1.000  C
  C70      1.0000 0.02770  0.24175  0.16122  Biso   1.000  C
  C71      1.0000 0.02770  0.25825  0.66122  Biso   1.000  C
  C72      1.0000 0.97230  0.75825  0.83878  Biso   1.000  C
  C73      1.0000 0.88740  0.68436  0.33461  Biso   1.000  C
  C74      1.0000 0.11260  0.18436  0.16539  Biso   1.000  C
  C75      1.0000 0.11260  0.31564  0.66539  Biso   1.000  C
  C76      1.0000 0.88740  0.81564  0.83461  Biso   1.000  C
  H69      1.0000 0.88900  0.61840  0.32920  Biso   1.000  H
  H70      1.0000 0.11100  0.11840  0.17080  Biso   1.000  H
  H71      1.0000 0.11100  0.38160  0.67080  Biso   1.000  H
  H72      1.0000 0.88900  0.88160  0.82920  Biso   1.000  H
  C77      1.0000 0.85030  0.85367  0.34868  Biso   1.000  C
  C78      1.0000 0.14970  0.35367  0.15132  Biso   1.000  C
  C79      1.0000 0.14970  0.14633  0.65132  Biso   1.000  C
  C80      1.0000 0.85030  0.64633  0.84868  Biso   1.000  C
  N29      1.0000 0.47480  0.47000  0.21130  Biso   1.000  N
  N30      1.0000 0.52520  0.97000  0.28870  Biso   1.000  N
  N31      1.0000 0.52520  0.53000  0.78870  Biso   1.000  N
  N32      1.0000 0.47480  0.03000  0.71130  Biso   1.000  N
  O17      1.0000 0.43990  0.38790  0.19450  Biso   1.000  O
  O18      1.0000 0.56010  0.88790  0.30550  Biso   1.000  O
  O19      1.0000 0.56010  0.61210  0.80550  Biso   1.000  O
  O20      1.0000 0.43990  0.11210  0.69450  Biso   1.000  O
  O21      1.0000 0.57000  0.48760  0.25220  Biso   1.000  O
  O22      1.0000 0.43000  0.98760  0.24780  Biso   1.000  O
  O23      1.0000 0.43000  0.51240  0.74780  Biso   1.000  O
  O24      1.0000 0.57000  0.01240  0.75220  Biso   1.000  O
  O25      1.0000 0.40990  0.53460  0.17990  Biso   1.000  O
  O26      1.0000 0.59010  0.03460  0.32010  Biso   1.000  O
  O27      1.0000 0.59010  0.46540  0.82010  Biso   1.000  O
  O28      1.0000 0.40990  0.96540  0.67990  Biso   1.000  O
  O29      1.0000 0.52610  0.20930  0.22420  Biso   1.000  O
  O30      1.0000 0.47390  0.70930  0.27580  Biso   1.000  O
  O31      1.0000 0.47390  0.79070  0.77580  Biso   1.000  O
  O32      1.0000 0.52610  0.29070  0.72420  Biso   1.000  O
  H73      1.0000 0.48980  0.25640  0.22870  Biso   1.000  H
  H74      1.0000 0.51020  0.75640  0.27130  Biso   1.000  H
  H75      1.0000 0.51020  0.74360  0.77130  Biso   1.000  H
  H76      1.0000 0.48980  0.24360  0.72870  Biso   1.000  H
  H77      1.0000 0.51650  0.16750  0.25920  Biso   1.000  H
  H78      1.0000 0.48350  0.66750  0.24080  Biso   1.000  H
  H79      1.0000 0.48350  0.83250  0.74080  Biso   1.000  H
  H80      1.0000 0.51650  0.33250  0.75920  Biso   1.000  H
  H81      1.0000 0.31700  0.89400  0.34200  Biso   1.000  H
  H82      1.0000 0.68300  0.39400  0.15800  Biso   1.000  H
  H83      1.0000 0.68300  0.10600  0.65800  Biso   1.000  H
  H84      1.0000 0.31700  0.60600  0.84200  Biso   1.000  H
  H85      1.0000 0.38000  0.81900  0.32300  Biso   1.000  H
  H86      1.0000 0.62000  0.31900  0.17700  Biso   1.000  H
  H87      1.0000 0.62000  0.18100  0.67700  Biso   1.000  H
  H88      1.0000 0.38000  0.68100  0.82300  Biso   1.000  H
  H89      1.0000 0.84600  0.98600  0.35400  Biso   1.000  H
  H90      1.0000 0.15400  0.48600  0.14600  Biso   1.000  H
  H91      1.0000 0.15400  0.01400  0.64600  Biso   1.000  H
  H92      1.0000 0.84600  0.51400  0.85400  Biso   1.000  H
  H93      1.0000 0.74100  0.94520  0.35200  Biso   1.000  H
  H94      1.0000 0.25900  0.44520  0.14800  Biso   1.000  H
  H95      1.0000 0.25900  0.05480  0.64800  Biso   1.000  H
  H96      1.0000 0.74100  0.55480  0.85200  Biso   1.000  H
