data_image0
_cell_length_a       8.0002
_cell_length_b       8.9616
_cell_length_c       10.2285
_cell_angle_alpha    71.333
_cell_angle_beta     77.76
_cell_angle_gamma    69.023

_symmetry_space_group_name_H-M    "P 1"
_symmetry_int_tables_number       1

loop_
  _symmetry_equiv_pos_as_xyz
  'x, y, z'

loop_
  _atom_site_label
  _atom_site_occupancy
  _atom_site_fract_x
  _atom_site_fract_y
  _atom_site_fract_z
  _atom_site_thermal_displace_type
  _atom_site_B_iso_or_equiv
  _atom_site_type_symbol
  Cu1      1.0000 0.11805  0.60550  0.25186  Biso   1.000  Cu
  Cu2      1.0000 0.88195  0.39450  0.74814  Biso   1.000  Cu
  C1       1.0000 0.17820  0.46970  0.99760  Biso   1.000  C
  C2       1.0000 0.82180  0.53030  0.00240  Biso   1.000  C
  H1       1.0000 0.30420  0.44770  0.99360  Biso   1.000  H
  H2       1.0000 0.69580  0.55230  0.00640  Biso   1.000  H
  C3       1.0000 0.11020  0.44430  0.89500  Biso   1.000  C
  C4       1.0000 0.88980  0.55570  0.10500  Biso   1.000  C
  N1       1.0000 0.06760  0.52500  0.10210  Biso   1.000  N
  N2       1.0000 0.93240  0.47500  0.89790  Biso   1.000  N
  C5       1.0000 0.22960  0.37200  0.78070  Biso   1.000  C
  C6       1.0000 0.77040  0.62800  0.21930  Biso   1.000  C
  N3       1.0000 0.13670  0.34770  0.70339  Biso   1.000  N
  N4       1.0000 0.86330  0.65230  0.29661  Biso   1.000  N
  O1       1.0000 0.39812  0.33902  0.77098  Biso   1.000  O
  O2       1.0000 0.60188  0.66098  0.22902  Biso   1.000  O
  C7       1.0000 0.22440  0.26440  0.59430  Biso   1.000  C
  C8       1.0000 0.77560  0.73560  0.40570  Biso   1.000  C
  H3       1.0000 0.29800  0.32770  0.52440  Biso   1.000  H
  H4       1.0000 0.70200  0.67230  0.47560  Biso   1.000  H
  H5       1.0000 0.30450  0.15180  0.63410  Biso   1.000  H
  H6       1.0000 0.69550  0.84820  0.36590  Biso   1.000  H
  C9       1.0000 0.07910  0.25400  0.52710  Biso   1.000  C
  C10      1.0000 0.92090  0.74600  0.47290  Biso   1.000  C
  C11      1.0000 0.12080  0.18840  0.41370  Biso   1.000  C
  C12      1.0000 0.87920  0.81160  0.58630  Biso   1.000  C
  H7       1.0000 0.24240  0.15080  0.37530  Biso   1.000  H
  H8       1.0000 0.75760  0.84920  0.62470  Biso   1.000  H
  C13      1.0000 0.98360  0.17830  0.35730  Biso   1.000  C
  C14      1.0000 0.01640  0.82170  0.64270  Biso   1.000  C
  H9       1.0000 0.00960  0.13420  0.27950  Biso   1.000  H
  H10      1.0000 0.99040  0.86580  0.72050  Biso   1.000  H
  C15      1.0000 0.80690  0.23380  0.41640  Biso   1.000  C
  C16      1.0000 0.19310  0.76620  0.58360  Biso   1.000  C
  H11      1.0000 0.71040  0.22790  0.37990  Biso   1.000  H
  H12      1.0000 0.28960  0.77210  0.62010  Biso   1.000  H
  C17      1.0000 0.77420  0.29750  0.52900  Biso   1.000  C
  C18      1.0000 0.22580  0.70250  0.47100  Biso   1.000  C
  H13      1.0000 0.65360  0.33520  0.56930  Biso   1.000  H
  H14      1.0000 0.34640  0.66480  0.43070  Biso   1.000  H
  N5       1.0000 0.90750  0.30790  0.58370  Biso   1.000  N
  N6       1.0000 0.09250  0.69210  0.41630  Biso   1.000  N
  O3       1.0000 0.37790  0.49620  0.24141  Biso   1.000  O
  O4       1.0000 0.62210  0.50380  0.75859  Biso   1.000  O
  H15      1.0000 0.43100  0.41000  0.22100  Biso   1.000  H
  H16      1.0000 0.56900  0.59000  0.77900  Biso   1.000  H
  H17      1.0000 0.44500  0.54700  0.22100  Biso   1.000  H
  H18      1.0000 0.55500  0.45300  0.77900  Biso   1.000  H
  Si1      1.0000 0.00000  0.00000  0.00000  Biso   1.000  Si
  F1       1.0000 0.15498  0.82597  0.08280  Biso   1.000  F
  F2       1.0000 0.84502  0.17403  0.91720  Biso   1.000  F
  F3       1.0000 0.11850  0.98187  0.84640  Biso   1.000  F
  F4       1.0000 0.88150  0.01813  0.15360  Biso   1.000  F
  F5       1.0000 0.11850  0.11527  0.01368  Biso   1.000  F
  F6       1.0000 0.88150  0.88473  0.98632  Biso   1.000  F
  O5       1.0000 0.53430  0.22480  0.16900  Biso   1.000  O
  O6       1.0000 0.46570  0.77520  0.83100  Biso   1.000  O
  H19      1.0000 0.49100  0.16400  0.17100  Biso   1.000  H
  H20      1.0000 0.50900  0.83600  0.82900  Biso   1.000  H
  H21      1.0000 0.62000  0.19100  0.15900  Biso   1.000  H
  H22      1.0000 0.38000  0.80900  0.84100  Biso   1.000  H
  O7       1.0000 0.38180  0.99840  0.18370  Biso   1.000  O
  O8       1.0000 0.61820  0.00160  0.81630  Biso   1.000  O
  H23      1.0000 0.32900  0.01700  0.12800  Biso   1.000  H
  H24      1.0000 0.67100  0.98300  0.87200  Biso   1.000  H
  H25      1.0000 0.43400  0.91800  0.18800  Biso   1.000  H
  H26      1.0000 0.56600  0.08200  0.81200  Biso   1.000  H
