data_image0
_cell_length_a       7.333
_cell_length_b       18.187
_cell_length_c       13.579
_cell_angle_alpha    90
_cell_angle_beta     90
_cell_angle_gamma    90

_symmetry_space_group_name_H-M    "P 1"
_symmetry_int_tables_number       1

loop_
  _symmetry_equiv_pos_as_xyz
  'x, y, z'

loop_
  _atom_site_label
  _atom_site_occupancy
  _atom_site_fract_x
  _atom_site_fract_y
  _atom_site_fract_z
  _atom_site_thermal_displace_type
  _atom_site_B_iso_or_equiv
  _atom_site_type_symbol
  Cu1      1.0000 0.50000  0.50000  0.00000  Biso   1.000  Cu
  Cu2      1.0000 0.00000  0.00000  0.00000  Biso   1.000  Cu
  Cu3      1.0000 0.50000  0.00000  0.50000  Biso   1.000  Cu
  Cu4      1.0000 0.00000  0.50000  0.50000  Biso   1.000  Cu
  N1       1.0000 0.50000  0.56634  0.12099  Biso   1.000  N
  N2       1.0000 0.00000  0.06634  0.12099  Biso   1.000  N
  N3       1.0000 0.50000  0.93366  0.62099  Biso   1.000  N
  N4       1.0000 0.50000  0.06634  0.37901  Biso   1.000  N
  N5       1.0000 0.50000  0.43366  0.87901  Biso   1.000  N
  N6       1.0000 0.00000  0.43366  0.62099  Biso   1.000  N
  N7       1.0000 0.00000  0.56634  0.37901  Biso   1.000  N
  N8       1.0000 0.00000  0.93366  0.87901  Biso   1.000  N
  N9       1.0000 0.50000  0.74050  0.43570  Biso   1.000  N
  N10      1.0000 0.00000  0.24050  0.43570  Biso   1.000  N
  N11      1.0000 0.50000  0.75950  0.93570  Biso   1.000  N
  N12      1.0000 0.50000  0.24050  0.06430  Biso   1.000  N
  N13      1.0000 0.50000  0.25950  0.56430  Biso   1.000  N
  N14      1.0000 0.00000  0.25950  0.93570  Biso   1.000  N
  N15      1.0000 0.00000  0.74050  0.06430  Biso   1.000  N
  N16      1.0000 0.00000  0.75950  0.56430  Biso   1.000  N
  N17      1.0000 0.29040  0.43185  0.06790  Biso   1.000  N
  N18      1.0000 0.79040  0.93185  0.06790  Biso   1.000  N
  N19      1.0000 0.70960  0.06815  0.56790  Biso   1.000  N
  N20      1.0000 0.70960  0.93185  0.43210  Biso   1.000  N
  N21      1.0000 0.29040  0.56815  0.93210  Biso   1.000  N
  N22      1.0000 0.20960  0.56815  0.56790  Biso   1.000  N
  N23      1.0000 0.20960  0.43185  0.43210  Biso   1.000  N
  N24      1.0000 0.79040  0.06815  0.93210  Biso   1.000  N
  N25      1.0000 0.70960  0.56815  0.93210  Biso   1.000  N
  N26      1.0000 0.20960  0.06815  0.93210  Biso   1.000  N
  N27      1.0000 0.29040  0.93185  0.43210  Biso   1.000  N
  N28      1.0000 0.29040  0.06815  0.56790  Biso   1.000  N
  N29      1.0000 0.70960  0.43185  0.06790  Biso   1.000  N
  N30      1.0000 0.79040  0.43185  0.43210  Biso   1.000  N
  N31      1.0000 0.79040  0.56815  0.56790  Biso   1.000  N
  N32      1.0000 0.20960  0.93185  0.06790  Biso   1.000  N
  N33      1.0000 0.00000  0.38310  0.12910  Biso   1.000  N
  N34      1.0000 0.50000  0.88310  0.12910  Biso   1.000  N
  N35      1.0000 0.00000  0.11690  0.62910  Biso   1.000  N
  N36      1.0000 0.00000  0.88310  0.37090  Biso   1.000  N
  N37      1.0000 0.00000  0.61690  0.87090  Biso   1.000  N
  N38      1.0000 0.50000  0.61690  0.62910  Biso   1.000  N
  N39      1.0000 0.50000  0.38310  0.37090  Biso   1.000  N
  N40      1.0000 0.50000  0.11690  0.87090  Biso   1.000  N
  C1       1.0000 0.50000  0.63964  0.11010  Biso   1.000  C
  C2       1.0000 0.00000  0.13964  0.11010  Biso   1.000  C
  C3       1.0000 0.50000  0.86036  0.61010  Biso   1.000  C
  C4       1.0000 0.50000  0.13964  0.38990  Biso   1.000  C
  C5       1.0000 0.50000  0.36036  0.88990  Biso   1.000  C
  C6       1.0000 0.00000  0.36036  0.61010  Biso   1.000  C
  C7       1.0000 0.00000  0.63964  0.38990  Biso   1.000  C
  C8       1.0000 0.00000  0.86036  0.88990  Biso   1.000  C
  H1       1.0000 0.50000  0.65910  0.04680  Biso   1.000  H
  H2       1.0000 0.00000  0.15910  0.04680  Biso   1.000  H
  H3       1.0000 0.50000  0.84090  0.54680  Biso   1.000  H
  H4       1.0000 0.50000  0.15910  0.45320  Biso   1.000  H
  H5       1.0000 0.50000  0.34090  0.95320  Biso   1.000  H
  H6       1.0000 0.00000  0.34090  0.54680  Biso   1.000  H
  H7       1.0000 0.00000  0.65910  0.45320  Biso   1.000  H
  H8       1.0000 0.00000  0.84090  0.95320  Biso   1.000  H
  C9       1.0000 0.50000  0.68690  0.18810  Biso   1.000  C
  C10      1.0000 0.00000  0.18690  0.18810  Biso   1.000  C
  C11      1.0000 0.50000  0.81310  0.68810  Biso   1.000  C
  C12      1.0000 0.50000  0.18690  0.31190  Biso   1.000  C
  C13      1.0000 0.50000  0.31310  0.81190  Biso   1.000  C
  C14      1.0000 0.00000  0.31310  0.68810  Biso   1.000  C
  C15      1.0000 0.00000  0.68690  0.31190  Biso   1.000  C
  C16      1.0000 0.00000  0.81310  0.81190  Biso   1.000  C
  H9       1.0000 0.50000  0.73750  0.17840  Biso   1.000  H
  H10      1.0000 0.00000  0.23750  0.17840  Biso   1.000  H
  H11      1.0000 0.50000  0.76250  0.67840  Biso   1.000  H
  H12      1.0000 0.50000  0.23750  0.32160  Biso   1.000  H
  H13      1.0000 0.50000  0.26250  0.82160  Biso   1.000  H
  H14      1.0000 0.00000  0.26250  0.67840  Biso   1.000  H
  H15      1.0000 0.00000  0.73750  0.32160  Biso   1.000  H
  H16      1.0000 0.00000  0.76250  0.82160  Biso   1.000  H
  C17      1.0000 0.50000  0.65750  0.28260  Biso   1.000  C
  C18      1.0000 0.00000  0.15750  0.28260  Biso   1.000  C
  C19      1.0000 0.50000  0.84250  0.78260  Biso   1.000  C
  C20      1.0000 0.50000  0.15750  0.21740  Biso   1.000  C
  C21      1.0000 0.50000  0.34250  0.71740  Biso   1.000  C
  C22      1.0000 0.00000  0.34250  0.78260  Biso   1.000  C
  C23      1.0000 0.00000  0.65750  0.21740  Biso   1.000  C
  C24      1.0000 0.00000  0.84250  0.71740  Biso   1.000  C
  C25      1.0000 0.50000  0.58230  0.29480  Biso   1.000  C
  C26      1.0000 0.00000  0.08230  0.29480  Biso   1.000  C
  C27      1.0000 0.50000  0.91770  0.79480  Biso   1.000  C
  C28      1.0000 0.50000  0.08230  0.20520  Biso   1.000  C
  C29      1.0000 0.50000  0.41770  0.70520  Biso   1.000  C
  C30      1.0000 0.00000  0.41770  0.79480  Biso   1.000  C
  C31      1.0000 0.00000  0.58230  0.20520  Biso   1.000  C
  C32      1.0000 0.00000  0.91770  0.70520  Biso   1.000  C
  H17      1.0000 0.50000  0.56150  0.35740  Biso   1.000  H
  H18      1.0000 0.00000  0.06150  0.35740  Biso   1.000  H
  H19      1.0000 0.50000  0.93850  0.85740  Biso   1.000  H
  H20      1.0000 0.50000  0.06150  0.14260  Biso   1.000  H
  H21      1.0000 0.50000  0.43850  0.64260  Biso   1.000  H
  H22      1.0000 0.00000  0.43850  0.85740  Biso   1.000  H
  H23      1.0000 0.00000  0.56150  0.14260  Biso   1.000  H
  H24      1.0000 0.00000  0.93850  0.64260  Biso   1.000  H
  C33      1.0000 0.50000  0.53870  0.21220  Biso   1.000  C
  C34      1.0000 0.00000  0.03870  0.21220  Biso   1.000  C
  C35      1.0000 0.50000  0.96130  0.71220  Biso   1.000  C
  C36      1.0000 0.50000  0.03870  0.28780  Biso   1.000  C
  C37      1.0000 0.50000  0.46130  0.78780  Biso   1.000  C
  C38      1.0000 0.00000  0.46130  0.71220  Biso   1.000  C
  C39      1.0000 0.00000  0.53870  0.28780  Biso   1.000  C
  C40      1.0000 0.00000  0.96130  0.78780  Biso   1.000  C
  H25      1.0000 0.50000  0.48790  0.22000  Biso   1.000  H
  H26      1.0000 0.00000  0.98790  0.22000  Biso   1.000  H
  H27      1.0000 0.50000  0.01210  0.72000  Biso   1.000  H
  H28      1.0000 0.50000  0.98790  0.28000  Biso   1.000  H
  H29      1.0000 0.50000  0.51210  0.78000  Biso   1.000  H
  H30      1.0000 0.00000  0.51210  0.72000  Biso   1.000  H
  H31      1.0000 0.00000  0.48790  0.28000  Biso   1.000  H
  H32      1.0000 0.00000  0.01210  0.78000  Biso   1.000  H
  C41      1.0000 0.50000  0.70490  0.36840  Biso   1.000  C
  C42      1.0000 0.00000  0.20490  0.36840  Biso   1.000  C
  C43      1.0000 0.50000  0.79510  0.86840  Biso   1.000  C
  C44      1.0000 0.50000  0.20490  0.13160  Biso   1.000  C
  C45      1.0000 0.50000  0.29510  0.63160  Biso   1.000  C
  C46      1.0000 0.00000  0.29510  0.86840  Biso   1.000  C
  C47      1.0000 0.00000  0.70490  0.13160  Biso   1.000  C
  C48      1.0000 0.00000  0.79510  0.63160  Biso   1.000  C
  C49      1.0000 0.15340  0.40965  0.09403  Biso   1.000  C
  C50      1.0000 0.65340  0.90965  0.09403  Biso   1.000  C
  C51      1.0000 0.84660  0.09035  0.59403  Biso   1.000  C
  C52      1.0000 0.84660  0.90965  0.40597  Biso   1.000  C
  C53      1.0000 0.15340  0.59035  0.90597  Biso   1.000  C
  C54      1.0000 0.34660  0.59035  0.59403  Biso   1.000  C
  C55      1.0000 0.34660  0.40965  0.40597  Biso   1.000  C
  C56      1.0000 0.65340  0.09035  0.90597  Biso   1.000  C
  C57      1.0000 0.84660  0.59035  0.90597  Biso   1.000  C
  C58      1.0000 0.34660  0.09035  0.90597  Biso   1.000  C
  C59      1.0000 0.15340  0.90965  0.40597  Biso   1.000  C
  C60      1.0000 0.15340  0.09035  0.59403  Biso   1.000  C
  C61      1.0000 0.84660  0.40965  0.09403  Biso   1.000  C
  C62      1.0000 0.65340  0.40965  0.40597  Biso   1.000  C
  C63      1.0000 0.65340  0.59035  0.59403  Biso   1.000  C
  C64      1.0000 0.34660  0.90965  0.09403  Biso   1.000  C
