data_image0
_cell_length_a       10.187
_cell_length_b       12.714
_cell_length_c       10.213
_cell_angle_alpha    90
_cell_angle_beta     98.122
_cell_angle_gamma    90

_symmetry_space_group_name_H-M    "P 1"
_symmetry_int_tables_number       1

loop_
  _symmetry_equiv_pos_as_xyz
  'x, y, z'

loop_
  _atom_site_label
  _atom_site_occupancy
  _atom_site_fract_x
  _atom_site_fract_y
  _atom_site_fract_z
  _atom_site_thermal_displace_type
  _atom_site_B_iso_or_equiv
  _atom_site_type_symbol
  Cu1      1.0000 0.44450  0.12959  0.30170  Biso   1.000  Cu
  Cu2      1.0000 0.05550  0.62959  0.19830  Biso   1.000  Cu
  Cu3      1.0000 0.55550  0.87041  0.69830  Biso   1.000  Cu
  Cu4      1.0000 0.94450  0.37041  0.80170  Biso   1.000  Cu
  N1       1.0000 0.37160  0.12489  0.46947  Biso   1.000  N
  N2       1.0000 0.12840  0.62489  0.03053  Biso   1.000  N
  N3       1.0000 0.62840  0.87511  0.53053  Biso   1.000  N
  N4       1.0000 0.87160  0.37511  0.96947  Biso   1.000  N
  H1       1.0000 0.42180  0.12480  0.54460  Biso   1.000  H
  H2       1.0000 0.07820  0.62480  0.95540  Biso   1.000  H
  H3       1.0000 0.57820  0.87520  0.45540  Biso   1.000  H
  H4       1.0000 0.92180  0.37520  0.04460  Biso   1.000  H
  O1       1.0000 0.17174  0.12156  0.55544  Biso   1.000  O
  O2       1.0000 0.32826  0.62156  0.94456  Biso   1.000  O
  O3       1.0000 0.82826  0.87844  0.44456  Biso   1.000  O
  O4       1.0000 0.67174  0.37844  0.05544  Biso   1.000  O
  N5       1.0000 0.25010  0.11889  0.23050  Biso   1.000  N
  N6       1.0000 0.24990  0.61889  0.26950  Biso   1.000  N
  N7       1.0000 0.74990  0.88111  0.76950  Biso   1.000  N
  N8       1.0000 0.75010  0.38111  0.73050  Biso   1.000  N
  N9       1.0000 0.41180  0.32620  0.26300  Biso   1.000  N
  N10      1.0000 0.08820  0.82620  0.23700  Biso   1.000  N
  N11      1.0000 0.58820  0.67380  0.73700  Biso   1.000  N
  N12      1.0000 0.91180  0.17380  0.76300  Biso   1.000  N
  N13      1.0000 0.33570  0.37170  0.03380  Biso   1.000  N
  N14      1.0000 0.16430  0.87170  0.46620  Biso   1.000  N
  N15      1.0000 0.66430  0.62830  0.96620  Biso   1.000  N
  N16      1.0000 0.83570  0.12830  0.53380  Biso   1.000  N
  N17      1.0000 0.12500  0.36260  0.89440  Biso   1.000  N
  N18      1.0000 0.37500  0.86260  0.60560  Biso   1.000  N
  N19      1.0000 0.87500  0.63740  0.10560  Biso   1.000  N
  N20      1.0000 0.62500  0.13740  0.39440  Biso   1.000  N
  N21      1.0000 0.50980  0.11850  0.13010  Biso   1.000  N
  N22      1.0000 0.99020  0.61850  0.36990  Biso   1.000  N
  N23      1.0000 0.49020  0.88150  0.86990  Biso   1.000  N
  N24      1.0000 0.00980  0.38150  0.63010  Biso   1.000  N
  N25      1.0000 0.64660  0.12760  0.95390  Biso   1.000  N
  N26      1.0000 0.85340  0.62760  0.54610  Biso   1.000  N
  N27      1.0000 0.35340  0.87240  0.04610  Biso   1.000  N
  N28      1.0000 0.14660  0.37240  0.45390  Biso   1.000  N
  N29      1.0000 0.56840  0.09940  0.71840  Biso   1.000  N
  N30      1.0000 0.93160  0.59940  0.78160  Biso   1.000  N
  N31      1.0000 0.43160  0.90060  0.28160  Biso   1.000  N
  N32      1.0000 0.06840  0.40060  0.21840  Biso   1.000  N
  C1       1.0000 0.19290  0.11880  0.10410  Biso   1.000  C
  C2       1.0000 0.30710  0.61880  0.39590  Biso   1.000  C
  C3       1.0000 0.80710  0.88120  0.89590  Biso   1.000  C
  C4       1.0000 0.69290  0.38120  0.60410  Biso   1.000  C
  H5       1.0000 0.24650  0.11950  0.03760  Biso   1.000  H
  H6       1.0000 0.25350  0.61950  0.46240  Biso   1.000  H
  H7       1.0000 0.75350  0.88050  0.96240  Biso   1.000  H
  H8       1.0000 0.74650  0.38050  0.53760  Biso   1.000  H
  C5       1.0000 0.05760  0.11790  0.06940  Biso   1.000  C
  C6       1.0000 0.44240  0.61790  0.43060  Biso   1.000  C
  C7       1.0000 0.94240  0.88210  0.93060  Biso   1.000  C
  C8       1.0000 0.55760  0.38210  0.56940  Biso   1.000  C
  H9       1.0000 0.02020  0.11860  0.98090  Biso   1.000  H
  H10      1.0000 0.47980  0.61860  0.51910  Biso   1.000  H
  H11      1.0000 0.97980  0.88140  0.01910  Biso   1.000  H
  H12      1.0000 0.52020  0.38140  0.48090  Biso   1.000  H
  C9       1.0000 0.98000  0.11570  0.16620  Biso   1.000  C
  C10      1.0000 0.52000  0.61570  0.33380  Biso   1.000  C
  C11      1.0000 0.02000  0.88430  0.83380  Biso   1.000  C
  C12      1.0000 0.48000  0.38430  0.66620  Biso   1.000  C
  H13      1.0000 0.88820  0.11470  0.14420  Biso   1.000  H
  H14      1.0000 0.61180  0.61470  0.35580  Biso   1.000  H
  H15      1.0000 0.11180  0.88530  0.85580  Biso   1.000  H
  H16      1.0000 0.38820  0.38530  0.64420  Biso   1.000  H
  C13      1.0000 0.03650  0.11520  0.29890  Biso   1.000  C
  C14      1.0000 0.46350  0.61520  0.20110  Biso   1.000  C
  C15      1.0000 0.96350  0.88480  0.70110  Biso   1.000  C
  C16      1.0000 0.53650  0.38480  0.79890  Biso   1.000  C
  H17      1.0000 0.98430  0.11260  0.36660  Biso   1.000  H
  H18      1.0000 0.51570  0.61260  0.13340  Biso   1.000  H
  H19      1.0000 0.01570  0.88740  0.63340  Biso   1.000  H
  H20      1.0000 0.48430  0.38740  0.86660  Biso   1.000  H
  C17      1.0000 0.17160  0.11860  0.32500  Biso   1.000  C
  C18      1.0000 0.32840  0.61860  0.17500  Biso   1.000  C
  C19      1.0000 0.82840  0.88140  0.67500  Biso   1.000  C
  C20      1.0000 0.67160  0.38140  0.82500  Biso   1.000  C
  C21      1.0000 0.24790  0.12190  0.46060  Biso   1.000  C
  C22      1.0000 0.25210  0.62190  0.03940  Biso   1.000  C
  C23      1.0000 0.75210  0.87810  0.53940  Biso   1.000  C
  C24      1.0000 0.74790  0.37810  0.96060  Biso   1.000  C
  C25      1.0000 0.23520  0.12790  0.69000  Biso   1.000  C
  C26      1.0000 0.26480  0.62790  0.81000  Biso   1.000  C
  C27      1.0000 0.76480  0.87210  0.31000  Biso   1.000  C
  C28      1.0000 0.73520  0.37210  0.19000  Biso   1.000  C
  H21      1.0000 0.28920  0.06660  0.71080  Biso   1.000  H
  H22      1.0000 0.21080  0.56660  0.78920  Biso   1.000  H
  H23      1.0000 0.71080  0.93340  0.28920  Biso   1.000  H
  H24      1.0000 0.78920  0.43340  0.21080  Biso   1.000  H
  H25      1.0000 0.16900  0.13150  0.74810  Biso   1.000  H
  H26      1.0000 0.33100  0.63150  0.75190  Biso   1.000  H
  H27      1.0000 0.83100  0.86850  0.25190  Biso   1.000  H
  H28      1.0000 0.66900  0.36850  0.24810  Biso   1.000  H
  H29      1.0000 0.28970  0.18970  0.70110  Biso   1.000  H
  H30      1.0000 0.21030  0.68970  0.79890  Biso   1.000  H
  H31      1.0000 0.71030  0.81030  0.29890  Biso   1.000  H
  H32      1.0000 0.78970  0.31030  0.20110  Biso   1.000  H
  C29      1.0000 0.36890  0.34690  0.15740  Biso   1.000  C
  C30      1.0000 0.13110  0.84690  0.34260  Biso   1.000  C
  C31      1.0000 0.63110  0.65310  0.84260  Biso   1.000  C
  C32      1.0000 0.86890  0.15310  0.65740  Biso   1.000  C
  C33      1.0000 0.21970  0.36440  0.96740  Biso   1.000  C
  C34      1.0000 0.28030  0.86440  0.53260  Biso   1.000  C
  C35      1.0000 0.78030  0.63560  0.03260  Biso   1.000  C
  C36      1.0000 0.71970  0.13560  0.46740  Biso   1.000  C
  C37      1.0000 0.56910  0.12200  0.04340  Biso   1.000  C
  C38      1.0000 0.93090  0.62200  0.45660  Biso   1.000  C
  C39      1.0000 0.43090  0.87800  0.95660  Biso   1.000  C
  C40      1.0000 0.06910  0.37800  0.54340  Biso   1.000  C
  C41      1.0000 0.60040  0.11220  0.82860  Biso   1.000  C
  C42      1.0000 0.89960  0.61220  0.67140  Biso   1.000  C
  C43      1.0000 0.39960  0.88780  0.17140  Biso   1.000  C
  C44      1.0000 0.10040  0.38780  0.32860  Biso   1.000  C
