data_image0
_cell_length_a       7.308
_cell_length_b       16.8212
_cell_length_c       14.3215
_cell_angle_alpha    90
_cell_angle_beta     93.355
_cell_angle_gamma    90

_symmetry_space_group_name_H-M    "P 1"
_symmetry_int_tables_number       1

loop_
  _symmetry_equiv_pos_as_xyz
  'x, y, z'

loop_
  _atom_site_label
  _atom_site_occupancy
  _atom_site_fract_x
  _atom_site_fract_y
  _atom_site_fract_z
  _atom_site_thermal_displace_type
  _atom_site_B_iso_or_equiv
  _atom_site_type_symbol
  Cu1      1.0000 0.20978  0.24869  0.49962  Biso   1.000  Cu
  Cu2      1.0000 0.29022  0.74869  0.00038  Biso   1.000  Cu
  Cu3      1.0000 0.79022  0.75131  0.50038  Biso   1.000  Cu
  Cu4      1.0000 0.70978  0.25131  0.99962  Biso   1.000  Cu
  C1       1.0000 0.21010  0.34393  0.67420  Biso   1.000  C
  C2       1.0000 0.28990  0.84393  0.82580  Biso   1.000  C
  C3       1.0000 0.78990  0.65607  0.32580  Biso   1.000  C
  C4       1.0000 0.71010  0.15607  0.17420  Biso   1.000  C
  H1       1.0000 0.20630  0.29410  0.70210  Biso   1.000  H
  H2       1.0000 0.29370  0.79410  0.79790  Biso   1.000  H
  H3       1.0000 0.79370  0.70590  0.29790  Biso   1.000  H
  H4       1.0000 0.70630  0.20590  0.20210  Biso   1.000  H
  C5       1.0000 0.21050  0.41037  0.72990  Biso   1.000  C
  C6       1.0000 0.28950  0.91037  0.77010  Biso   1.000  C
  C7       1.0000 0.78950  0.58963  0.27010  Biso   1.000  C
  C8       1.0000 0.71050  0.08963  0.22990  Biso   1.000  C
  C9       1.0000 0.21330  0.48450  0.68940  Biso   1.000  C
  C10      1.0000 0.28670  0.98450  0.81060  Biso   1.000  C
  C11      1.0000 0.78670  0.51550  0.31060  Biso   1.000  C
  C12      1.0000 0.71330  0.01550  0.18940  Biso   1.000  C
  H5       1.0000 0.21170  0.53020  0.72590  Biso   1.000  H
  H6       1.0000 0.28830  0.03020  0.77410  Biso   1.000  H
  H7       1.0000 0.78830  0.46980  0.27410  Biso   1.000  H
  H8       1.0000 0.71170  0.96980  0.22590  Biso   1.000  H
  C13      1.0000 0.21850  0.48930  0.59410  Biso   1.000  C
  C14      1.0000 0.28150  0.98930  0.90590  Biso   1.000  C
  C15      1.0000 0.78150  0.51070  0.40590  Biso   1.000  C
  C16      1.0000 0.71850  0.01070  0.09410  Biso   1.000  C
  H9       1.0000 0.22170  0.53850  0.56470  Biso   1.000  H
  H10      1.0000 0.27830  0.03850  0.93530  Biso   1.000  H
  H11      1.0000 0.77830  0.46150  0.43530  Biso   1.000  H
  H12      1.0000 0.72170  0.96150  0.06470  Biso   1.000  H
  C17      1.0000 0.21890  0.42090  0.54270  Biso   1.000  C
  C18      1.0000 0.28110  0.92090  0.95730  Biso   1.000  C
  C19      1.0000 0.78110  0.57910  0.45730  Biso   1.000  C
  C20      1.0000 0.71890  0.07910  0.04270  Biso   1.000  C
  H13      1.0000 0.22180  0.42500  0.47810  Biso   1.000  H
  H14      1.0000 0.27820  0.92500  0.02190  Biso   1.000  H
  H15      1.0000 0.77820  0.57500  0.52190  Biso   1.000  H
  H16      1.0000 0.72180  0.07500  0.97810  Biso   1.000  H
  C21      1.0000 0.20510  0.40130  0.83020  Biso   1.000  C
  C22      1.0000 0.29490  0.90130  0.66980  Biso   1.000  C
  C23      1.0000 0.79490  0.59870  0.16980  Biso   1.000  C
  C24      1.0000 0.70510  0.09870  0.33020  Biso   1.000  C
  N1       1.0000 0.21520  0.34858  0.58071  Biso   1.000  N
  N2       1.0000 0.28480  0.84858  0.91929  Biso   1.000  N
  N3       1.0000 0.78480  0.65142  0.41929  Biso   1.000  N
  N4       1.0000 0.71520  0.15142  0.08071  Biso   1.000  N
  N5       1.0000 0.20130  0.39530  0.90860  Biso   1.000  N
  N6       1.0000 0.29870  0.89530  0.59140  Biso   1.000  N
  N7       1.0000 0.79870  0.60470  0.09140  Biso   1.000  N
  N8       1.0000 0.70130  0.10470  0.40860  Biso   1.000  N
  C25      1.0000 0.20810  0.15379  0.32580  Biso   1.000  C
  C26      1.0000 0.29190  0.65379  0.17420  Biso   1.000  C
  C27      1.0000 0.79190  0.84621  0.67420  Biso   1.000  C
  C28      1.0000 0.70810  0.34621  0.82580  Biso   1.000  C
  H17      1.0000 0.20550  0.20380  0.29810  Biso   1.000  H
  H18      1.0000 0.29450  0.70380  0.20190  Biso   1.000  H
  H19      1.0000 0.79450  0.79620  0.70190  Biso   1.000  H
  H20      1.0000 0.70550  0.29620  0.79810  Biso   1.000  H
  C29      1.0000 0.21160  0.08704  0.27010  Biso   1.000  C
  C30      1.0000 0.28840  0.58704  0.22990  Biso   1.000  C
  C31      1.0000 0.78840  0.91296  0.72990  Biso   1.000  C
  C32      1.0000 0.71160  0.41296  0.77010  Biso   1.000  C
  C33      1.0000 0.21510  0.01250  0.31020  Biso   1.000  C
  C34      1.0000 0.28490  0.51250  0.18980  Biso   1.000  C
  C35      1.0000 0.78490  0.98750  0.68980  Biso   1.000  C
  C36      1.0000 0.71510  0.48750  0.81020  Biso   1.000  C
  H21      1.0000 0.21740  0.96690  0.27370  Biso   1.000  H
  H22      1.0000 0.28260  0.46690  0.22630  Biso   1.000  H
  H23      1.0000 0.78260  0.03310  0.72630  Biso   1.000  H
  H24      1.0000 0.71740  0.53310  0.77370  Biso   1.000  H
  C37      1.0000 0.21490  0.00780  0.40560  Biso   1.000  C
  C38      1.0000 0.28510  0.50780  0.09440  Biso   1.000  C
  C39      1.0000 0.78510  0.99220  0.59440  Biso   1.000  C
  C40      1.0000 0.71490  0.49220  0.90560  Biso   1.000  C
  H25      1.0000 0.21670  0.95850  0.43500  Biso   1.000  H
  H26      1.0000 0.28330  0.45850  0.06500  Biso   1.000  H
  H27      1.0000 0.78330  0.04150  0.56500  Biso   1.000  H
  H28      1.0000 0.71670  0.54150  0.93500  Biso   1.000  H
  C41      1.0000 0.21220  0.07630  0.45760  Biso   1.000  C
  C42      1.0000 0.28780  0.57630  0.04240  Biso   1.000  C
  C43      1.0000 0.78780  0.92370  0.54240  Biso   1.000  C
  C44      1.0000 0.71220  0.42370  0.95760  Biso   1.000  C
  H29      1.0000 0.21310  0.07220  0.52240  Biso   1.000  H
  H30      1.0000 0.28690  0.57220  0.97760  Biso   1.000  H
  H31      1.0000 0.78690  0.92780  0.47760  Biso   1.000  H
  H32      1.0000 0.71310  0.42780  0.02240  Biso   1.000  H
  C45      1.0000 0.21430  0.09620  0.16940  Biso   1.000  C
  C46      1.0000 0.28570  0.59620  0.33060  Biso   1.000  C
  C47      1.0000 0.78570  0.90380  0.83060  Biso   1.000  C
  C48      1.0000 0.71430  0.40380  0.66940  Biso   1.000  C
  N9       1.0000 0.20820  0.14817  0.41905  Biso   1.000  N
  N10      1.0000 0.29180  0.64817  0.08095  Biso   1.000  N
  N11      1.0000 0.79180  0.85183  0.58095  Biso   1.000  N
  N12      1.0000 0.70820  0.35183  0.91905  Biso   1.000  N
  N13      1.0000 0.21710  0.10190  0.09070  Biso   1.000  N
  N14      1.0000 0.28290  0.60190  0.40930  Biso   1.000  N
  N15      1.0000 0.78290  0.89810  0.90930  Biso   1.000  N
  N16      1.0000 0.71710  0.39810  0.59070  Biso   1.000  N
  C49      1.0000 0.57680  0.18729  0.63640  Biso   1.000  C
  C50      1.0000 0.92320  0.68729  0.86360  Biso   1.000  C
  C51      1.0000 0.42320  0.81271  0.36360  Biso   1.000  C
  C52      1.0000 0.07680  0.31271  0.13640  Biso   1.000  C
  C53      1.0000 0.87810  0.19968  0.61160  Biso   1.000  C
  C54      1.0000 0.62190  0.69968  0.88840  Biso   1.000  C
  C55      1.0000 0.12190  0.80032  0.38840  Biso   1.000  C
  C56      1.0000 0.37810  0.30032  0.11160  Biso   1.000  C
  N17      1.0000 0.42270  0.18390  0.61580  Biso   1.000  N
  N18      1.0000 0.07730  0.68390  0.88420  Biso   1.000  N
  N19      1.0000 0.57730  0.81610  0.38420  Biso   1.000  N
  N20      1.0000 0.92270  0.31610  0.11580  Biso   1.000  N
  N21      1.0000 0.74790  0.18986  0.66771  Biso   1.000  N
  N22      1.0000 0.75210  0.68986  0.83229  Biso   1.000  N
  N23      1.0000 0.25210  0.81014  0.33229  Biso   1.000  N
  N24      1.0000 0.24790  0.31014  0.16771  Biso   1.000  N
  N25      1.0000 0.00670  0.20704  0.56994  Biso   1.000  N
  N26      1.0000 0.49330  0.70704  0.93006  Biso   1.000  N
  N27      1.0000 0.99330  0.79296  0.43006  Biso   1.000  N
  N28      1.0000 0.50670  0.29296  0.06994  Biso   1.000  N
  C57      1.0000 0.54070  0.30038  0.38800  Biso   1.000  C
  C58      1.0000 0.95930  0.80038  0.11200  Biso   1.000  C
  C59      1.0000 0.45930  0.69962  0.61200  Biso   1.000  C
  C60      1.0000 0.04070  0.19962  0.88800  Biso   1.000  C
  C61      1.0000 0.84290  0.31039  0.36540  Biso   1.000  C
  C62      1.0000 0.65710  0.81039  0.13460  Biso   1.000  C
  C63      1.0000 0.15710  0.68961  0.63460  Biso   1.000  C
  C64      1.0000 0.34290  0.18961  0.86540  Biso   1.000  C
  N29      1.0000 0.41370  0.29014  0.43003  Biso   1.000  N
  N30      1.0000 0.08630  0.79014  0.06997  Biso   1.000  N
  N31      1.0000 0.58630  0.70986  0.56997  Biso   1.000  N
  N32      1.0000 0.91370  0.20986  0.93003  Biso   1.000  N
  N33      1.0000 0.67250  0.31361  0.33338  Biso   1.000  N
  N34      1.0000 0.82750  0.81361  0.16662  Biso   1.000  N
  N35      1.0000 0.32750  0.68639  0.66662  Biso   1.000  N
  N36      1.0000 0.17250  0.18639  0.83338  Biso   1.000  N
  N37      1.0000 0.99610  0.31001  0.38600  Biso   1.000  N
  N38      1.0000 0.50390  0.81001  0.11400  Biso   1.000  N
  N39      1.0000 0.00390  0.68999  0.61400  Biso   1.000  N
  N40      1.0000 0.49610  0.18999  0.88600  Biso   1.000  N
