data_image0
_cell_length_a       14.0353
_cell_length_b       10.3081
_cell_length_c       10.267
_cell_angle_alpha    90
_cell_angle_beta     111.034
_cell_angle_gamma    90

_symmetry_space_group_name_H-M    "P 1"
_symmetry_int_tables_number       1

loop_
  _symmetry_equiv_pos_as_xyz
  'x, y, z'

loop_
  _atom_site_label
  _atom_site_occupancy
  _atom_site_fract_x
  _atom_site_fract_y
  _atom_site_fract_z
  _atom_site_thermal_displace_type
  _atom_site_B_iso_or_equiv
  _atom_site_type_symbol
  Cu1      1.0000 0.50000  0.62211  0.25000  Biso   1.000  Cu
  Cu2      1.0000 0.00000  0.12211  0.25000  Biso   1.000  Cu
  Cu3      1.0000 0.50000  0.37789  0.75000  Biso   1.000  Cu
  Cu4      1.0000 0.00000  0.87789  0.75000  Biso   1.000  Cu
  N1       1.0000 0.43016  0.49319  0.32227  Biso   1.000  N
  N2       1.0000 0.56984  0.49319  0.17773  Biso   1.000  N
  N3       1.0000 0.93016  0.99319  0.32227  Biso   1.000  N
  N4       1.0000 0.06984  0.99319  0.17773  Biso   1.000  N
  N5       1.0000 0.56984  0.50681  0.67773  Biso   1.000  N
  N6       1.0000 0.43016  0.50681  0.82227  Biso   1.000  N
  N7       1.0000 0.06984  0.00681  0.67773  Biso   1.000  N
  N8       1.0000 0.93016  0.00681  0.82227  Biso   1.000  N
  N9       1.0000 0.56960  0.77181  0.19112  Biso   1.000  N
  N10      1.0000 0.43040  0.77181  0.30888  Biso   1.000  N
  N11      1.0000 0.06960  0.27181  0.19112  Biso   1.000  N
  N12      1.0000 0.93040  0.27181  0.30888  Biso   1.000  N
  N13      1.0000 0.43040  0.22819  0.80888  Biso   1.000  N
  N14      1.0000 0.56960  0.22819  0.69112  Biso   1.000  N
  N15      1.0000 0.93040  0.72819  0.80888  Biso   1.000  N
  N16      1.0000 0.06960  0.72819  0.69112  Biso   1.000  N
  C1       1.0000 0.39033  0.43783  0.38718  Biso   1.000  C
  C2       1.0000 0.60967  0.43783  0.11282  Biso   1.000  C
  C3       1.0000 0.89033  0.93783  0.38718  Biso   1.000  C
  C4       1.0000 0.10967  0.93783  0.11282  Biso   1.000  C
  C5       1.0000 0.60967  0.56217  0.61282  Biso   1.000  C
  C6       1.0000 0.39033  0.56217  0.88718  Biso   1.000  C
  C7       1.0000 0.10967  0.06217  0.61282  Biso   1.000  C
  C8       1.0000 0.89033  0.06217  0.88718  Biso   1.000  C
  C9       1.0000 0.53802  0.88917  0.21873  Biso   1.000  C
  C10      1.0000 0.46198  0.88917  0.28127  Biso   1.000  C
  C11      1.0000 0.03802  0.38917  0.21873  Biso   1.000  C
  C12      1.0000 0.96198  0.38917  0.28127  Biso   1.000  C
  C13      1.0000 0.46198  0.11083  0.78127  Biso   1.000  C
  C14      1.0000 0.53802  0.11083  0.71873  Biso   1.000  C
  C15      1.0000 0.96198  0.61083  0.78127  Biso   1.000  C
  C16      1.0000 0.03802  0.61083  0.71873  Biso   1.000  C
  C17      1.0000 0.64028  0.76840  0.13220  Biso   1.000  C
  C18      1.0000 0.35972  0.76840  0.36780  Biso   1.000  C
  C19      1.0000 0.14028  0.26840  0.13220  Biso   1.000  C
  C20      1.0000 0.85972  0.26840  0.36780  Biso   1.000  C
  C21      1.0000 0.35972  0.23160  0.86780  Biso   1.000  C
  C22      1.0000 0.64028  0.23160  0.63220  Biso   1.000  C
  C23      1.0000 0.85972  0.73160  0.86780  Biso   1.000  C
  C24      1.0000 0.14028  0.73160  0.63220  Biso   1.000  C
  H1       1.0000 0.66320  0.68840  0.11360  Biso   1.000  H
  H2       1.0000 0.33680  0.68840  0.38640  Biso   1.000  H
  H3       1.0000 0.16320  0.18840  0.11360  Biso   1.000  H
  H4       1.0000 0.83680  0.18840  0.38640  Biso   1.000  H
  H5       1.0000 0.33680  0.31160  0.88640  Biso   1.000  H
  H6       1.0000 0.66320  0.31160  0.61360  Biso   1.000  H
  H7       1.0000 0.83680  0.81160  0.88640  Biso   1.000  H
  H8       1.0000 0.16320  0.81160  0.61360  Biso   1.000  H
  C25      1.0000 0.57499  0.00640  0.18770  Biso   1.000  C
  C26      1.0000 0.42501  0.00640  0.31230  Biso   1.000  C
  C27      1.0000 0.07499  0.50640  0.18770  Biso   1.000  C
  C28      1.0000 0.92501  0.50640  0.31230  Biso   1.000  C
  C29      1.0000 0.42501  0.99360  0.81230  Biso   1.000  C
  C30      1.0000 0.57499  0.99360  0.68770  Biso   1.000  C
  C31      1.0000 0.92501  0.49360  0.81230  Biso   1.000  C
  C32      1.0000 0.07499  0.49360  0.68770  Biso   1.000  C
  C33      1.0000 0.64909  0.99940  0.12520  Biso   1.000  C
  C34      1.0000 0.35091  0.99940  0.37480  Biso   1.000  C
  C35      1.0000 0.14909  0.49940  0.12520  Biso   1.000  C
  C36      1.0000 0.85091  0.49940  0.37480  Biso   1.000  C
  C37      1.0000 0.35091  0.00060  0.87480  Biso   1.000  C
  C38      1.0000 0.64909  0.00060  0.62520  Biso   1.000  C
  C39      1.0000 0.85091  0.50060  0.87480  Biso   1.000  C
  C40      1.0000 0.14909  0.50060  0.62520  Biso   1.000  C
  H9       1.0000 0.67610  0.07490  0.10270  Biso   1.000  H
  H10      1.0000 0.32390  0.07490  0.39730  Biso   1.000  H
  H11      1.0000 0.17610  0.57490  0.10270  Biso   1.000  H
  H12      1.0000 0.82390  0.57490  0.39730  Biso   1.000  H
  H13      1.0000 0.32390  0.92510  0.89730  Biso   1.000  H
  H14      1.0000 0.67610  0.92510  0.60270  Biso   1.000  H
  H15      1.0000 0.82390  0.42510  0.89730  Biso   1.000  H
  H16      1.0000 0.17610  0.42510  0.60270  Biso   1.000  H
  C41      1.0000 0.68083  0.88140  0.09790  Biso   1.000  C
  C42      1.0000 0.31917  0.88140  0.40210  Biso   1.000  C
  C43      1.0000 0.18083  0.38140  0.09790  Biso   1.000  C
  C44      1.0000 0.81917  0.38140  0.40210  Biso   1.000  C
  C45      1.0000 0.31917  0.11860  0.90210  Biso   1.000  C
  C46      1.0000 0.68083  0.11860  0.59790  Biso   1.000  C
  C47      1.0000 0.81917  0.61860  0.90210  Biso   1.000  C
  C48      1.0000 0.18083  0.61860  0.59790  Biso   1.000  C
  H17      1.0000 0.72960  0.87590  0.05620  Biso   1.000  H
  H18      1.0000 0.27040  0.87590  0.44380  Biso   1.000  H
  H19      1.0000 0.22960  0.37590  0.05620  Biso   1.000  H
  H20      1.0000 0.77040  0.37590  0.44380  Biso   1.000  H
  H21      1.0000 0.27040  0.12410  0.94380  Biso   1.000  H
  H22      1.0000 0.72960  0.12410  0.55620  Biso   1.000  H
  H23      1.0000 0.77040  0.62410  0.94380  Biso   1.000  H
  H24      1.0000 0.22960  0.62410  0.55620  Biso   1.000  H
  S1       1.0000 0.33300  0.36018  0.47588  Biso   1.000  S
  S2       1.0000 0.66700  0.36018  0.02412  Biso   1.000  S
  S3       1.0000 0.83300  0.86018  0.47588  Biso   1.000  S
  S4       1.0000 0.16700  0.86018  0.02412  Biso   1.000  S
  S5       1.0000 0.66700  0.63982  0.52412  Biso   1.000  S
  S6       1.0000 0.33300  0.63982  0.97588  Biso   1.000  S
  S7       1.0000 0.16700  0.13982  0.52412  Biso   1.000  S
  S8       1.0000 0.83300  0.13982  0.97588  Biso   1.000  S
  C49      1.0000 0.53580  0.12518  0.22020  Biso   1.000  C
  C50      1.0000 0.46420  0.12518  0.27980  Biso   1.000  C
  C51      1.0000 0.03580  0.62518  0.22020  Biso   1.000  C
  C52      1.0000 0.96420  0.62518  0.27980  Biso   1.000  C
  C53      1.0000 0.46420  0.87482  0.77980  Biso   1.000  C
  C54      1.0000 0.53580  0.87482  0.72020  Biso   1.000  C
  C55      1.0000 0.96420  0.37482  0.77980  Biso   1.000  C
  C56      1.0000 0.03580  0.37482  0.72020  Biso   1.000  C
  H25      1.0000 0.55990  0.20380  0.19990  Biso   1.000  H
  H26      1.0000 0.44010  0.20380  0.30010  Biso   1.000  H
  H27      1.0000 0.05990  0.70380  0.19990  Biso   1.000  H
  H28      1.0000 0.94010  0.70380  0.30010  Biso   1.000  H
  H29      1.0000 0.44010  0.79620  0.80010  Biso   1.000  H
  H30      1.0000 0.55990  0.79620  0.69990  Biso   1.000  H
  H31      1.0000 0.94010  0.29620  0.80010  Biso   1.000  H
  H32      1.0000 0.05990  0.29620  0.69990  Biso   1.000  H
