data_image0
_cell_length_a       7.385
_cell_length_b       10.0669
_cell_length_c       28.6676
_cell_angle_alpha    90
_cell_angle_beta     90
_cell_angle_gamma    90

_symmetry_space_group_name_H-M    "P 1"
_symmetry_int_tables_number       1

loop_
  _symmetry_equiv_pos_as_xyz
  'x, y, z'

loop_
  _atom_site_label
  _atom_site_occupancy
  _atom_site_fract_x
  _atom_site_fract_y
  _atom_site_fract_z
  _atom_site_thermal_displace_type
  _atom_site_B_iso_or_equiv
  _atom_site_type_symbol
  Cu1      1.0000 0.45861  0.10085  0.34166  Biso   1.000  Cu
  Cu2      1.0000 0.04139  0.89915  0.84166  Biso   1.000  Cu
  Cu3      1.0000 0.54139  0.60085  0.15834  Biso   1.000  Cu
  Cu4      1.0000 0.95861  0.39915  0.65834  Biso   1.000  Cu
  Cu5      1.0000 0.45235  0.14638  0.44328  Biso   1.000  Cu
  Cu6      1.0000 0.04765  0.85362  0.94328  Biso   1.000  Cu
  Cu7      1.0000 0.54765  0.64638  0.05672  Biso   1.000  Cu
  Cu8      1.0000 0.95235  0.35362  0.55672  Biso   1.000  Cu
  O1       1.0000 0.35270  0.22550  0.38735  Biso   1.000  O
  O2       1.0000 0.14730  0.77450  0.88735  Biso   1.000  O
  O3       1.0000 0.64730  0.72550  0.11265  Biso   1.000  O
  O4       1.0000 0.85270  0.27450  0.61265  Biso   1.000  O
  C1       1.0000 0.34130  0.35750  0.37511  Biso   1.000  C
  C2       1.0000 0.15870  0.64250  0.87511  Biso   1.000  C
  C3       1.0000 0.65870  0.85750  0.12489  Biso   1.000  C
  C4       1.0000 0.84130  0.14250  0.62489  Biso   1.000  C
  C5       1.0000 0.40160  0.45730  0.40368  Biso   1.000  C
  C6       1.0000 0.09840  0.54270  0.90368  Biso   1.000  C
  C7       1.0000 0.59840  0.95730  0.09632  Biso   1.000  C
  C8       1.0000 0.90160  0.04270  0.59632  Biso   1.000  C
  H1       1.0000 0.44870  0.43700  0.43290  Biso   1.000  H
  H2       1.0000 0.05130  0.56300  0.93290  Biso   1.000  H
  H3       1.0000 0.55130  0.93700  0.06710  Biso   1.000  H
  H4       1.0000 0.94870  0.06300  0.56710  Biso   1.000  H
  C9       1.0000 0.39230  0.58740  0.38910  Biso   1.000  C
  C10      1.0000 0.10770  0.41260  0.88910  Biso   1.000  C
  C11      1.0000 0.60770  0.08740  0.11090  Biso   1.000  C
  C12      1.0000 0.89230  0.91260  0.61090  Biso   1.000  C
  H5       1.0000 0.43300  0.65440  0.40880  Biso   1.000  H
  H6       1.0000 0.06700  0.34560  0.90880  Biso   1.000  H
  H7       1.0000 0.56700  0.15440  0.09120  Biso   1.000  H
  H8       1.0000 0.93300  0.84560  0.59120  Biso   1.000  H
  C13      1.0000 0.32520  0.62010  0.34660  Biso   1.000  C
  C14      1.0000 0.17480  0.37990  0.84660  Biso   1.000  C
  C15      1.0000 0.67480  0.12010  0.15340  Biso   1.000  C
  C16      1.0000 0.82520  0.87990  0.65340  Biso   1.000  C
  H9       1.0000 0.32130  0.70840  0.33700  Biso   1.000  H
  H10      1.0000 0.17870  0.29160  0.83700  Biso   1.000  H
  H11      1.0000 0.67870  0.20840  0.16300  Biso   1.000  H
  H12      1.0000 0.82130  0.79160  0.66300  Biso   1.000  H
  C17      1.0000 0.26260  0.52040  0.31755  Biso   1.000  C
  C18      1.0000 0.23740  0.47960  0.81755  Biso   1.000  C
  C19      1.0000 0.73740  0.02040  0.18245  Biso   1.000  C
  C20      1.0000 0.76260  0.97960  0.68245  Biso   1.000  C
  H13      1.0000 0.21670  0.54230  0.28830  Biso   1.000  H
  H14      1.0000 0.28330  0.45770  0.78830  Biso   1.000  H
  H15      1.0000 0.78330  0.04230  0.21170  Biso   1.000  H
  H16      1.0000 0.71670  0.95770  0.71170  Biso   1.000  H
  C21      1.0000 0.26720  0.38800  0.33137  Biso   1.000  C
  C22      1.0000 0.23280  0.61200  0.83137  Biso   1.000  C
  C23      1.0000 0.73280  0.88800  0.16863  Biso   1.000  C
  C24      1.0000 0.76720  0.11200  0.66863  Biso   1.000  C
  C25      1.0000 0.18930  0.28150  0.30146  Biso   1.000  C
  C26      1.0000 0.31070  0.71850  0.80146  Biso   1.000  C
  C27      1.0000 0.81070  0.78150  0.19854  Biso   1.000  C
  C28      1.0000 0.68930  0.21850  0.69854  Biso   1.000  C
  H17      1.0000 0.13850  0.32100  0.27350  Biso   1.000  H
  H18      1.0000 0.36150  0.67900  0.77350  Biso   1.000  H
  H19      1.0000 0.86150  0.82100  0.22650  Biso   1.000  H
  H20      1.0000 0.63850  0.17900  0.72650  Biso   1.000  H
  H21      1.0000 0.09190  0.23760  0.31820  Biso   1.000  H
  H22      1.0000 0.40810  0.76240  0.81820  Biso   1.000  H
  H23      1.0000 0.90810  0.73760  0.18180  Biso   1.000  H
  H24      1.0000 0.59190  0.26240  0.68180  Biso   1.000  H
  C29      1.0000 0.25810  0.06870  0.25985  Biso   1.000  C
  C30      1.0000 0.24190  0.93130  0.75985  Biso   1.000  C
  C31      1.0000 0.74190  0.56870  0.24015  Biso   1.000  C
  C32      1.0000 0.75810  0.43130  0.74015  Biso   1.000  C
  H25      1.0000 0.14000  0.04550  0.27310  Biso   1.000  H
  H26      1.0000 0.36000  0.95450  0.77310  Biso   1.000  H
  H27      1.0000 0.86000  0.54550  0.22690  Biso   1.000  H
  H28      1.0000 0.64000  0.45450  0.72690  Biso   1.000  H
  N1       1.0000 0.32880  0.18070  0.28793  Biso   1.000  N
  N2       1.0000 0.17120  0.81930  0.78793  Biso   1.000  N
  N3       1.0000 0.67120  0.68070  0.21207  Biso   1.000  N
  N4       1.0000 0.82880  0.31930  0.71207  Biso   1.000  N
  H29      1.0000 0.39700  0.21700  0.27350  Biso   1.000  H
  H30      1.0000 0.10300  0.78300  0.77350  Biso   1.000  H
  H31      1.0000 0.60300  0.71700  0.22650  Biso   1.000  H
  H32      1.0000 0.89700  0.28300  0.72650  Biso   1.000  H
  C33      1.0000 0.37900  0.94800  0.26633  Biso   1.000  C
  C34      1.0000 0.12100  0.05200  0.76633  Biso   1.000  C
  C35      1.0000 0.62100  0.44800  0.23367  Biso   1.000  C
  C36      1.0000 0.87900  0.55200  0.73367  Biso   1.000  C
  O5       1.0000 0.49040  0.95180  0.30023  Biso   1.000  O
  O6       1.0000 0.00960  0.04820  0.80023  Biso   1.000  O
  O7       1.0000 0.50960  0.45180  0.19977  Biso   1.000  O
  O8       1.0000 0.99040  0.54820  0.69977  Biso   1.000  O
  O9       1.0000 0.36180  0.85240  0.24018  Biso   1.000  O
  O10      1.0000 0.13820  0.14760  0.74018  Biso   1.000  O
  O11      1.0000 0.63820  0.35240  0.25982  Biso   1.000  O
  O12      1.0000 0.86180  0.64760  0.75982  Biso   1.000  O
  C37      1.0000 0.22440  0.10690  0.20862  Biso   1.000  C
  C38      1.0000 0.27560  0.89310  0.70862  Biso   1.000  C
  C39      1.0000 0.77560  0.60690  0.29138  Biso   1.000  C
  C40      1.0000 0.72440  0.39310  0.79138  Biso   1.000  C
  H33      1.0000 0.14790  0.18380  0.20730  Biso   1.000  H
  H34      1.0000 0.35210  0.81620  0.70730  Biso   1.000  H
  H35      1.0000 0.85210  0.68380  0.29270  Biso   1.000  H
  H36      1.0000 0.64790  0.31620  0.79270  Biso   1.000  H
  H37      1.0000 0.16650  0.03430  0.19280  Biso   1.000  H
  H38      1.0000 0.33350  0.96570  0.69280  Biso   1.000  H
  H39      1.0000 0.83350  0.53430  0.30720  Biso   1.000  H
  H40      1.0000 0.66650  0.46570  0.80720  Biso   1.000  H
  H41      1.0000 0.33790  0.12620  0.19380  Biso   1.000  H
  H42      1.0000 0.16210  0.87380  0.69380  Biso   1.000  H
  H43      1.0000 0.66210  0.62620  0.30620  Biso   1.000  H
  H44      1.0000 0.83790  0.37380  0.80620  Biso   1.000  H
  O13      1.0000 0.71880  0.22370  0.33794  Biso   1.000  O
  O14      1.0000 0.78120  0.77630  0.83794  Biso   1.000  O
  O15      1.0000 0.28120  0.72370  0.16206  Biso   1.000  O
  O16      1.0000 0.21880  0.27630  0.66206  Biso   1.000  O
  H45      1.0000 0.73600  0.24400  0.36230  Biso   1.000  H
  H46      1.0000 0.76400  0.75600  0.86230  Biso   1.000  H
  H47      1.0000 0.26400  0.74400  0.13770  Biso   1.000  H
  H48      1.0000 0.23600  0.25600  0.63770  Biso   1.000  H
  H49      1.0000 0.71900  0.28900  0.32650  Biso   1.000  H
  H50      1.0000 0.78100  0.71100  0.82650  Biso   1.000  H
  H51      1.0000 0.28100  0.78900  0.17350  Biso   1.000  H
  H52      1.0000 0.21900  0.21100  0.67350  Biso   1.000  H
  O17      1.0000 0.54080  0.01080  0.39892  Biso   1.000  O
  O18      1.0000 0.95920  0.98920  0.89892  Biso   1.000  O
  O19      1.0000 0.45920  0.51080  0.10108  Biso   1.000  O
  O20      1.0000 0.04080  0.48920  0.60108  Biso   1.000  O
  C41      1.0000 0.70980  0.96240  0.40693  Biso   1.000  C
  C42      1.0000 0.79020  0.03760  0.90693  Biso   1.000  C
  C43      1.0000 0.29020  0.46240  0.09307  Biso   1.000  C
  C44      1.0000 0.20980  0.53760  0.59307  Biso   1.000  C
  C45      1.0000 0.83800  0.95200  0.37158  Biso   1.000  C
  C46      1.0000 0.66200  0.04800  0.87158  Biso   1.000  C
  C47      1.0000 0.16200  0.45200  0.12842  Biso   1.000  C
  C48      1.0000 0.33800  0.54800  0.62842  Biso   1.000  C
  H53      1.0000 0.80630  0.97210  0.34100  Biso   1.000  H
  H54      1.0000 0.69370  0.02790  0.84100  Biso   1.000  H
  H55      1.0000 0.19370  0.47210  0.15900  Biso   1.000  H
  H56      1.0000 0.30630  0.52790  0.65900  Biso   1.000  H
  C49      1.0000 0.01100  0.91210  0.38178  Biso   1.000  C
  C50      1.0000 0.48900  0.08790  0.88178  Biso   1.000  C
  C51      1.0000 0.98900  0.41210  0.11822  Biso   1.000  C
  C52      1.0000 0.51100  0.58790  0.61822  Biso   1.000  C
  H57      1.0000 0.09560  0.90650  0.35790  Biso   1.000  H
  H58      1.0000 0.40440  0.09350  0.85790  Biso   1.000  H
  H59      1.0000 0.90440  0.40650  0.14210  Biso   1.000  H
  H60      1.0000 0.59560  0.59350  0.64210  Biso   1.000  H
  C53      1.0000 0.06320  0.87980  0.42707  Biso   1.000  C
  C54      1.0000 0.43680  0.12020  0.92707  Biso   1.000  C
  C55      1.0000 0.93680  0.37980  0.07293  Biso   1.000  C
  C56      1.0000 0.56320  0.62020  0.57293  Biso   1.000  C
  H61      1.0000 0.18200  0.85610  0.43390  Biso   1.000  H
  H62      1.0000 0.31800  0.14390  0.93390  Biso   1.000  H
  H63      1.0000 0.81800  0.35610  0.06610  Biso   1.000  H
  H64      1.0000 0.68200  0.64390  0.56610  Biso   1.000  H
  C57      1.0000 0.93160  0.88430  0.46171  Biso   1.000  C
  C58      1.0000 0.56840  0.11570  0.96171  Biso   1.000  C
  C59      1.0000 0.06840  0.38430  0.03829  Biso   1.000  C
  C60      1.0000 0.43160  0.61570  0.53829  Biso   1.000  C
  H65      1.0000 0.96360  0.86220  0.49210  Biso   1.000  H
  H66      1.0000 0.53640  0.13780  0.99210  Biso   1.000  H
  H67      1.0000 0.03640  0.36220  0.00790  Biso   1.000  H
  H68      1.0000 0.46360  0.63780  0.50790  Biso   1.000  H
  C61      1.0000 0.75390  0.92090  0.45234  Biso   1.000  C
  C62      1.0000 0.74610  0.07910  0.95234  Biso   1.000  C
  C63      1.0000 0.24610  0.42090  0.04766  Biso   1.000  C
  C64      1.0000 0.25390  0.57910  0.54766  Biso   1.000  C
  C65      1.0000 0.61200  0.91530  0.48876  Biso   1.000  C
  C66      1.0000 0.88800  0.08470  0.98876  Biso   1.000  C
  C67      1.0000 0.38800  0.41530  0.01124  Biso   1.000  C
  C68      1.0000 0.11200  0.58470  0.51124  Biso   1.000  C
  H69      1.0000 0.66300  0.87750  0.51700  Biso   1.000  H
  H70      1.0000 0.83700  0.12250  0.01700  Biso   1.000  H
  H71      1.0000 0.33700  0.37750  0.98300  Biso   1.000  H
  H72      1.0000 0.16300  0.62250  0.48300  Biso   1.000  H
  H73      1.0000 0.51520  0.85740  0.47840  Biso   1.000  H
  H74      1.0000 0.98480  0.14260  0.97840  Biso   1.000  H
  H75      1.0000 0.48480  0.35740  0.02160  Biso   1.000  H
  H76      1.0000 0.01520  0.64260  0.52160  Biso   1.000  H
  N5       1.0000 0.53590  0.04910  0.49950  Biso   1.000  N
  N6       1.0000 0.96410  0.95090  0.99950  Biso   1.000  N
  N7       1.0000 0.46410  0.54910  0.00050  Biso   1.000  N
  N8       1.0000 0.03590  0.45090  0.50050  Biso   1.000  N
  H77      1.0000 0.62300  0.10800  0.51020  Biso   1.000  H
  H78      1.0000 0.87700  0.89200  0.01020  Biso   1.000  H
  H79      1.0000 0.37700  0.60800  0.98980  Biso   1.000  H
  H80      1.0000 0.12300  0.39200  0.48980  Biso   1.000  H
  C69      1.0000 0.38160  0.04980  0.53258  Biso   1.000  C
  C70      1.0000 0.11840  0.95020  0.03258  Biso   1.000  C
  C71      1.0000 0.61840  0.54980  0.96742  Biso   1.000  C
  C72      1.0000 0.88160  0.45020  0.46742  Biso   1.000  C
  H81      1.0000 0.29360  0.98530  0.52070  Biso   1.000  H
  H82      1.0000 0.20640  0.01470  0.02070  Biso   1.000  H
  H83      1.0000 0.70640  0.48530  0.97930  Biso   1.000  H
  H84      1.0000 0.79360  0.51470  0.47930  Biso   1.000  H
  C73      1.0000 0.29230  0.18600  0.52857  Biso   1.000  C
  C74      1.0000 0.20770  0.81400  0.02857  Biso   1.000  C
  C75      1.0000 0.70770  0.68600  0.97143  Biso   1.000  C
  C76      1.0000 0.79230  0.31400  0.47143  Biso   1.000  C
  O21      1.0000 0.30360  0.24260  0.48861  Biso   1.000  O
  O22      1.0000 0.19640  0.75740  0.98861  Biso   1.000  O
  O23      1.0000 0.69640  0.74260  0.01139  Biso   1.000  O
  O24      1.0000 0.80360  0.25740  0.51139  Biso   1.000  O
  O25      1.0000 0.20850  0.23220  0.56220  Biso   1.000  O
  O26      1.0000 0.29150  0.76780  0.06220  Biso   1.000  O
  O27      1.0000 0.79150  0.73220  0.93780  Biso   1.000  O
  O28      1.0000 0.70850  0.26780  0.43780  Biso   1.000  O
  C77      1.0000 0.42320  0.00900  0.58237  Biso   1.000  C
  C78      1.0000 0.07680  0.99100  0.08237  Biso   1.000  C
  C79      1.0000 0.57680  0.50900  0.91763  Biso   1.000  C
  C80      1.0000 0.92320  0.49100  0.41763  Biso   1.000  C
  H85      1.0000 0.47910  0.92290  0.58240  Biso   1.000  H
  H86      1.0000 0.02090  0.07710  0.08240  Biso   1.000  H
  H87      1.0000 0.52090  0.42290  0.91760  Biso   1.000  H
  H88      1.0000 0.97910  0.57710  0.41760  Biso   1.000  H
  H89      1.0000 0.31280  0.00570  0.60000  Biso   1.000  H
  H90      1.0000 0.18720  0.99430  0.10000  Biso   1.000  H
  H91      1.0000 0.68720  0.50570  0.90000  Biso   1.000  H
  H92      1.0000 0.81280  0.49430  0.40000  Biso   1.000  H
  H93      1.0000 0.50400  0.07250  0.59620  Biso   1.000  H
  H94      1.0000 0.99600  0.92750  0.09620  Biso   1.000  H
  H95      1.0000 0.49600  0.57250  0.90380  Biso   1.000  H
  H96      1.0000 0.00400  0.42750  0.40380  Biso   1.000  H
