data_image0
_cell_length_a       7.912
_cell_length_b       9.746
_cell_length_c       10.522
_cell_angle_alpha    98.818
_cell_angle_beta     102.893
_cell_angle_gamma    106.245

_symmetry_space_group_name_H-M    "P 1"
_symmetry_int_tables_number       1

loop_
  _symmetry_equiv_pos_as_xyz
  'x, y, z'

loop_
  _atom_site_label
  _atom_site_occupancy
  _atom_site_fract_x
  _atom_site_fract_y
  _atom_site_fract_z
  _atom_site_thermal_displace_type
  _atom_site_B_iso_or_equiv
  _atom_site_type_symbol
  Cu1      1.0000 0.47372  0.75924  0.05376  Biso   1.000  Cu
  Cu2      1.0000 0.52628  0.24076  0.94624  Biso   1.000  Cu
  V1       1.0000 0.76944  0.98999  0.93470  Biso   1.000  V
  V2       1.0000 0.23056  0.01001  0.06530  Biso   1.000  V
  V3       1.0000 0.77365  0.90963  0.61862  Biso   1.000  V
  V4       1.0000 0.22635  0.09037  0.38138  Biso   1.000  V
  V5       1.0000 0.75924  0.05118  0.33686  Biso   1.000  V
  V6       1.0000 0.24076  0.94882  0.66314  Biso   1.000  V
  N1       1.0000 0.33390  0.64150  0.15820  Biso   1.000  N
  N2       1.0000 0.66610  0.35850  0.84180  Biso   1.000  N
  N3       1.0000 0.34600  0.57510  0.91210  Biso   1.000  N
  N4       1.0000 0.65400  0.42490  0.08790  Biso   1.000  N
  C1       1.0000 0.34170  0.68590  0.28720  Biso   1.000  C
  C2       1.0000 0.65830  0.31410  0.71280  Biso   1.000  C
  H1       1.0000 0.41370  0.78120  0.33320  Biso   1.000  H
  H2       1.0000 0.58630  0.21880  0.66680  Biso   1.000  H
  C3       1.0000 0.24550  0.59400  0.35400  Biso   1.000  C
  C4       1.0000 0.75450  0.40600  0.64600  Biso   1.000  C
  H3       1.0000 0.25340  0.62700  0.44360  Biso   1.000  H
  H4       1.0000 0.74660  0.37300  0.55640  Biso   1.000  H
  C5       1.0000 0.13750  0.45240  0.28490  Biso   1.000  C
  C6       1.0000 0.86250  0.54760  0.71510  Biso   1.000  C
  H5       1.0000 0.07170  0.38890  0.32760  Biso   1.000  H
  H6       1.0000 0.92830  0.61110  0.67240  Biso   1.000  H
  C7       1.0000 0.12850  0.40600  0.15120  Biso   1.000  C
  C8       1.0000 0.87150  0.59400  0.84880  Biso   1.000  C
  H7       1.0000 0.05590  0.31150  0.10310  Biso   1.000  H
  H8       1.0000 0.94410  0.68850  0.89690  Biso   1.000  H
  C9       1.0000 0.22930  0.50250  0.09070  Biso   1.000  C
  C10      1.0000 0.77070  0.49750  0.90930  Biso   1.000  C
  C11      1.0000 0.23390  0.46620  0.94880  Biso   1.000  C
  C12      1.0000 0.76610  0.53380  0.05120  Biso   1.000  C
  C13      1.0000 0.13100  0.33260  0.85930  Biso   1.000  C
  C14      1.0000 0.86900  0.66740  0.14070  Biso   1.000  C
  H9       1.0000 0.05430  0.25810  0.88580  Biso   1.000  H
  H10      1.0000 0.94570  0.74190  0.11420  Biso   1.000  H
  C15      1.0000 0.14580  0.31330  0.72890  Biso   1.000  C
  C16      1.0000 0.85420  0.68670  0.27110  Biso   1.000  C
  H11      1.0000 0.07750  0.22550  0.66660  Biso   1.000  H
  H12      1.0000 0.92250  0.77450  0.33340  Biso   1.000  H
  C17      1.0000 0.26290  0.42550  0.69240  Biso   1.000  C
  C18      1.0000 0.73710  0.57450  0.30760  Biso   1.000  C
  H13      1.0000 0.27480  0.41350  0.60580  Biso   1.000  H
  H14      1.0000 0.72520  0.58650  0.39420  Biso   1.000  H
  C19      1.0000 0.36190  0.55550  0.78670  Biso   1.000  C
  C20      1.0000 0.63810  0.44450  0.21330  Biso   1.000  C
  H15      1.0000 0.44100  0.63080  0.76270  Biso   1.000  H
  H16      1.0000 0.55900  0.36920  0.23730  Biso   1.000  H
  O1       1.0000 0.63370  0.83270  0.94902  Biso   1.000  O
  O2       1.0000 0.36630  0.16730  0.05098  Biso   1.000  O
  O3       1.0000 0.26860  0.87050  0.98580  Biso   1.000  O
  O4       1.0000 0.73140  0.12950  0.01420  Biso   1.000  O
  O5       1.0000 0.74210  0.00400  0.76271  Biso   1.000  O
  O6       1.0000 0.25790  0.99600  0.23729  Biso   1.000  O
  O7       1.0000 0.00000  0.00000  0.00000  Biso   1.000  O
  O8       1.0000 0.64020  0.74360  0.57610  Biso   1.000  O
  O9       1.0000 0.35980  0.25640  0.42390  Biso   1.000  O
  O10      1.0000 0.00060  0.09090  0.34700  Biso   1.000  O
  O11      1.0000 0.99940  0.90910  0.65300  Biso   1.000  O
  O12      1.0000 0.72940  0.00130  0.49100  Biso   1.000  O
  O13      1.0000 0.27060  0.99870  0.50900  Biso   1.000  O
  O14      1.0000 0.70540  0.19620  0.32890  Biso   1.000  O
  O15      1.0000 0.29460  0.80380  0.67110  Biso   1.000  O
  O16      1.0000 0.62720  0.91360  0.20822  Biso   1.000  O
  O17      1.0000 0.37280  0.08640  0.79178  Biso   1.000  O
