data_image0
_cell_length_a       7.9491
_cell_length_b       9.8631
_cell_length_c       10.5208
_cell_angle_alpha    98.607
_cell_angle_beta     102.905
_cell_angle_gamma    106.866

_symmetry_space_group_name_H-M    "P 1"
_symmetry_int_tables_number       1

loop_
  _symmetry_equiv_pos_as_xyz
  'x, y, z'

loop_
  _atom_site_label
  _atom_site_occupancy
  _atom_site_fract_x
  _atom_site_fract_y
  _atom_site_fract_z
  _atom_site_thermal_displace_type
  _atom_site_B_iso_or_equiv
  _atom_site_type_symbol
  Cu1      1.0000 0.47348  0.76363  0.55597  Biso   1.000  Cu
  Cu2      1.0000 0.52652  0.23637  0.44403  Biso   1.000  Cu
  V1       1.0000 0.22802  0.00857  0.56505  Biso   1.000  V
  V2       1.0000 0.77198  0.99143  0.43495  Biso   1.000  V
  V3       1.0000 0.76024  0.05019  0.83866  Biso   1.000  V
  V4       1.0000 0.23976  0.94981  0.16134  Biso   1.000  V
  V5       1.0000 0.22250  0.08899  0.88091  Biso   1.000  V
  V6       1.0000 0.77750  0.91101  0.11909  Biso   1.000  V
  N1       1.0000 0.34870  0.58110  0.41410  Biso   1.000  N
  N2       1.0000 0.65130  0.41890  0.58590  Biso   1.000  N
  O1       1.0000 0.26210  0.86830  0.48890  Biso   1.000  O
  O2       1.0000 0.73790  0.13170  0.51110  Biso   1.000  O
  O3       1.0000 0.25630  0.00000  0.73750  Biso   1.000  O
  O4       1.0000 0.74370  0.00000  0.26250  Biso   1.000  O
  O5       1.0000 0.63410  0.83970  0.45270  Biso   1.000  O
  O6       1.0000 0.36590  0.16030  0.54730  Biso   1.000  O
  N3       1.0000 0.33440  0.64410  0.65940  Biso   1.000  N
  N4       1.0000 0.66560  0.35590  0.34060  Biso   1.000  N
  O7       1.0000 0.62400  0.91710  0.71080  Biso   1.000  O
  O8       1.0000 0.37600  0.08290  0.28920  Biso   1.000  O
  C1       1.0000 0.23850  0.47130  0.45120  Biso   1.000  C
  C2       1.0000 0.76150  0.52870  0.54880  Biso   1.000  C
  C3       1.0000 0.33760  0.68580  0.78670  Biso   1.000  C
  C4       1.0000 0.66240  0.31420  0.21330  Biso   1.000  C
  H1       1.0000 0.40740  0.78090  0.83300  Biso   1.000  H
  H2       1.0000 0.59260  0.21910  0.16700  Biso   1.000  H
  C5       1.0000 0.13230  0.40970  0.65190  Biso   1.000  C
  C6       1.0000 0.86770  0.59030  0.34810  Biso   1.000  C
  H3       1.0000 0.06160  0.31520  0.60430  Biso   1.000  H
  H4       1.0000 0.93840  0.68480  0.39570  Biso   1.000  H
  C7       1.0000 0.23220  0.50570  0.59060  Biso   1.000  C
  C8       1.0000 0.76780  0.49430  0.40940  Biso   1.000  C
  C9       1.0000 0.13810  0.45460  0.78350  Biso   1.000  C
  C10      1.0000 0.86190  0.54540  0.21650  Biso   1.000  C
  H5       1.0000 0.07190  0.39080  0.82570  Biso   1.000  H
  H6       1.0000 0.92810  0.60920  0.17430  Biso   1.000  H
  C11      1.0000 0.36470  0.56190  0.28900  Biso   1.000  C
  C12      1.0000 0.63530  0.43810  0.71100  Biso   1.000  C
  H7       1.0000 0.44190  0.63790  0.26470  Biso   1.000  H
  H8       1.0000 0.55810  0.36210  0.73530  Biso   1.000  H
  C13      1.0000 0.24280  0.59480  0.85210  Biso   1.000  C
  C14      1.0000 0.75720  0.40520  0.14790  Biso   1.000  C
  H9       1.0000 0.24890  0.62720  0.94130  Biso   1.000  H
  H10      1.0000 0.75110  0.37280  0.05870  Biso   1.000  H
  C15      1.0000 0.27010  0.43280  0.19580  Biso   1.000  C
  C16      1.0000 0.72990  0.56720  0.80420  Biso   1.000  C
  H11      1.0000 0.28220  0.42190  0.10930  Biso   1.000  H
  H12      1.0000 0.71780  0.57810  0.89070  Biso   1.000  H
  C17      1.0000 0.15760  0.32040  0.23210  Biso   1.000  C
  C18      1.0000 0.84240  0.67960  0.76790  Biso   1.000  C
  H13      1.0000 0.09260  0.23240  0.17010  Biso   1.000  H
  H14      1.0000 0.90740  0.76760  0.82990  Biso   1.000  H
  O9       1.0000 0.00000  0.00000  0.50000  Biso   1.000  O
  O10      1.0000 0.26820  0.99840  0.00780  Biso   1.000  O
  O11      1.0000 0.73180  0.00160  0.99220  Biso   1.000  O
  O12      1.0000 0.71410  0.19520  0.83220  Biso   1.000  O
  O13      1.0000 0.28590  0.80480  0.16780  Biso   1.000  O
  O14      1.0000 0.35150  0.25300  0.92400  Biso   1.000  O
  O15      1.0000 0.64850  0.74700  0.07600  Biso   1.000  O
  O16      1.0000 0.99760  0.08400  0.84630  Biso   1.000  O
  O17      1.0000 0.00240  0.91600  0.15370  Biso   1.000  O
  C19      1.0000 0.14100  0.33810  0.36150  Biso   1.000  C
  C20      1.0000 0.85900  0.66190  0.63850  Biso   1.000  C
  H15      1.0000 0.06610  0.26240  0.38760  Biso   1.000  H
  H16      1.0000 0.93390  0.73760  0.61240  Biso   1.000  H
