data_image0
_cell_length_a       23.8498
_cell_length_b       10.9113
_cell_length_c       21.8426
_cell_angle_alpha    90
_cell_angle_beta     91.238
_cell_angle_gamma    90

_symmetry_space_group_name_H-M    "P 1"
_symmetry_int_tables_number       1

loop_
  _symmetry_equiv_pos_as_xyz
  'x, y, z'

loop_
  _atom_site_label
  _atom_site_occupancy
  _atom_site_fract_x
  _atom_site_fract_y
  _atom_site_fract_z
  _atom_site_thermal_displace_type
  _atom_site_B_iso_or_equiv
  _atom_site_type_symbol
  C1       1.0000 0.09440  0.06180  0.57020  Biso   1.000  C
  C2       1.0000 0.90560  0.06180  0.92980  Biso   1.000  C
  C3       1.0000 0.59440  0.56180  0.57020  Biso   1.000  C
  C4       1.0000 0.40560  0.56180  0.92980  Biso   1.000  C
  C5       1.0000 0.90560  0.93820  0.42980  Biso   1.000  C
  C6       1.0000 0.09440  0.93820  0.07020  Biso   1.000  C
  C7       1.0000 0.40560  0.43820  0.42980  Biso   1.000  C
  C8       1.0000 0.59440  0.43820  0.07020  Biso   1.000  C
  C9       1.0000 0.06330  0.95680  0.57570  Biso   1.000  C
  C10      1.0000 0.93670  0.95680  0.92430  Biso   1.000  C
  C11      1.0000 0.56330  0.45680  0.57570  Biso   1.000  C
  C12      1.0000 0.43670  0.45680  0.92430  Biso   1.000  C
  C13      1.0000 0.93670  0.04320  0.42430  Biso   1.000  C
  C14      1.0000 0.06330  0.04320  0.07570  Biso   1.000  C
  C15      1.0000 0.43670  0.54320  0.42430  Biso   1.000  C
  C16      1.0000 0.56330  0.54320  0.07570  Biso   1.000  C
  H1       1.0000 0.05280  0.93040  0.61430  Biso   1.000  H
  H2       1.0000 0.94720  0.93040  0.88570  Biso   1.000  H
  H3       1.0000 0.55280  0.43040  0.61430  Biso   1.000  H
  H4       1.0000 0.44720  0.43040  0.88570  Biso   1.000  H
  H5       1.0000 0.94720  0.06960  0.38570  Biso   1.000  H
  H6       1.0000 0.05280  0.06960  0.11430  Biso   1.000  H
  H7       1.0000 0.44720  0.56960  0.38570  Biso   1.000  H
  H8       1.0000 0.55280  0.56960  0.11430  Biso   1.000  H
  C17      1.0000 0.04730  0.89000  0.52480  Biso   1.000  C
  C18      1.0000 0.95270  0.89000  0.97520  Biso   1.000  C
  C19      1.0000 0.54730  0.39000  0.52480  Biso   1.000  C
  C20      1.0000 0.45270  0.39000  0.97520  Biso   1.000  C
  C21      1.0000 0.95270  0.11000  0.47520  Biso   1.000  C
  C22      1.0000 0.04730  0.11000  0.02480  Biso   1.000  C
  C23      1.0000 0.45270  0.61000  0.47520  Biso   1.000  C
  C24      1.0000 0.54730  0.61000  0.02480  Biso   1.000  C
  C25      1.0000 0.06213  0.92590  0.46700  Biso   1.000  C
  C26      1.0000 0.93787  0.92590  0.03300  Biso   1.000  C
  C27      1.0000 0.56213  0.42590  0.46700  Biso   1.000  C
  C28      1.0000 0.43787  0.42590  0.03300  Biso   1.000  C
  C29      1.0000 0.93787  0.07410  0.53300  Biso   1.000  C
  C30      1.0000 0.06213  0.07410  0.96700  Biso   1.000  C
  C31      1.0000 0.43787  0.57410  0.53300  Biso   1.000  C
  C32      1.0000 0.56213  0.57410  0.96700  Biso   1.000  C
  H9       1.0000 0.05140  0.87910  0.43310  Biso   1.000  H
  H10      1.0000 0.94860  0.87910  0.06690  Biso   1.000  H
  H11      1.0000 0.55140  0.37910  0.43310  Biso   1.000  H
  H12      1.0000 0.44860  0.37910  0.06690  Biso   1.000  H
  H13      1.0000 0.94860  0.12090  0.56690  Biso   1.000  H
  H14      1.0000 0.05140  0.12090  0.93310  Biso   1.000  H
  H15      1.0000 0.44860  0.62090  0.56690  Biso   1.000  H
  H16      1.0000 0.55140  0.62090  0.93310  Biso   1.000  H
  C33      1.0000 0.09310  0.03220  0.45960  Biso   1.000  C
  C34      1.0000 0.90690  0.03220  0.04040  Biso   1.000  C
  C35      1.0000 0.59310  0.53220  0.45960  Biso   1.000  C
  C36      1.0000 0.40690  0.53220  0.04040  Biso   1.000  C
  C37      1.0000 0.90690  0.96780  0.54040  Biso   1.000  C
  C38      1.0000 0.09310  0.96780  0.95960  Biso   1.000  C
  C39      1.0000 0.40690  0.46780  0.54040  Biso   1.000  C
  C40      1.0000 0.59310  0.46780  0.95960  Biso   1.000  C
  C41      1.0000 0.10985  0.10170  0.51140  Biso   1.000  C
  C42      1.0000 0.89015  0.10170  0.98860  Biso   1.000  C
  C43      1.0000 0.60985  0.60170  0.51140  Biso   1.000  C
  C44      1.0000 0.39015  0.60170  0.98860  Biso   1.000  C
  C45      1.0000 0.89015  0.89830  0.48860  Biso   1.000  C
  C46      1.0000 0.10985  0.89830  0.01140  Biso   1.000  C
  C47      1.0000 0.39015  0.39830  0.48860  Biso   1.000  C
  C48      1.0000 0.60985  0.39830  0.01140  Biso   1.000  C
  C49      1.0000 0.11260  0.12180  0.63050  Biso   1.000  C
  C50      1.0000 0.88740  0.12180  0.86950  Biso   1.000  C
  C51      1.0000 0.61260  0.62180  0.63050  Biso   1.000  C
  C52      1.0000 0.38740  0.62180  0.86950  Biso   1.000  C
  C53      1.0000 0.88740  0.87820  0.36950  Biso   1.000  C
  C54      1.0000 0.11260  0.87820  0.13050  Biso   1.000  C
  C55      1.0000 0.38740  0.37820  0.36950  Biso   1.000  C
  C56      1.0000 0.61260  0.37820  0.13050  Biso   1.000  C
  C57      1.0000 0.10920  0.06110  0.39440  Biso   1.000  C
  C58      1.0000 0.89080  0.06110  0.10560  Biso   1.000  C
  C59      1.0000 0.60920  0.56110  0.39440  Biso   1.000  C
  C60      1.0000 0.39080  0.56110  0.10560  Biso   1.000  C
  C61      1.0000 0.89080  0.93890  0.60560  Biso   1.000  C
  C62      1.0000 0.10920  0.93890  0.89440  Biso   1.000  C
  C63      1.0000 0.39080  0.43890  0.60560  Biso   1.000  C
  C64      1.0000 0.60920  0.43890  0.89440  Biso   1.000  C
  C65      1.0000 0.25556  0.51030  0.42880  Biso   1.000  C
  C66      1.0000 0.74444  0.51030  0.07120  Biso   1.000  C
  C67      1.0000 0.75556  0.01030  0.42880  Biso   1.000  C
  C68      1.0000 0.24444  0.01030  0.07120  Biso   1.000  C
  C69      1.0000 0.74444  0.48970  0.57120  Biso   1.000  C
  C70      1.0000 0.25556  0.48970  0.92880  Biso   1.000  C
  C71      1.0000 0.24444  0.98970  0.57120  Biso   1.000  C
  C72      1.0000 0.75556  0.98970  0.92880  Biso   1.000  C
  C73      1.0000 0.23884  0.47080  0.48817  Biso   1.000  C
  C74      1.0000 0.76116  0.47080  0.01183  Biso   1.000  C
  C75      1.0000 0.73884  0.97080  0.48817  Biso   1.000  C
  C76      1.0000 0.26116  0.97080  0.01183  Biso   1.000  C
  C77      1.0000 0.76116  0.52920  0.51183  Biso   1.000  C
  C78      1.0000 0.23884  0.52920  0.98817  Biso   1.000  C
  C79      1.0000 0.26116  0.02920  0.51183  Biso   1.000  C
  C80      1.0000 0.73884  0.02920  0.98817  Biso   1.000  C
  C81      1.0000 0.25898  0.53620  0.54087  Biso   1.000  C
  C82      1.0000 0.74102  0.53620  0.95913  Biso   1.000  C
  C83      1.0000 0.75898  0.03620  0.54087  Biso   1.000  C
  C84      1.0000 0.24102  0.03620  0.95913  Biso   1.000  C
  C85      1.0000 0.74102  0.46380  0.45913  Biso   1.000  C
  C86      1.0000 0.25898  0.46380  0.04087  Biso   1.000  C
  C87      1.0000 0.24102  0.96380  0.45913  Biso   1.000  C
  C88      1.0000 0.75898  0.96380  0.04087  Biso   1.000  C
  C89      1.0000 0.29371  0.63560  0.53340  Biso   1.000  C
  C90      1.0000 0.70629  0.63560  0.96660  Biso   1.000  C
  C91      1.0000 0.79371  0.13560  0.53340  Biso   1.000  C
  C92      1.0000 0.20629  0.13560  0.96660  Biso   1.000  C
  C93      1.0000 0.70629  0.36440  0.46660  Biso   1.000  C
  C94      1.0000 0.29371  0.36440  0.03340  Biso   1.000  C
  C95      1.0000 0.20629  0.86440  0.46660  Biso   1.000  C
  C96      1.0000 0.79371  0.86440  0.03340  Biso   1.000  C
  H17      1.0000 0.30720  0.67810  0.56750  Biso   1.000  H
  H18      1.0000 0.69280  0.67810  0.93250  Biso   1.000  H
  H19      1.0000 0.80720  0.17810  0.56750  Biso   1.000  H
  H20      1.0000 0.19280  0.17810  0.93250  Biso   1.000  H
  H21      1.0000 0.69280  0.32190  0.43250  Biso   1.000  H
  H22      1.0000 0.30720  0.32190  0.06750  Biso   1.000  H
  H23      1.0000 0.19280  0.82190  0.43250  Biso   1.000  H
  H24      1.0000 0.80720  0.82190  0.06750  Biso   1.000  H
  C97      1.0000 0.30861  0.67250  0.47560  Biso   1.000  C
  C98      1.0000 0.69139  0.67250  0.02440  Biso   1.000  C
  C99      1.0000 0.80861  0.17250  0.47560  Biso   1.000  C
  C100     1.0000 0.19139  0.17250  0.02440  Biso   1.000  C
  C101     1.0000 0.69139  0.32750  0.52440  Biso   1.000  C
  C102     1.0000 0.30861  0.32750  0.97560  Biso   1.000  C
  C103     1.0000 0.19139  0.82750  0.52440  Biso   1.000  C
  C104     1.0000 0.80861  0.82750  0.97560  Biso   1.000  C
  C105     1.0000 0.28977  0.61200  0.42360  Biso   1.000  C
  C106     1.0000 0.71023  0.61200  0.07640  Biso   1.000  C
  C107     1.0000 0.78977  0.11200  0.42360  Biso   1.000  C
  C108     1.0000 0.21023  0.11200  0.07640  Biso   1.000  C
  C109     1.0000 0.71023  0.38800  0.57640  Biso   1.000  C
  C110     1.0000 0.28977  0.38800  0.92360  Biso   1.000  C
  C111     1.0000 0.21023  0.88800  0.57640  Biso   1.000  C
  C112     1.0000 0.78977  0.88800  0.92360  Biso   1.000  C
  H25      1.0000 0.30010  0.63950  0.38520  Biso   1.000  H
  H26      1.0000 0.69990  0.63950  0.11480  Biso   1.000  H
  H27      1.0000 0.80010  0.13950  0.38520  Biso   1.000  H
  H28      1.0000 0.19990  0.13950  0.11480  Biso   1.000  H
  H29      1.0000 0.69990  0.36050  0.61480  Biso   1.000  H
  H30      1.0000 0.30010  0.36050  0.88520  Biso   1.000  H
  H31      1.0000 0.19990  0.86050  0.61480  Biso   1.000  H
  H32      1.0000 0.80010  0.86050  0.88520  Biso   1.000  H
  C113     1.0000 0.23940  0.44600  0.37000  Biso   1.000  C
  C114     1.0000 0.76060  0.44600  0.13000  Biso   1.000  C
  C115     1.0000 0.73940  0.94600  0.37000  Biso   1.000  C
  C116     1.0000 0.26060  0.94600  0.13000  Biso   1.000  C
  C117     1.0000 0.76060  0.55400  0.63000  Biso   1.000  C
  C118     1.0000 0.23940  0.55400  0.87000  Biso   1.000  C
  C119     1.0000 0.26060  0.05400  0.63000  Biso   1.000  C
  C120     1.0000 0.73940  0.05400  0.87000  Biso   1.000  C
  C121     1.0000 0.24470  0.50550  0.60580  Biso   1.000  C
  C122     1.0000 0.75530  0.50550  0.89420  Biso   1.000  C
  C123     1.0000 0.74470  0.00550  0.60580  Biso   1.000  C
  C124     1.0000 0.25530  0.00550  0.89420  Biso   1.000  C
  C125     1.0000 0.75530  0.49450  0.39420  Biso   1.000  C
  C126     1.0000 0.24470  0.49450  0.10580  Biso   1.000  C
  C127     1.0000 0.25530  0.99450  0.39420  Biso   1.000  C
  C128     1.0000 0.74470  0.99450  0.10580  Biso   1.000  C
  C129     1.0000 0.14840  0.68640  0.75070  Biso   1.000  C
  C130     1.0000 0.85160  0.68640  0.74930  Biso   1.000  C
  C131     1.0000 0.64840  0.18640  0.75070  Biso   1.000  C
  C132     1.0000 0.35160  0.18640  0.74930  Biso   1.000  C
  C133     1.0000 0.85160  0.31360  0.24930  Biso   1.000  C
  C134     1.0000 0.14840  0.31360  0.25070  Biso   1.000  C
  C135     1.0000 0.35160  0.81360  0.24930  Biso   1.000  C
  C136     1.0000 0.64840  0.81360  0.25070  Biso   1.000  C
  H33      1.0000 0.16670  0.75430  0.76730  Biso   1.000  H
  H34      1.0000 0.83330  0.75430  0.73270  Biso   1.000  H
  H35      1.0000 0.66670  0.25430  0.76730  Biso   1.000  H
  H36      1.0000 0.33330  0.25430  0.73270  Biso   1.000  H
  H37      1.0000 0.83330  0.24570  0.23270  Biso   1.000  H
  H38      1.0000 0.16670  0.24570  0.26730  Biso   1.000  H
  H39      1.0000 0.33330  0.74570  0.23270  Biso   1.000  H
  H40      1.0000 0.66670  0.74570  0.26730  Biso   1.000  H
  C137     1.0000 0.13070  0.51450  0.71160  Biso   1.000  C
  C138     1.0000 0.86930  0.51450  0.78840  Biso   1.000  C
  C139     1.0000 0.63070  0.01450  0.71160  Biso   1.000  C
  C140     1.0000 0.36930  0.01450  0.78840  Biso   1.000  C
  C141     1.0000 0.86930  0.48550  0.28840  Biso   1.000  C
  C142     1.0000 0.13070  0.48550  0.21160  Biso   1.000  C
  C143     1.0000 0.36930  0.98550  0.28840  Biso   1.000  C
  C144     1.0000 0.63070  0.98550  0.21160  Biso   1.000  C
  H41      1.0000 0.13580  0.43690  0.69500  Biso   1.000  H
  H42      1.0000 0.86420  0.43690  0.80500  Biso   1.000  H
  H43      1.0000 0.63580  0.93690  0.69500  Biso   1.000  H
  H44      1.0000 0.36420  0.93690  0.80500  Biso   1.000  H
  H45      1.0000 0.86420  0.56310  0.30500  Biso   1.000  H
  H46      1.0000 0.13580  0.56310  0.19500  Biso   1.000  H
  H47      1.0000 0.36420  0.06310  0.30500  Biso   1.000  H
  H48      1.0000 0.63580  0.06310  0.19500  Biso   1.000  H
  C145     1.0000 0.05490  0.79750  0.74850  Biso   1.000  C
  C146     1.0000 0.94510  0.79750  0.75150  Biso   1.000  C
  C147     1.0000 0.55490  0.29750  0.74850  Biso   1.000  C
  C148     1.0000 0.44510  0.29750  0.75150  Biso   1.000  C
  C149     1.0000 0.94510  0.20250  0.25150  Biso   1.000  C
  C150     1.0000 0.05490  0.20250  0.24850  Biso   1.000  C
  C151     1.0000 0.44510  0.70250  0.25150  Biso   1.000  C
  C152     1.0000 0.55490  0.70250  0.24850  Biso   1.000  C
  C153     1.0000 0.00050  0.75100  0.72620  Biso   1.000  C
  C154     1.0000 0.99950  0.75100  0.77380  Biso   1.000  C
  C155     1.0000 0.50050  0.25100  0.72620  Biso   1.000  C
  C156     1.0000 0.49950  0.25100  0.77380  Biso   1.000  C
  C157     1.0000 0.99950  0.24900  0.27380  Biso   1.000  C
  C158     1.0000 0.00050  0.24900  0.22620  Biso   1.000  C
  C159     1.0000 0.49950  0.74900  0.27380  Biso   1.000  C
  C160     1.0000 0.50050  0.74900  0.22620  Biso   1.000  C
  C161     1.0000 0.03980  0.71560  0.77660  Biso   1.000  C
  C162     1.0000 0.96020  0.71560  0.72340  Biso   1.000  C
  C163     1.0000 0.53980  0.21560  0.77660  Biso   1.000  C
  C164     1.0000 0.46020  0.21560  0.72340  Biso   1.000  C
  C165     1.0000 0.96020  0.28440  0.22340  Biso   1.000  C
  C166     1.0000 0.03980  0.28440  0.27660  Biso   1.000  C
  C167     1.0000 0.46020  0.78440  0.22340  Biso   1.000  C
  C168     1.0000 0.53980  0.78440  0.27660  Biso   1.000  C
  Cu1      1.0000 0.16724  0.27974  0.43138  Biso   1.000  Cu
  Cu2      1.0000 0.83276  0.27974  0.06862  Biso   1.000  Cu
  Cu3      1.0000 0.66724  0.77974  0.43138  Biso   1.000  Cu
  Cu4      1.0000 0.33276  0.77974  0.06862  Biso   1.000  Cu
  Cu5      1.0000 0.83276  0.72026  0.56862  Biso   1.000  Cu
  Cu6      1.0000 0.16724  0.72026  0.93138  Biso   1.000  Cu
  Cu7      1.0000 0.33276  0.22026  0.56862  Biso   1.000  Cu
  Cu8      1.0000 0.66724  0.22026  0.93138  Biso   1.000  Cu
  Cu9      1.0000 0.17119  0.31018  0.56668  Biso   1.000  Cu
  Cu10     1.0000 0.82881  0.31018  0.93332  Biso   1.000  Cu
  Cu11     1.0000 0.67119  0.81018  0.56668  Biso   1.000  Cu
  Cu12     1.0000 0.32881  0.81018  0.93332  Biso   1.000  Cu
  Cu13     1.0000 0.82881  0.68982  0.43332  Biso   1.000  Cu
  Cu14     1.0000 0.17119  0.68982  0.06668  Biso   1.000  Cu
  Cu15     1.0000 0.32881  0.18982  0.43332  Biso   1.000  Cu
  Cu16     1.0000 0.67119  0.18982  0.06668  Biso   1.000  Cu
  Cu17     1.0000 0.25431  0.55417  0.73520  Biso   1.000  Cu
  Cu18     1.0000 0.74569  0.55417  0.76480  Biso   1.000  Cu
  Cu19     1.0000 0.75431  0.05417  0.73520  Biso   1.000  Cu
  Cu20     1.0000 0.24569  0.05417  0.76480  Biso   1.000  Cu
  Cu21     1.0000 0.74569  0.44583  0.26480  Biso   1.000  Cu
  Cu22     1.0000 0.25431  0.44583  0.23520  Biso   1.000  Cu
  Cu23     1.0000 0.24569  0.94583  0.26480  Biso   1.000  Cu
  Cu24     1.0000 0.75431  0.94583  0.23520  Biso   1.000  Cu
  N1       1.0000 0.01540  0.77750  0.53180  Biso   1.000  N
  N2       1.0000 0.98460  0.77750  0.96820  Biso   1.000  N
  N3       1.0000 0.51540  0.27750  0.53180  Biso   1.000  N
  N4       1.0000 0.48460  0.27750  0.96820  Biso   1.000  N
  N5       1.0000 0.98460  0.22250  0.46820  Biso   1.000  N
  N6       1.0000 0.01540  0.22250  0.03180  Biso   1.000  N
  N7       1.0000 0.48460  0.72250  0.46820  Biso   1.000  N
  N8       1.0000 0.51540  0.72250  0.03180  Biso   1.000  N
  N9       1.0000 0.34530  0.77930  0.46890  Biso   1.000  N
  N10      1.0000 0.65470  0.77930  0.03110  Biso   1.000  N
  N11      1.0000 0.84530  0.27930  0.46890  Biso   1.000  N
  N12      1.0000 0.15470  0.27930  0.03110  Biso   1.000  N
  N13      1.0000 0.65470  0.22070  0.53110  Biso   1.000  N
  N14      1.0000 0.34530  0.22070  0.96890  Biso   1.000  N
  N15      1.0000 0.15470  0.72070  0.53110  Biso   1.000  N
  N16      1.0000 0.84530  0.72070  0.96890  Biso   1.000  N
  N17      1.0000 0.17323  0.58570  0.73125  Biso   1.000  N
  N18      1.0000 0.82677  0.58570  0.76875  Biso   1.000  N
  N19      1.0000 0.67323  0.08570  0.73125  Biso   1.000  N
  N20      1.0000 0.32677  0.08570  0.76875  Biso   1.000  N
  N21      1.0000 0.82677  0.41430  0.26875  Biso   1.000  N
  N22      1.0000 0.17323  0.41430  0.23125  Biso   1.000  N
  N23      1.0000 0.32677  0.91430  0.26875  Biso   1.000  N
  N24      1.0000 0.67323  0.91430  0.23125  Biso   1.000  N
  N25      1.0000 0.09370  0.67570  0.74310  Biso   1.000  N
  N26      1.0000 0.90630  0.67570  0.75690  Biso   1.000  N
  N27      1.0000 0.59370  0.17570  0.74310  Biso   1.000  N
  N28      1.0000 0.40630  0.17570  0.75690  Biso   1.000  N
  N29      1.0000 0.90630  0.32430  0.25690  Biso   1.000  N
  N30      1.0000 0.09370  0.32430  0.24310  Biso   1.000  N
  N31      1.0000 0.40630  0.82430  0.25690  Biso   1.000  N
  N32      1.0000 0.59370  0.82430  0.24310  Biso   1.000  N
  N33      1.0000 0.08130  0.56450  0.71800  Biso   1.000  N
  N34      1.0000 0.91870  0.56450  0.78200  Biso   1.000  N
  N35      1.0000 0.58130  0.06450  0.71800  Biso   1.000  N
  N36      1.0000 0.41870  0.06450  0.78200  Biso   1.000  N
  N37      1.0000 0.91870  0.43550  0.28200  Biso   1.000  N
  N38      1.0000 0.08130  0.43550  0.21800  Biso   1.000  N
  N39      1.0000 0.41870  0.93550  0.28200  Biso   1.000  N
  N40      1.0000 0.58130  0.93550  0.21800  Biso   1.000  N
  O1       1.0000 0.13723  0.15520  0.38064  Biso   1.000  O
  O2       1.0000 0.86277  0.15520  0.11936  Biso   1.000  O
  O3       1.0000 0.63723  0.65520  0.38064  Biso   1.000  O
  O4       1.0000 0.36277  0.65520  0.11936  Biso   1.000  O
  O5       1.0000 0.86277  0.84480  0.61936  Biso   1.000  O
  O6       1.0000 0.13723  0.84480  0.88064  Biso   1.000  O
  O7       1.0000 0.36277  0.34480  0.61936  Biso   1.000  O
  O8       1.0000 0.63723  0.34480  0.88064  Biso   1.000  O
  O9       1.0000 0.09449  0.98660  0.35436  Biso   1.000  O
  O10      1.0000 0.90551  0.98660  0.14564  Biso   1.000  O
  O11      1.0000 0.59449  0.48660  0.35436  Biso   1.000  O
  O12      1.0000 0.40551  0.48660  0.14564  Biso   1.000  O
  O13      1.0000 0.90551  0.01340  0.64564  Biso   1.000  O
  O14      1.0000 0.09449  0.01340  0.85436  Biso   1.000  O
  O15      1.0000 0.40551  0.51340  0.64564  Biso   1.000  O
  O16      1.0000 0.59449  0.51340  0.85436  Biso   1.000  O
  O17      1.0000 0.14042  0.20260  0.50513  Biso   1.000  O
  O18      1.0000 0.85958  0.20260  0.99487  Biso   1.000  O
  O19      1.0000 0.64042  0.70260  0.50513  Biso   1.000  O
  O20      1.0000 0.35958  0.70260  0.99487  Biso   1.000  O
  O21      1.0000 0.85958  0.79740  0.49487  Biso   1.000  O
  O22      1.0000 0.14042  0.79740  0.00513  Biso   1.000  O
  O23      1.0000 0.35958  0.29740  0.49487  Biso   1.000  O
  O24      1.0000 0.64042  0.29740  0.00513  Biso   1.000  O
  O25      1.0000 0.14524  0.21420  0.63194  Biso   1.000  O
  O26      1.0000 0.85476  0.21420  0.86806  Biso   1.000  O
  O27      1.0000 0.64524  0.71420  0.63194  Biso   1.000  O
  O28      1.0000 0.35476  0.71420  0.86806  Biso   1.000  O
  O29      1.0000 0.85476  0.78580  0.36806  Biso   1.000  O
  O30      1.0000 0.14524  0.78580  0.13194  Biso   1.000  O
  O31      1.0000 0.35476  0.28580  0.36806  Biso   1.000  O
  O32      1.0000 0.64524  0.28580  0.13194  Biso   1.000  O
  O33      1.0000 0.09569  0.07370  0.67778  Biso   1.000  O
  O34      1.0000 0.90431  0.07370  0.82222  Biso   1.000  O
  O35      1.0000 0.59569  0.57370  0.67778  Biso   1.000  O
  O36      1.0000 0.40431  0.57370  0.82222  Biso   1.000  O
  O37      1.0000 0.90431  0.92630  0.32222  Biso   1.000  O
  O38      1.0000 0.09569  0.92630  0.17778  Biso   1.000  O
  O39      1.0000 0.40431  0.42630  0.32222  Biso   1.000  O
  O40      1.0000 0.59569  0.42630  0.17778  Biso   1.000  O
  O41      1.0000 0.21582  0.41150  0.61945  Biso   1.000  O
  O42      1.0000 0.78418  0.41150  0.88055  Biso   1.000  O
  O43      1.0000 0.71582  0.91150  0.61945  Biso   1.000  O
  O44      1.0000 0.28418  0.91150  0.88055  Biso   1.000  O
  O45      1.0000 0.78418  0.58850  0.38055  Biso   1.000  O
  O46      1.0000 0.21582  0.58850  0.11945  Biso   1.000  O
  O47      1.0000 0.28418  0.08850  0.38055  Biso   1.000  O
  O48      1.0000 0.71582  0.08850  0.11945  Biso   1.000  O
  O49      1.0000 0.26370  0.57560  0.64643  Biso   1.000  O
  O50      1.0000 0.73630  0.57560  0.85357  Biso   1.000  O
  O51      1.0000 0.76370  0.07560  0.64643  Biso   1.000  O
  O52      1.0000 0.23630  0.07560  0.85357  Biso   1.000  O
  O53      1.0000 0.73630  0.42440  0.35357  Biso   1.000  O
  O54      1.0000 0.26370  0.42440  0.14643  Biso   1.000  O
  O55      1.0000 0.23630  0.92440  0.35357  Biso   1.000  O
  O56      1.0000 0.76370  0.92440  0.14643  Biso   1.000  O
  O57      1.0000 0.20589  0.37540  0.49425  Biso   1.000  O
  O58      1.0000 0.79411  0.37540  0.00575  Biso   1.000  O
  O59      1.0000 0.70589  0.87540  0.49425  Biso   1.000  O
  O60      1.0000 0.29411  0.87540  0.00575  Biso   1.000  O
  O61      1.0000 0.79411  0.62460  0.50575  Biso   1.000  O
  O62      1.0000 0.20589  0.62460  0.99425  Biso   1.000  O
  O63      1.0000 0.29411  0.12460  0.50575  Biso   1.000  O
  O64      1.0000 0.70589  0.12460  0.99425  Biso   1.000  O
  O65      1.0000 0.21167  0.34740  0.36864  Biso   1.000  O
  O66      1.0000 0.78833  0.34740  0.13136  Biso   1.000  O
  O67      1.0000 0.71167  0.84740  0.36864  Biso   1.000  O
  O68      1.0000 0.28833  0.84740  0.13136  Biso   1.000  O
  O69      1.0000 0.78833  0.65260  0.63136  Biso   1.000  O
  O70      1.0000 0.21167  0.65260  0.86864  Biso   1.000  O
  O71      1.0000 0.28833  0.15260  0.63136  Biso   1.000  O
  O72      1.0000 0.71167  0.15260  0.86864  Biso   1.000  O
  O73      1.0000 0.35830  0.81010  0.41706  Biso   1.000  O
  O74      1.0000 0.64170  0.81010  0.08294  Biso   1.000  O
  O75      1.0000 0.85830  0.31010  0.41706  Biso   1.000  O
  O76      1.0000 0.14170  0.31010  0.08294  Biso   1.000  O
  O77      1.0000 0.64170  0.18990  0.58294  Biso   1.000  O
  O78      1.0000 0.35830  0.18990  0.91706  Biso   1.000  O
  O79      1.0000 0.14170  0.68990  0.58294  Biso   1.000  O
  O80      1.0000 0.85830  0.68990  0.91706  Biso   1.000  O
  O81      1.0000 0.36120  0.83210  0.51531  Biso   1.000  O
  O82      1.0000 0.63880  0.83210  0.98469  Biso   1.000  O
  O83      1.0000 0.86120  0.33210  0.51531  Biso   1.000  O
  O84      1.0000 0.13880  0.33210  0.98469  Biso   1.000  O
  O85      1.0000 0.63880  0.16790  0.48469  Biso   1.000  O
  O86      1.0000 0.36120  0.16790  0.01531  Biso   1.000  O
  O87      1.0000 0.13880  0.66790  0.48469  Biso   1.000  O
  O88      1.0000 0.86120  0.66790  0.01531  Biso   1.000  O
  O89      1.0000 0.00253  0.71850  0.48680  Biso   1.000  O
  O90      1.0000 0.99747  0.71850  0.01320  Biso   1.000  O
  O91      1.0000 0.50253  0.21850  0.48680  Biso   1.000  O
  O92      1.0000 0.49747  0.21850  0.01320  Biso   1.000  O
  O93      1.0000 0.99747  0.28150  0.51320  Biso   1.000  O
  O94      1.0000 0.00253  0.28150  0.98680  Biso   1.000  O
  O95      1.0000 0.49747  0.78150  0.51320  Biso   1.000  O
  O96      1.0000 0.50253  0.78150  0.98680  Biso   1.000  O
  O97      1.0000 0.00206  0.74720  0.58320  Biso   1.000  O
  O98      1.0000 0.99794  0.74720  0.91680  Biso   1.000  O
  O99      1.0000 0.50206  0.24720  0.58320  Biso   1.000  O
  O100     1.0000 0.49794  0.24720  0.91680  Biso   1.000  O
  O101     1.0000 0.99794  0.25280  0.41680  Biso   1.000  O
  O102     1.0000 0.00206  0.25280  0.08320  Biso   1.000  O
  O103     1.0000 0.49794  0.75280  0.41680  Biso   1.000  O
  O104     1.0000 0.50206  0.75280  0.08320  Biso   1.000  O
  O105     1.0000 0.25695  0.49500  0.32206  Biso   1.000  O
  O106     1.0000 0.74305  0.49500  0.17794  Biso   1.000  O
  O107     1.0000 0.75695  0.99500  0.32206  Biso   1.000  O
  O108     1.0000 0.24305  0.99500  0.17794  Biso   1.000  O
  O109     1.0000 0.74305  0.50500  0.67794  Biso   1.000  O
  O110     1.0000 0.25695  0.50500  0.82206  Biso   1.000  O
  O111     1.0000 0.24305  0.00500  0.67794  Biso   1.000  O
  O112     1.0000 0.75695  0.00500  0.82206  Biso   1.000  O
  O113     1.0000 0.53430  0.71510  0.79850  Biso   1.000  O
  O114     1.0000 0.46570  0.71510  0.70150  Biso   1.000  O
  O115     1.0000 0.03430  0.21510  0.79850  Biso   1.000  O
  O116     1.0000 0.96570  0.21510  0.70150  Biso   1.000  O
  O117     1.0000 0.46570  0.28490  0.20150  Biso   1.000  O
  O118     1.0000 0.53430  0.28490  0.29850  Biso   1.000  O
  O119     1.0000 0.96570  0.78490  0.20150  Biso   1.000  O
  O120     1.0000 0.03430  0.78490  0.29850  Biso   1.000  O
  O121     1.0000 0.50410  0.92930  0.85930  Biso   1.000  O
  O122     1.0000 0.49590  0.92930  0.64070  Biso   1.000  O
  O123     1.0000 0.00410  0.42930  0.85930  Biso   1.000  O
  O124     1.0000 0.99590  0.42930  0.64070  Biso   1.000  O
  O125     1.0000 0.49590  0.07070  0.14070  Biso   1.000  O
  O126     1.0000 0.50410  0.07070  0.35930  Biso   1.000  O
  O127     1.0000 0.99590  0.57070  0.14070  Biso   1.000  O
  O128     1.0000 0.00410  0.57070  0.35930  Biso   1.000  O
  O129     1.0000 0.63580  0.82310  0.83490  Biso   1.000  O
  O130     1.0000 0.36420  0.82310  0.66510  Biso   1.000  O
  O131     1.0000 0.13580  0.32310  0.83490  Biso   1.000  O
  O132     1.0000 0.86420  0.32310  0.66510  Biso   1.000  O
  O133     1.0000 0.36420  0.17690  0.16510  Biso   1.000  O
  O134     1.0000 0.63580  0.17690  0.33490  Biso   1.000  O
  O135     1.0000 0.86420  0.67690  0.16510  Biso   1.000  O
  O136     1.0000 0.13580  0.67690  0.33490  Biso   1.000  O
  O137     1.0000 0.09880  0.42650  0.42276  Biso   1.000  O
  O138     1.0000 0.90120  0.42650  0.07724  Biso   1.000  O
  O139     1.0000 0.59880  0.92650  0.42276  Biso   1.000  O
  O140     1.0000 0.40120  0.92650  0.07724  Biso   1.000  O
  O141     1.0000 0.90120  0.57350  0.57724  Biso   1.000  O
  O142     1.0000 0.09880  0.57350  0.92276  Biso   1.000  O
  O143     1.0000 0.40120  0.07350  0.57724  Biso   1.000  O
  O144     1.0000 0.59880  0.07350  0.92276  Biso   1.000  O
  H49      1.0000 0.10080  0.49140  0.44420  Biso   1.000  H
  H50      1.0000 0.89920  0.49140  0.05580  Biso   1.000  H
  H51      1.0000 0.60080  0.99140  0.44420  Biso   1.000  H
  H52      1.0000 0.39920  0.99140  0.05580  Biso   1.000  H
  H53      1.0000 0.89920  0.50860  0.55580  Biso   1.000  H
  H54      1.0000 0.10080  0.50860  0.94420  Biso   1.000  H
  H55      1.0000 0.39920  0.00860  0.55580  Biso   1.000  H
  H56      1.0000 0.60080  0.00860  0.94420  Biso   1.000  H
  H57      1.0000 0.06720  0.39270  0.42820  Biso   1.000  H
  H58      1.0000 0.93280  0.39270  0.07180  Biso   1.000  H
  H59      1.0000 0.56720  0.89270  0.42820  Biso   1.000  H
  H60      1.0000 0.43280  0.89270  0.07180  Biso   1.000  H
  H61      1.0000 0.93280  0.60730  0.57180  Biso   1.000  H
  H62      1.0000 0.06720  0.60730  0.92820  Biso   1.000  H
  H63      1.0000 0.43280  0.10730  0.57180  Biso   1.000  H
  H64      1.0000 0.56720  0.10730  0.92820  Biso   1.000  H
  O145     1.0000 0.09447  0.43990  0.56041  Biso   1.000  O
  O146     1.0000 0.90553  0.43990  0.93959  Biso   1.000  O
  O147     1.0000 0.59447  0.93990  0.56041  Biso   1.000  O
  O148     1.0000 0.40553  0.93990  0.93959  Biso   1.000  O
  O149     1.0000 0.90553  0.56010  0.43959  Biso   1.000  O
  O150     1.0000 0.09447  0.56010  0.06041  Biso   1.000  O
  O151     1.0000 0.40553  0.06010  0.43959  Biso   1.000  O
  O152     1.0000 0.59447  0.06010  0.06041  Biso   1.000  O
  H65      1.0000 0.10890  0.51030  0.56580  Biso   1.000  H
  H66      1.0000 0.89110  0.51030  0.93420  Biso   1.000  H
  H67      1.0000 0.60890  0.01030  0.56580  Biso   1.000  H
  H68      1.0000 0.39110  0.01030  0.93420  Biso   1.000  H
  H69      1.0000 0.89110  0.48970  0.43420  Biso   1.000  H
  H70      1.0000 0.10890  0.48970  0.06580  Biso   1.000  H
  H71      1.0000 0.39110  0.98970  0.43420  Biso   1.000  H
  H72      1.0000 0.60890  0.98970  0.06580  Biso   1.000  H
  H73      1.0000 0.06600  0.43400  0.58290  Biso   1.000  H
  H74      1.0000 0.93400  0.43400  0.91710  Biso   1.000  H
  H75      1.0000 0.56600  0.93400  0.58290  Biso   1.000  H
  H76      1.0000 0.43400  0.93400  0.91710  Biso   1.000  H
  H77      1.0000 0.93400  0.56600  0.41710  Biso   1.000  H
  H78      1.0000 0.06600  0.56600  0.08290  Biso   1.000  H
  H79      1.0000 0.43400  0.06600  0.41710  Biso   1.000  H
  H80      1.0000 0.56600  0.06600  0.08290  Biso   1.000  H
  O153     1.0000 0.33084  0.49340  0.73733  Biso   1.000  O
  O154     1.0000 0.66916  0.49340  0.76267  Biso   1.000  O
  O155     1.0000 0.83084  0.99340  0.73733  Biso   1.000  O
  O156     1.0000 0.16916  0.99340  0.76267  Biso   1.000  O
  O157     1.0000 0.66916  0.50660  0.26267  Biso   1.000  O
  O158     1.0000 0.33084  0.50660  0.23733  Biso   1.000  O
  O159     1.0000 0.16916  0.00660  0.26267  Biso   1.000  O
  O160     1.0000 0.83084  0.00660  0.23733  Biso   1.000  O
  H81      1.0000 0.34420  0.45410  0.70730  Biso   1.000  H
  H82      1.0000 0.65580  0.45410  0.79270  Biso   1.000  H
  H83      1.0000 0.84420  0.95410  0.70730  Biso   1.000  H
  H84      1.0000 0.15580  0.95410  0.79270  Biso   1.000  H
  H85      1.0000 0.65580  0.54590  0.29270  Biso   1.000  H
  H86      1.0000 0.34420  0.54590  0.20730  Biso   1.000  H
  H87      1.0000 0.15580  0.04590  0.29270  Biso   1.000  H
  H88      1.0000 0.84420  0.04590  0.20730  Biso   1.000  H
  H89      1.0000 0.35770  0.51430  0.76130  Biso   1.000  H
  H90      1.0000 0.64230  0.51430  0.73870  Biso   1.000  H
  H91      1.0000 0.85770  0.01430  0.76130  Biso   1.000  H
  H92      1.0000 0.14230  0.01430  0.73870  Biso   1.000  H
  H93      1.0000 0.64230  0.48570  0.23870  Biso   1.000  H
  H94      1.0000 0.35770  0.48570  0.26130  Biso   1.000  H
  H95      1.0000 0.14230  0.98570  0.23870  Biso   1.000  H
  H96      1.0000 0.85770  0.98570  0.26130  Biso   1.000  H
  O161     1.0000 0.27906  0.75410  0.75352  Biso   1.000  O
  O162     1.0000 0.72094  0.75410  0.74648  Biso   1.000  O
  O163     1.0000 0.77906  0.25410  0.75352  Biso   1.000  O
  O164     1.0000 0.22094  0.25410  0.74648  Biso   1.000  O
  O165     1.0000 0.72094  0.24590  0.24648  Biso   1.000  O
  O166     1.0000 0.27906  0.24590  0.25352  Biso   1.000  O
  O167     1.0000 0.22094  0.74590  0.24648  Biso   1.000  O
  O168     1.0000 0.77906  0.74590  0.25352  Biso   1.000  O
  H97      1.0000 0.29770  0.74180  0.78660  Biso   1.000  H
  H98      1.0000 0.70230  0.74180  0.71340  Biso   1.000  H
  H99      1.0000 0.79770  0.24180  0.78660  Biso   1.000  H
  H100     1.0000 0.20230  0.24180  0.71340  Biso   1.000  H
  H101     1.0000 0.70230  0.25820  0.21340  Biso   1.000  H
  H102     1.0000 0.29770  0.25820  0.28660  Biso   1.000  H
  H103     1.0000 0.20230  0.75820  0.21340  Biso   1.000  H
  H104     1.0000 0.79770  0.75820  0.28660  Biso   1.000  H
  H105     1.0000 0.30180  0.77470  0.72590  Biso   1.000  H
  H106     1.0000 0.69820  0.77470  0.77410  Biso   1.000  H
  H107     1.0000 0.80180  0.27470  0.72590  Biso   1.000  H
  H108     1.0000 0.19820  0.27470  0.77410  Biso   1.000  H
  H109     1.0000 0.69820  0.22530  0.27410  Biso   1.000  H
  H110     1.0000 0.30180  0.22530  0.22590  Biso   1.000  H
  H111     1.0000 0.19820  0.72530  0.27410  Biso   1.000  H
  H112     1.0000 0.80180  0.72530  0.22590  Biso   1.000  H
