data_image0
_cell_length_a       9.6327
_cell_length_b       14.0345
_cell_length_c       18.3967
_cell_angle_alpha    90
_cell_angle_beta     90
_cell_angle_gamma    90

_symmetry_space_group_name_H-M    "P 1"
_symmetry_int_tables_number       1

loop_
  _symmetry_equiv_pos_as_xyz
  'x, y, z'

loop_
  _atom_site_label
  _atom_site_occupancy
  _atom_site_fract_x
  _atom_site_fract_y
  _atom_site_fract_z
  _atom_site_thermal_displace_type
  _atom_site_B_iso_or_equiv
  _atom_site_type_symbol
  Cu1      1.0000 0.60313  0.46348  0.60542  Biso   1.000  Cu
  Cu2      1.0000 0.89687  0.53652  0.10542  Biso   1.000  Cu
  Cu3      1.0000 0.10313  0.03652  0.39458  Biso   1.000  Cu
  Cu4      1.0000 0.39687  0.96348  0.89458  Biso   1.000  Cu
  Cu5      1.0000 0.39687  0.53652  0.39458  Biso   1.000  Cu
  Cu6      1.0000 0.10313  0.46348  0.89458  Biso   1.000  Cu
  Cu7      1.0000 0.89687  0.96348  0.60542  Biso   1.000  Cu
  Cu8      1.0000 0.60313  0.03652  0.10542  Biso   1.000  Cu
  N1       1.0000 0.70610  0.51882  0.51992  Biso   1.000  N
  N2       1.0000 0.79390  0.48118  0.01992  Biso   1.000  N
  N3       1.0000 0.20610  0.98118  0.48008  Biso   1.000  N
  N4       1.0000 0.29390  0.01882  0.98008  Biso   1.000  N
  N5       1.0000 0.29390  0.48118  0.48008  Biso   1.000  N
  N6       1.0000 0.20610  0.51882  0.98008  Biso   1.000  N
  N7       1.0000 0.79390  0.01882  0.51992  Biso   1.000  N
  N8       1.0000 0.70610  0.98118  0.01992  Biso   1.000  N
  N9       1.0000 0.54470  0.59347  0.61544  Biso   1.000  N
  N10      1.0000 0.95530  0.40653  0.11544  Biso   1.000  N
  N11      1.0000 0.04470  0.90653  0.38456  Biso   1.000  N
  N12      1.0000 0.45530  0.09347  0.88456  Biso   1.000  N
  N13      1.0000 0.45530  0.40653  0.38456  Biso   1.000  N
  N14      1.0000 0.04470  0.59347  0.88456  Biso   1.000  N
  N15      1.0000 0.95530  0.09347  0.61544  Biso   1.000  N
  N16      1.0000 0.54470  0.90653  0.11544  Biso   1.000  N
  O1       1.0000 0.41370  0.69815  0.68331  Biso   1.000  O
  O2       1.0000 0.08630  0.30185  0.18331  Biso   1.000  O
  O3       1.0000 0.91370  0.80185  0.31669  Biso   1.000  O
  O4       1.0000 0.58630  0.19815  0.81669  Biso   1.000  O
  O5       1.0000 0.58630  0.30185  0.31669  Biso   1.000  O
  O6       1.0000 0.91370  0.69815  0.81669  Biso   1.000  O
  O7       1.0000 0.08630  0.19815  0.68331  Biso   1.000  O
  O8       1.0000 0.41370  0.80185  0.18331  Biso   1.000  O
  N17      1.0000 0.46660  0.44759  0.69038  Biso   1.000  N
  N18      1.0000 0.03340  0.55241  0.19038  Biso   1.000  N
  N19      1.0000 0.96660  0.05241  0.30962  Biso   1.000  N
  N20      1.0000 0.53340  0.94759  0.80962  Biso   1.000  N
  N21      1.0000 0.53340  0.55241  0.30962  Biso   1.000  N
  N22      1.0000 0.96660  0.44759  0.80962  Biso   1.000  N
  N23      1.0000 0.03340  0.94759  0.69038  Biso   1.000  N
  N24      1.0000 0.46660  0.05241  0.19038  Biso   1.000  N
  N25      1.0000 0.63730  0.33090  0.57900  Biso   1.000  N
  N26      1.0000 0.86270  0.66910  0.07900  Biso   1.000  N
  N27      1.0000 0.13730  0.16910  0.42100  Biso   1.000  N
  N28      1.0000 0.36270  0.83090  0.92100  Biso   1.000  N
  N29      1.0000 0.36270  0.66910  0.42100  Biso   1.000  N
  N30      1.0000 0.13730  0.33090  0.92100  Biso   1.000  N
  N31      1.0000 0.86270  0.83090  0.57900  Biso   1.000  N
  N32      1.0000 0.63730  0.16910  0.07900  Biso   1.000  N
  N33      1.0000 0.57680  0.26059  0.59447  Biso   1.000  N
  N34      1.0000 0.92320  0.73941  0.09447  Biso   1.000  N
  N35      1.0000 0.07680  0.23941  0.40553  Biso   1.000  N
  N36      1.0000 0.42320  0.76059  0.90553  Biso   1.000  N
  N37      1.0000 0.42320  0.73941  0.40553  Biso   1.000  N
  N38      1.0000 0.07680  0.26059  0.90553  Biso   1.000  N
  N39      1.0000 0.92320  0.76059  0.59447  Biso   1.000  N
  N40      1.0000 0.57680  0.23941  0.09447  Biso   1.000  N
  C1       1.0000 0.42870  0.37094  0.72793  Biso   1.000  C
  C2       1.0000 0.07130  0.62906  0.22793  Biso   1.000  C
  C3       1.0000 0.92870  0.12906  0.27207  Biso   1.000  C
  C4       1.0000 0.57130  0.87094  0.77207  Biso   1.000  C
  C5       1.0000 0.57130  0.62906  0.27207  Biso   1.000  C
  C6       1.0000 0.92870  0.37094  0.77207  Biso   1.000  C
  C7       1.0000 0.07130  0.87094  0.72793  Biso   1.000  C
  C8       1.0000 0.42870  0.12906  0.22793  Biso   1.000  C
  H1       1.0000 0.46440  0.31170  0.71530  Biso   1.000  H
  H2       1.0000 0.03560  0.68830  0.21530  Biso   1.000  H
  H3       1.0000 0.96440  0.18830  0.28470  Biso   1.000  H
  H4       1.0000 0.53560  0.81170  0.78470  Biso   1.000  H
  H5       1.0000 0.53560  0.68830  0.28470  Biso   1.000  H
  H6       1.0000 0.96440  0.31170  0.78470  Biso   1.000  H
  H7       1.0000 0.03560  0.81170  0.71530  Biso   1.000  H
  H8       1.0000 0.46440  0.18830  0.21530  Biso   1.000  H
  N41      1.0000 0.28260  0.46070  0.80607  Biso   1.000  N
  N42      1.0000 0.21740  0.53930  0.30607  Biso   1.000  N
  N43      1.0000 0.78260  0.03930  0.19393  Biso   1.000  N
  N44      1.0000 0.71740  0.96070  0.69393  Biso   1.000  N
  N45      1.0000 0.71740  0.53930  0.19393  Biso   1.000  N
  N46      1.0000 0.78260  0.46070  0.69393  Biso   1.000  N
  N47      1.0000 0.21740  0.96070  0.80607  Biso   1.000  N
  N48      1.0000 0.28260  0.03930  0.30607  Biso   1.000  N
  C9       1.0000 0.45860  0.61802  0.66744  Biso   1.000  C
  C10      1.0000 0.04140  0.38198  0.16744  Biso   1.000  C
  C11      1.0000 0.95860  0.88198  0.33256  Biso   1.000  C
  C12      1.0000 0.54140  0.11802  0.83256  Biso   1.000  C
  C13      1.0000 0.54140  0.38198  0.33256  Biso   1.000  C
  C14      1.0000 0.95860  0.61802  0.83256  Biso   1.000  C
  C15      1.0000 0.04140  0.11802  0.66744  Biso   1.000  C
  C16      1.0000 0.45860  0.88198  0.16744  Biso   1.000  C
  C17      1.0000 0.59600  0.66266  0.56425  Biso   1.000  C
  C18      1.0000 0.90400  0.33734  0.06425  Biso   1.000  C
  C19      1.0000 0.09600  0.83734  0.43575  Biso   1.000  C
  C20      1.0000 0.40400  0.16266  0.93575  Biso   1.000  C
  C21      1.0000 0.40400  0.33734  0.43575  Biso   1.000  C
  C22      1.0000 0.09600  0.66266  0.93575  Biso   1.000  C
  C23      1.0000 0.90400  0.16266  0.56425  Biso   1.000  C
  C24      1.0000 0.59600  0.83734  0.06425  Biso   1.000  C
  H9       1.0000 0.64810  0.71160  0.58960  Biso   1.000  H
  H10      1.0000 0.85190  0.28840  0.08960  Biso   1.000  H
  H11      1.0000 0.14810  0.78840  0.41040  Biso   1.000  H
  H12      1.0000 0.35190  0.21160  0.91040  Biso   1.000  H
  H13      1.0000 0.35190  0.28840  0.41040  Biso   1.000  H
  H14      1.0000 0.14810  0.71160  0.91040  Biso   1.000  H
  H15      1.0000 0.85190  0.21160  0.58960  Biso   1.000  H
  H16      1.0000 0.64810  0.78840  0.08960  Biso   1.000  H
  H17      1.0000 0.51890  0.69280  0.53930  Biso   1.000  H
  H18      1.0000 0.98110  0.30720  0.03930  Biso   1.000  H
  H19      1.0000 0.01890  0.80720  0.46070  Biso   1.000  H
  H20      1.0000 0.48110  0.19280  0.96070  Biso   1.000  H
  H21      1.0000 0.48110  0.30720  0.46070  Biso   1.000  H
  H22      1.0000 0.01890  0.69280  0.96070  Biso   1.000  H
  H23      1.0000 0.98110  0.19280  0.53930  Biso   1.000  H
  H24      1.0000 0.51890  0.80720  0.03930  Biso   1.000  H
  C25      1.0000 0.68790  0.61315  0.51030  Biso   1.000  C
  C26      1.0000 0.81210  0.38685  0.01030  Biso   1.000  C
  C27      1.0000 0.18790  0.88685  0.48970  Biso   1.000  C
  C28      1.0000 0.31210  0.11315  0.98970  Biso   1.000  C
  C29      1.0000 0.31210  0.38685  0.48970  Biso   1.000  C
  C30      1.0000 0.18790  0.61315  0.98970  Biso   1.000  C
  C31      1.0000 0.81210  0.11315  0.51030  Biso   1.000  C
  C32      1.0000 0.68790  0.88685  0.01030  Biso   1.000  C
  C33      1.0000 0.75280  0.66079  0.45376  Biso   1.000  C
  C34      1.0000 0.74720  0.33921  0.95376  Biso   1.000  C
  C35      1.0000 0.25280  0.83921  0.54624  Biso   1.000  C
  C36      1.0000 0.24720  0.16079  0.04624  Biso   1.000  C
  C37      1.0000 0.24720  0.33921  0.54624  Biso   1.000  C
  C38      1.0000 0.25280  0.66079  0.04624  Biso   1.000  C
  C39      1.0000 0.74720  0.16079  0.45376  Biso   1.000  C
  C40      1.0000 0.75280  0.83921  0.95376  Biso   1.000  C
  H25      1.0000 0.73770  0.72560  0.44690  Biso   1.000  H
  H26      1.0000 0.76230  0.27440  0.94690  Biso   1.000  H
  H27      1.0000 0.23770  0.77440  0.55310  Biso   1.000  H
  H28      1.0000 0.26230  0.22560  0.05310  Biso   1.000  H
  H29      1.0000 0.26230  0.27440  0.55310  Biso   1.000  H
  H30      1.0000 0.23770  0.72560  0.05310  Biso   1.000  H
  H31      1.0000 0.76230  0.22560  0.44690  Biso   1.000  H
  H32      1.0000 0.73770  0.77440  0.94690  Biso   1.000  H
  C41      1.0000 0.32220  0.53753  0.76869  Biso   1.000  C
  C42      1.0000 0.17780  0.46247  0.26869  Biso   1.000  C
  C43      1.0000 0.82220  0.96247  0.23131  Biso   1.000  C
  C44      1.0000 0.67780  0.03753  0.73131  Biso   1.000  C
  C45      1.0000 0.67780  0.46247  0.23131  Biso   1.000  C
  C46      1.0000 0.82220  0.53753  0.73131  Biso   1.000  C
  C47      1.0000 0.17780  0.03753  0.76869  Biso   1.000  C
  C48      1.0000 0.32220  0.96247  0.26869  Biso   1.000  C
  H33      1.0000 0.28730  0.59670  0.78210  Biso   1.000  H
  H34      1.0000 0.21270  0.40330  0.28210  Biso   1.000  H
  H35      1.0000 0.78730  0.90330  0.21790  Biso   1.000  H
  H36      1.0000 0.71270  0.09670  0.71790  Biso   1.000  H
  H37      1.0000 0.71270  0.40330  0.21790  Biso   1.000  H
  H38      1.0000 0.78730  0.59670  0.71790  Biso   1.000  H
  H39      1.0000 0.21270  0.09670  0.78210  Biso   1.000  H
  H40      1.0000 0.28730  0.90330  0.28210  Biso   1.000  H
  C49      1.0000 0.33700  0.37796  0.78549  Biso   1.000  C
  C50      1.0000 0.16300  0.62204  0.28549  Biso   1.000  C
  C51      1.0000 0.83700  0.12204  0.21451  Biso   1.000  C
  C52      1.0000 0.66300  0.87796  0.71451  Biso   1.000  C
  C53      1.0000 0.66300  0.62204  0.21451  Biso   1.000  C
  C54      1.0000 0.83700  0.37796  0.71451  Biso   1.000  C
  C55      1.0000 0.16300  0.87796  0.78549  Biso   1.000  C
  C56      1.0000 0.33700  0.12204  0.28549  Biso   1.000  C
  H41      1.0000 0.31260  0.32300  0.81060  Biso   1.000  H
  H42      1.0000 0.18740  0.67700  0.31060  Biso   1.000  H
  H43      1.0000 0.81260  0.17700  0.18940  Biso   1.000  H
  H44      1.0000 0.68740  0.82300  0.68940  Biso   1.000  H
  H45      1.0000 0.68740  0.67700  0.18940  Biso   1.000  H
  H46      1.0000 0.81260  0.32300  0.68940  Biso   1.000  H
  H47      1.0000 0.18740  0.82300  0.81060  Biso   1.000  H
  H48      1.0000 0.31260  0.17700  0.31060  Biso   1.000  H
  N49      1.0000 0.52260  0.19026  0.60650  Biso   1.000  N
  N50      1.0000 0.97740  0.80974  0.10650  Biso   1.000  N
  N51      1.0000 0.02260  0.30974  0.39350  Biso   1.000  N
  N52      1.0000 0.47740  0.69026  0.89350  Biso   1.000  N
  N53      1.0000 0.47740  0.80974  0.39350  Biso   1.000  N
  N54      1.0000 0.02260  0.19026  0.89350  Biso   1.000  N
  N55      1.0000 0.97740  0.69026  0.60650  Biso   1.000  N
  N56      1.0000 0.52260  0.30974  0.10650  Biso   1.000  N
  C57      1.0000 0.41320  0.53241  0.71077  Biso   1.000  C
  C58      1.0000 0.08680  0.46759  0.21077  Biso   1.000  C
  C59      1.0000 0.91320  0.96759  0.28923  Biso   1.000  C
  C60      1.0000 0.58680  0.03241  0.78923  Biso   1.000  C
  C61      1.0000 0.58680  0.46759  0.28923  Biso   1.000  C
  C62      1.0000 0.91320  0.53241  0.78923  Biso   1.000  C
  C63      1.0000 0.08680  0.03241  0.71077  Biso   1.000  C
  C64      1.0000 0.41320  0.96759  0.21077  Biso   1.000  C
  C65      1.0000 0.85820  0.51500  0.41815  Biso   1.000  C
  C66      1.0000 0.64180  0.48500  0.91815  Biso   1.000  C
  C67      1.0000 0.35820  0.98500  0.58185  Biso   1.000  C
  C68      1.0000 0.14180  0.01500  0.08185  Biso   1.000  C
  C69      1.0000 0.14180  0.48500  0.58185  Biso   1.000  C
  C70      1.0000 0.35820  0.51500  0.08185  Biso   1.000  C
  C71      1.0000 0.64180  0.01500  0.41815  Biso   1.000  C
  C72      1.0000 0.85820  0.98500  0.91815  Biso   1.000  C
  H49      1.0000 0.91580  0.48020  0.38740  Biso   1.000  H
  H50      1.0000 0.58420  0.51980  0.88740  Biso   1.000  H
  H51      1.0000 0.41580  0.01980  0.61260  Biso   1.000  H
  H52      1.0000 0.08420  0.98020  0.11260  Biso   1.000  H
  H53      1.0000 0.08420  0.51980  0.61260  Biso   1.000  H
  H54      1.0000 0.41580  0.48020  0.11260  Biso   1.000  H
  H55      1.0000 0.58420  0.98020  0.38740  Biso   1.000  H
  H56      1.0000 0.91580  0.01980  0.88740  Biso   1.000  H
  C73      1.0000 0.79070  0.47148  0.47434  Biso   1.000  C
  C74      1.0000 0.70930  0.52852  0.97434  Biso   1.000  C
  C75      1.0000 0.29070  0.02852  0.52566  Biso   1.000  C
  C76      1.0000 0.20930  0.97148  0.02566  Biso   1.000  C
  C77      1.0000 0.20930  0.52852  0.52566  Biso   1.000  C
  C78      1.0000 0.29070  0.47148  0.02566  Biso   1.000  C
  C79      1.0000 0.70930  0.97148  0.47434  Biso   1.000  C
  C80      1.0000 0.79070  0.02852  0.97434  Biso   1.000  C
  H57      1.0000 0.80380  0.40650  0.48140  Biso   1.000  H
  H58      1.0000 0.69620  0.59350  0.98140  Biso   1.000  H
  H59      1.0000 0.30380  0.09350  0.51860  Biso   1.000  H
  H60      1.0000 0.19620  0.90650  0.01860  Biso   1.000  H
  H61      1.0000 0.19620  0.59350  0.51860  Biso   1.000  H
  H62      1.0000 0.30380  0.40650  0.01860  Biso   1.000  H
  H63      1.0000 0.69620  0.90650  0.48140  Biso   1.000  H
  H64      1.0000 0.80380  0.09350  0.98140  Biso   1.000  H
  C81      1.0000 0.83970  0.61154  0.40773  Biso   1.000  C
  C82      1.0000 0.66030  0.38846  0.90773  Biso   1.000  C
  C83      1.0000 0.33970  0.88846  0.59227  Biso   1.000  C
  C84      1.0000 0.16030  0.11154  0.09227  Biso   1.000  C
  C85      1.0000 0.16030  0.38846  0.59227  Biso   1.000  C
  C86      1.0000 0.33970  0.61154  0.09227  Biso   1.000  C
  C87      1.0000 0.66030  0.11154  0.40773  Biso   1.000  C
  C88      1.0000 0.83970  0.88846  0.90773  Biso   1.000  C
  H65      1.0000 0.88520  0.64290  0.37010  Biso   1.000  H
  H66      1.0000 0.61480  0.35710  0.87010  Biso   1.000  H
  H67      1.0000 0.38520  0.85710  0.62990  Biso   1.000  H
  H68      1.0000 0.11480  0.14290  0.12990  Biso   1.000  H
  H69      1.0000 0.11480  0.35710  0.62990  Biso   1.000  H
  H70      1.0000 0.38520  0.64290  0.12990  Biso   1.000  H
  H71      1.0000 0.61480  0.14290  0.37010  Biso   1.000  H
  H72      1.0000 0.88520  0.85710  0.87010  Biso   1.000  H
