data_image0
_cell_length_a       7.405
_cell_length_b       7.855
_cell_length_c       12.379
_cell_angle_alpha    102.512
_cell_angle_beta     95.582
_cell_angle_gamma    102.822

_symmetry_space_group_name_H-M    "P 1"
_symmetry_int_tables_number       1

loop_
  _symmetry_equiv_pos_as_xyz
  'x, y, z'

loop_
  _atom_site_label
  _atom_site_occupancy
  _atom_site_fract_x
  _atom_site_fract_y
  _atom_site_fract_z
  _atom_site_thermal_displace_type
  _atom_site_B_iso_or_equiv
  _atom_site_type_symbol
  Cu1      1.0000 0.26513  0.33341  0.26884  Biso   1.000  Cu
  Cu2      1.0000 0.73487  0.66659  0.73116  Biso   1.000  Cu
  C1       1.0000 0.26460  0.17240  0.47360  Biso   1.000  C
  C2       1.0000 0.73540  0.82760  0.52640  Biso   1.000  C
  H1       1.0000 0.27850  0.06580  0.42910  Biso   1.000  H
  H2       1.0000 0.72150  0.93420  0.57090  Biso   1.000  H
  C3       1.0000 0.25720  0.40640  0.93610  Biso   1.000  C
  C4       1.0000 0.74280  0.59360  0.06390  Biso   1.000  C
  H3       1.0000 0.26240  0.33900  0.86530  Biso   1.000  H
  H4       1.0000 0.73760  0.66100  0.13470  Biso   1.000  H
  N1       1.0000 0.41650  0.15830  0.22395  Biso   1.000  N
  N2       1.0000 0.58350  0.84170  0.77605  Biso   1.000  N
  C5       1.0000 0.53480  0.09150  0.20280  Biso   1.000  C
  C6       1.0000 0.46520  0.90850  0.79720  Biso   1.000  C
  O1       1.0000 0.23280  0.76800  0.50077  Biso   1.000  O
  O2       1.0000 0.76720  0.23200  0.49923  Biso   1.000  O
  N3       1.0000 0.26600  0.43000  0.13140  Biso   1.000  N
  N4       1.0000 0.73400  0.57000  0.86860  Biso   1.000  N
  N5       1.0000 0.26290  0.31380  0.42968  Biso   1.000  N
  N6       1.0000 0.73710  0.68620  0.57032  Biso   1.000  N
  N7       1.0000 0.23900  0.56910  0.33456  Biso   1.000  N
  N8       1.0000 0.76100  0.43090  0.66544  Biso   1.000  N
  C7       1.0000 0.83360  0.07560  0.19500  Biso   1.000  C
  C8       1.0000 0.16640  0.92440  0.80500  Biso   1.000  C
  N9       1.0000 0.99230  0.12910  0.20930  Biso   1.000  N
  N10      1.0000 0.00770  0.87090  0.79070  Biso   1.000  N
  C9       1.0000 0.24260  0.46490  0.49681  Biso   1.000  C
  C10      1.0000 0.75740  0.53510  0.50319  Biso   1.000  C
  N11      1.0000 0.22810  0.33290  0.65292  Biso   1.000  N
  N12      1.0000 0.77190  0.66710  0.34708  Biso   1.000  N
  N13      1.0000 0.65570  0.99990  0.17480  Biso   1.000  N
  N14      1.0000 0.34430  0.00010  0.82520  Biso   1.000  N
  C11      1.0000 0.27210  0.33640  0.02740  Biso   1.000  C
  C12      1.0000 0.72790  0.66360  0.97260  Biso   1.000  C
  H5       1.0000 0.28710  0.21980  0.01750  Biso   1.000  H
  H6       1.0000 0.71290  0.78020  0.98250  Biso   1.000  H
  C13      1.0000 0.23680  0.69450  0.26450  Biso   1.000  C
  C14      1.0000 0.76320  0.30550  0.73550  Biso   1.000  C
  H7       1.0000 0.34380  0.79770  0.29080  Biso   1.000  H
  H8       1.0000 0.65620  0.20230  0.70920  Biso   1.000  H
  H9       1.0000 0.12350  0.73690  0.26710  Biso   1.000  H
  H10      1.0000 0.87650  0.26310  0.73290  Biso   1.000  H
  C15      1.0000 0.22830  0.67660  0.05660  Biso   1.000  C
  C16      1.0000 0.77170  0.32340  0.94340  Biso   1.000  C
  H11      1.0000 0.21360  0.79340  0.06790  Biso   1.000  H
  H12      1.0000 0.78640  0.20660  0.93210  Biso   1.000  H
  C17      1.0000 0.24590  0.18440  0.58500  Biso   1.000  C
  C18      1.0000 0.75410  0.81560  0.41500  Biso   1.000  C
  H13      1.0000 0.24580  0.08390  0.61320  Biso   1.000  H
  H14      1.0000 0.75420  0.91610  0.38680  Biso   1.000  H
  C19      1.0000 0.24450  0.59790  0.14640  Biso   1.000  C
  C20      1.0000 0.75550  0.40210  0.85360  Biso   1.000  C
  C21      1.0000 0.23770  0.61960  0.44340  Biso   1.000  C
  C22      1.0000 0.76230  0.38040  0.55660  Biso   1.000  C
  C23      1.0000 0.22570  0.47220  0.60790  Biso   1.000  C
  C24      1.0000 0.77430  0.52780  0.39210  Biso   1.000  C
  H15      1.0000 0.21210  0.57850  0.65300  Biso   1.000  H
  H16      1.0000 0.78790  0.42150  0.34700  Biso   1.000  H
  C25      1.0000 0.23440  0.57900  0.95090  Biso   1.000  C
  C26      1.0000 0.76560  0.42100  0.04910  Biso   1.000  C
  H17      1.0000 0.22310  0.62920  0.88980  Biso   1.000  H
  H18      1.0000 0.77690  0.37080  0.11020  Biso   1.000  H
