data_image0
_cell_length_a       18.2592
_cell_length_b       12.6726
_cell_length_c       12.0365
_cell_angle_alpha    90
_cell_angle_beta     90
_cell_angle_gamma    90

_symmetry_space_group_name_H-M    "P 1"
_symmetry_int_tables_number       1

loop_
  _symmetry_equiv_pos_as_xyz
  'x, y, z'

loop_
  _atom_site_label
  _atom_site_occupancy
  _atom_site_fract_x
  _atom_site_fract_y
  _atom_site_fract_z
  _atom_site_thermal_displace_type
  _atom_site_B_iso_or_equiv
  _atom_site_type_symbol
  N1       1.0000 0.19483  0.77580  0.94670  Biso   1.000  N
  N2       1.0000 0.80517  0.22420  0.44670  Biso   1.000  N
  N3       1.0000 0.30517  0.27580  0.44670  Biso   1.000  N
  N4       1.0000 0.69483  0.72420  0.94670  Biso   1.000  N
  C1       1.0000 0.13920  0.74970  0.01270  Biso   1.000  C
  C2       1.0000 0.86080  0.25030  0.51270  Biso   1.000  C
  C3       1.0000 0.36080  0.24970  0.51270  Biso   1.000  C
  C4       1.0000 0.63920  0.75030  0.01270  Biso   1.000  C
  H1       1.0000 0.10180  0.70320  0.99380  Biso   1.000  H
  H2       1.0000 0.89820  0.29680  0.49380  Biso   1.000  H
  H3       1.0000 0.39820  0.20320  0.49380  Biso   1.000  H
  H4       1.0000 0.60180  0.79680  0.99380  Biso   1.000  H
  C5       1.0000 0.23390  0.84470  0.00980  Biso   1.000  C
  C6       1.0000 0.76610  0.15530  0.50980  Biso   1.000  C
  C7       1.0000 0.26610  0.34470  0.50980  Biso   1.000  C
  C8       1.0000 0.73390  0.65530  0.00980  Biso   1.000  C
  H5       1.0000 0.27670  0.87670  0.98500  Biso   1.000  H
  H6       1.0000 0.72330  0.12330  0.48500  Biso   1.000  H
  H7       1.0000 0.22330  0.37670  0.48500  Biso   1.000  H
  H8       1.0000 0.77670  0.62330  0.98500  Biso   1.000  H
  N5       1.0000 0.20607  0.86230  0.10870  Biso   1.000  N
  N6       1.0000 0.79393  0.13770  0.60870  Biso   1.000  N
  N7       1.0000 0.29393  0.36230  0.60870  Biso   1.000  N
  N8       1.0000 0.70607  0.63770  0.10870  Biso   1.000  N
  N9       1.0000 0.14460  0.79910  0.10860  Biso   1.000  N
  N10      1.0000 0.85540  0.20090  0.60860  Biso   1.000  N
  N11      1.0000 0.35540  0.29910  0.60860  Biso   1.000  N
  N12      1.0000 0.64460  0.70090  0.10860  Biso   1.000  N
  C9       1.0000 0.09110  0.80400  0.19820  Biso   1.000  C
  C10      1.0000 0.90890  0.19600  0.69820  Biso   1.000  C
  C11      1.0000 0.40890  0.30400  0.69820  Biso   1.000  C
  C12      1.0000 0.59110  0.69600  0.19820  Biso   1.000  C
  H9       1.0000 0.05510  0.74870  0.18710  Biso   1.000  H
  H10      1.0000 0.94490  0.25130  0.68710  Biso   1.000  H
  H11      1.0000 0.44490  0.24870  0.68710  Biso   1.000  H
  H12      1.0000 0.55510  0.75130  0.18710  Biso   1.000  H
  H13      1.0000 0.06570  0.87110  0.19410  Biso   1.000  H
  H14      1.0000 0.93430  0.12890  0.69410  Biso   1.000  H
  H15      1.0000 0.43430  0.37110  0.69410  Biso   1.000  H
  H16      1.0000 0.56570  0.62890  0.19410  Biso   1.000  H
  C13      1.0000 0.12330  0.79240  0.31160  Biso   1.000  C
  C14      1.0000 0.87670  0.20760  0.81160  Biso   1.000  C
  C15      1.0000 0.37670  0.29240  0.81160  Biso   1.000  C
  C16      1.0000 0.62330  0.70760  0.31160  Biso   1.000  C
  H17      1.0000 0.08610  0.80950  0.36630  Biso   1.000  H
  H18      1.0000 0.91390  0.19050  0.86630  Biso   1.000  H
  H19      1.0000 0.41390  0.30950  0.86630  Biso   1.000  H
  H20      1.0000 0.58610  0.69050  0.36630  Biso   1.000  H
  H21      1.0000 0.16280  0.84290  0.31990  Biso   1.000  H
  H22      1.0000 0.83720  0.15710  0.81990  Biso   1.000  H
  H23      1.0000 0.33720  0.34290  0.81990  Biso   1.000  H
  H24      1.0000 0.66280  0.65710  0.31990  Biso   1.000  H
  N13      1.0000 0.19130  0.58620  0.82080  Biso   1.000  N
  N14      1.0000 0.80870  0.41380  0.32080  Biso   1.000  N
  N15      1.0000 0.30870  0.08620  0.32080  Biso   1.000  N
  N16      1.0000 0.69130  0.91380  0.82080  Biso   1.000  N
  C17      1.0000 0.22100  0.52660  0.90410  Biso   1.000  C
  C18      1.0000 0.77900  0.47340  0.40410  Biso   1.000  C
  C19      1.0000 0.27900  0.02660  0.40410  Biso   1.000  C
  C20      1.0000 0.72100  0.97340  0.90410  Biso   1.000  C
  H25      1.0000 0.25590  0.55220  0.95340  Biso   1.000  H
  H26      1.0000 0.74410  0.44780  0.45340  Biso   1.000  H
  H27      1.0000 0.24410  0.05220  0.45340  Biso   1.000  H
  H28      1.0000 0.75590  0.94780  0.95340  Biso   1.000  H
  C21      1.0000 0.14480  0.52060  0.77210  Biso   1.000  C
  C22      1.0000 0.85520  0.47940  0.27210  Biso   1.000  C
  C23      1.0000 0.35520  0.02060  0.27210  Biso   1.000  C
  C24      1.0000 0.64480  0.97940  0.77210  Biso   1.000  C
  H29      1.0000 0.11540  0.53720  0.71150  Biso   1.000  H
  H30      1.0000 0.88460  0.46280  0.21150  Biso   1.000  H
  H31      1.0000 0.38460  0.03720  0.21150  Biso   1.000  H
  H32      1.0000 0.61540  0.96280  0.71150  Biso   1.000  H
  N17      1.0000 0.19550  0.42970  0.90790  Biso   1.000  N
  N18      1.0000 0.80450  0.57030  0.40790  Biso   1.000  N
  N19      1.0000 0.30450  0.92970  0.40790  Biso   1.000  N
  N20      1.0000 0.69550  0.07030  0.90790  Biso   1.000  N
  N21      1.0000 0.14653  0.42820  0.82260  Biso   1.000  N
  N22      1.0000 0.85347  0.57180  0.32260  Biso   1.000  N
  N23      1.0000 0.35347  0.92820  0.32260  Biso   1.000  N
  N24      1.0000 0.64653  0.07180  0.82260  Biso   1.000  N
  C25      1.0000 0.10370  0.33320  0.79980  Biso   1.000  C
  C26      1.0000 0.89630  0.66680  0.29980  Biso   1.000  C
  C27      1.0000 0.39630  0.83320  0.29980  Biso   1.000  C
  C28      1.0000 0.60370  0.16680  0.79980  Biso   1.000  C
  H33      1.0000 0.07280  0.34510  0.73550  Biso   1.000  H
  H34      1.0000 0.92720  0.65490  0.23550  Biso   1.000  H
  H35      1.0000 0.42720  0.84510  0.23550  Biso   1.000  H
  H36      1.0000 0.57280  0.15490  0.73550  Biso   1.000  H
  H37      1.0000 0.07220  0.31810  0.86280  Biso   1.000  H
  H38      1.0000 0.92780  0.68190  0.36280  Biso   1.000  H
  H39      1.0000 0.42780  0.81810  0.36280  Biso   1.000  H
  H40      1.0000 0.57220  0.18190  0.86280  Biso   1.000  H
  C29      1.0000 0.15340  0.23930  0.77830  Biso   1.000  C
  C30      1.0000 0.84660  0.76070  0.27830  Biso   1.000  C
  C31      1.0000 0.34660  0.73930  0.27830  Biso   1.000  C
  C32      1.0000 0.65340  0.26070  0.77830  Biso   1.000  C
  H41      1.0000 0.17920  0.22110  0.84600  Biso   1.000  H
  H42      1.0000 0.82080  0.77890  0.34600  Biso   1.000  H
  H43      1.0000 0.32080  0.72110  0.34600  Biso   1.000  H
  H44      1.0000 0.67920  0.27890  0.84600  Biso   1.000  H
  H45      1.0000 0.18940  0.25790  0.72230  Biso   1.000  H
  H46      1.0000 0.81060  0.74210  0.22230  Biso   1.000  H
  H47      1.0000 0.31060  0.75790  0.22230  Biso   1.000  H
  H48      1.0000 0.68940  0.24210  0.72230  Biso   1.000  H
  Cu1      1.0000 0.20698  0.73858  0.78428  Biso   1.000  Cu
  Cu2      1.0000 0.79302  0.26142  0.28428  Biso   1.000  Cu
  Cu3      1.0000 0.29302  0.23858  0.28428  Biso   1.000  Cu
  Cu4      1.0000 0.70698  0.76142  0.78428  Biso   1.000  Cu
  C33      1.0000 0.23720  0.95080  0.66990  Biso   1.000  C
  C34      1.0000 0.76280  0.04920  0.16990  Biso   1.000  C
  C35      1.0000 0.26280  0.45080  0.16990  Biso   1.000  C
  C36      1.0000 0.73720  0.54920  0.66990  Biso   1.000  C
  H49      1.0000 0.27730  0.92450  0.63130  Biso   1.000  H
  H50      1.0000 0.72270  0.07550  0.13130  Biso   1.000  H
  H51      1.0000 0.22270  0.42450  0.13130  Biso   1.000  H
  H52      1.0000 0.77730  0.57550  0.63130  Biso   1.000  H
  C37      1.0000 0.14670  0.95900  0.77900  Biso   1.000  C
  C38      1.0000 0.85330  0.04100  0.27900  Biso   1.000  C
  C39      1.0000 0.35330  0.45900  0.27900  Biso   1.000  C
  C40      1.0000 0.64670  0.54100  0.77900  Biso   1.000  C
  H53      1.0000 0.11050  0.94330  0.83070  Biso   1.000  H
  H54      1.0000 0.88950  0.05670  0.33070  Biso   1.000  H
  H55      1.0000 0.38950  0.44330  0.33070  Biso   1.000  H
  H56      1.0000 0.61050  0.55670  0.83070  Biso   1.000  H
  C41      1.0000 0.10900  0.14490  0.73870  Biso   1.000  C
  C42      1.0000 0.89100  0.85510  0.23870  Biso   1.000  C
  C43      1.0000 0.39100  0.64490  0.23870  Biso   1.000  C
  C44      1.0000 0.60900  0.35510  0.73870  Biso   1.000  C
  H57      1.0000 0.06930  0.13160  0.79050  Biso   1.000  H
  H58      1.0000 0.93070  0.86840  0.29050  Biso   1.000  H
  H59      1.0000 0.43070  0.63160  0.29050  Biso   1.000  H
  H60      1.0000 0.56930  0.36840  0.79050  Biso   1.000  H
  H61      1.0000 0.08760  0.16060  0.66680  Biso   1.000  H
  H62      1.0000 0.91240  0.83940  0.16680  Biso   1.000  H
  H63      1.0000 0.41240  0.66060  0.16680  Biso   1.000  H
  H64      1.0000 0.58760  0.33940  0.66680  Biso   1.000  H
  C45      1.0000 0.16970  0.73050  0.54010  Biso   1.000  C
  C46      1.0000 0.83030  0.26950  0.04010  Biso   1.000  C
  C47      1.0000 0.33030  0.23050  0.04010  Biso   1.000  C
  C48      1.0000 0.66970  0.76950  0.54010  Biso   1.000  C
  H65      1.0000 0.13430  0.78310  0.54540  Biso   1.000  H
  H66      1.0000 0.86570  0.21690  0.04540  Biso   1.000  H
  H67      1.0000 0.36570  0.28310  0.04540  Biso   1.000  H
  H68      1.0000 0.63430  0.71690  0.54540  Biso   1.000  H
  C49      1.0000 0.25390  0.62300  0.57440  Biso   1.000  C
  C50      1.0000 0.74610  0.37700  0.07440  Biso   1.000  C
  C51      1.0000 0.24610  0.12300  0.07440  Biso   1.000  C
  C52      1.0000 0.75390  0.87700  0.57440  Biso   1.000  C
  H69      1.0000 0.28970  0.58630  0.61360  Biso   1.000  H
  H70      1.0000 0.71030  0.41370  0.11360  Biso   1.000  H
  H71      1.0000 0.21030  0.08630  0.11360  Biso   1.000  H
  H72      1.0000 0.78970  0.91370  0.61360  Biso   1.000  H
  C53      1.0000 0.15290  0.68180  0.33590  Biso   1.000  C
  C54      1.0000 0.84710  0.31820  0.83590  Biso   1.000  C
  C55      1.0000 0.34710  0.18180  0.83590  Biso   1.000  C
  C56      1.0000 0.65290  0.81820  0.33590  Biso   1.000  C
  H73      1.0000 0.11320  0.63110  0.33110  Biso   1.000  H
  H74      1.0000 0.88680  0.36890  0.83110  Biso   1.000  H
  H75      1.0000 0.38680  0.13110  0.83110  Biso   1.000  H
  H76      1.0000 0.61320  0.86890  0.33110  Biso   1.000  H
  H77      1.0000 0.18930  0.66330  0.28060  Biso   1.000  H
  H78      1.0000 0.81070  0.33670  0.78060  Biso   1.000  H
  H79      1.0000 0.31070  0.16330  0.78060  Biso   1.000  H
  H80      1.0000 0.68930  0.83670  0.28060  Biso   1.000  H
  Cl1      1.0000 0.02461  0.46812  0.49941  Biso   1.000  Cl
  Cl2      1.0000 0.97539  0.53188  0.99941  Biso   1.000  Cl
  Cl3      1.0000 0.47539  0.96812  0.99941  Biso   1.000  Cl
  Cl4      1.0000 0.52461  0.03188  0.49941  Biso   1.000  Cl
  Cl5      1.0000 0.01369  0.07004  0.05035  Biso   1.000  Cl
  Cl6      1.0000 0.98631  0.92996  0.55035  Biso   1.000  Cl
  Cl7      1.0000 0.48631  0.57004  0.55035  Biso   1.000  Cl
  Cl8      1.0000 0.51369  0.42996  0.05035  Biso   1.000  Cl
  N25      1.0000 0.19769  0.89160  0.74420  Biso   1.000  N
  N26      1.0000 0.80231  0.10840  0.24420  Biso   1.000  N
  N27      1.0000 0.30231  0.39160  0.24420  Biso   1.000  N
  N28      1.0000 0.69769  0.60840  0.74420  Biso   1.000  N
  N29      1.0000 0.21361  0.04720  0.65830  Biso   1.000  N
  N30      1.0000 0.78639  0.95280  0.15830  Biso   1.000  N
  N31      1.0000 0.28639  0.54720  0.15830  Biso   1.000  N
  N32      1.0000 0.71361  0.45280  0.65830  Biso   1.000  N
  N33      1.0000 0.15502  0.05050  0.72990  Biso   1.000  N
  N34      1.0000 0.84498  0.94950  0.22990  Biso   1.000  N
  N35      1.0000 0.34498  0.55050  0.22990  Biso   1.000  N
  N36      1.0000 0.65502  0.44950  0.72990  Biso   1.000  N
  N37      1.0000 0.21084  0.69800  0.62200  Biso   1.000  N
  N38      1.0000 0.78916  0.30200  0.12200  Biso   1.000  N
  N39      1.0000 0.28916  0.19800  0.12200  Biso   1.000  N
  N40      1.0000 0.71084  0.80200  0.62200  Biso   1.000  N
  N41      1.0000 0.24070  0.60690  0.46840  Biso   1.000  N
  N42      1.0000 0.75930  0.39310  0.96840  Biso   1.000  N
  N43      1.0000 0.25930  0.10690  0.96840  Biso   1.000  N
  N44      1.0000 0.74070  0.89310  0.46840  Biso   1.000  N
  N45      1.0000 0.18592  0.67700  0.44720  Biso   1.000  N
  N46      1.0000 0.81408  0.32300  0.94720  Biso   1.000  N
  N47      1.0000 0.31408  0.17700  0.94720  Biso   1.000  N
  N48      1.0000 0.68592  0.82300  0.44720  Biso   1.000  N
  O1       1.0000 0.05350  0.74810  0.77610  Biso   1.000  O
  O2       1.0000 0.94650  0.25190  0.27610  Biso   1.000  O
  O3       1.0000 0.44650  0.24810  0.27610  Biso   1.000  O
  O4       1.0000 0.55350  0.75190  0.77610  Biso   1.000  O
  H81      1.0000 0.03010  0.79210  0.73680  Biso   1.000  H
  H82      1.0000 0.96990  0.20790  0.23680  Biso   1.000  H
  H83      1.0000 0.46990  0.29210  0.23680  Biso   1.000  H
  H84      1.0000 0.53010  0.70790  0.73680  Biso   1.000  H
  H85      1.0000 0.03260  0.68820  0.78250  Biso   1.000  H
  H86      1.0000 0.96740  0.31180  0.28250  Biso   1.000  H
  H87      1.0000 0.46740  0.18820  0.28250  Biso   1.000  H
  H88      1.0000 0.53260  0.81180  0.78250  Biso   1.000  H
  O5       1.0000 0.32802  0.74010  0.80160  Biso   1.000  O
  O6       1.0000 0.67198  0.25990  0.30160  Biso   1.000  O
  O7       1.0000 0.17198  0.24010  0.30160  Biso   1.000  O
  O8       1.0000 0.82802  0.75990  0.80160  Biso   1.000  O
  H89      1.0000 0.34460  0.71290  0.86080  Biso   1.000  H
  H90      1.0000 0.65540  0.28710  0.36080  Biso   1.000  H
  H91      1.0000 0.15540  0.21290  0.36080  Biso   1.000  H
  H92      1.0000 0.84460  0.78710  0.86080  Biso   1.000  H
  H93      1.0000 0.36010  0.75350  0.75260  Biso   1.000  H
  H94      1.0000 0.63990  0.24650  0.25260  Biso   1.000  H
  H95      1.0000 0.13990  0.25350  0.25260  Biso   1.000  H
  H96      1.0000 0.86010  0.74650  0.75260  Biso   1.000  H
  O9       1.0000 0.98100  0.44290  0.59450  Biso   1.000  O
  O10      1.0000 0.01900  0.55710  0.09450  Biso   1.000  O
  O11      1.0000 0.51900  0.94290  0.09450  Biso   1.000  O
  O12      1.0000 0.48100  0.05710  0.59450  Biso   1.000  O
  O13      1.0000 0.02240  0.58720  0.49410  Biso   1.000  O
  O14      1.0000 0.97760  0.41280  0.99410  Biso   1.000  O
  O15      1.0000 0.47760  0.08720  0.99410  Biso   1.000  O
  O16      1.0000 0.52240  0.91280  0.49410  Biso   1.000  O
  O17      1.0000 0.99610  0.42910  0.40290  Biso   1.000  O
  O18      1.0000 0.00390  0.57090  0.90290  Biso   1.000  O
  O19      1.0000 0.50390  0.92910  0.90290  Biso   1.000  O
  O20      1.0000 0.49610  0.07090  0.40290  Biso   1.000  O
  O21      1.0000 0.09920  0.44620  0.51890  Biso   1.000  O
  O22      1.0000 0.90080  0.55380  0.01890  Biso   1.000  O
  O23      1.0000 0.40080  0.94620  0.01890  Biso   1.000  O
  O24      1.0000 0.59920  0.05380  0.51890  Biso   1.000  O
  O25      1.0000 0.02510  0.07250  0.16870  Biso   1.000  O
  O26      1.0000 0.97490  0.92750  0.66870  Biso   1.000  O
  O27      1.0000 0.47490  0.57250  0.66870  Biso   1.000  O
  O28      1.0000 0.52510  0.42750  0.16870  Biso   1.000  O
  O29      1.0000 0.93680  0.05230  0.03760  Biso   1.000  O
  O30      1.0000 0.06320  0.94770  0.53760  Biso   1.000  O
  O31      1.0000 0.56320  0.55230  0.53760  Biso   1.000  O
  O32      1.0000 0.43680  0.44770  0.03760  Biso   1.000  O
  O33      1.0000 0.05360  0.98770  0.00550  Biso   1.000  O
  O34      1.0000 0.94640  0.01230  0.50550  Biso   1.000  O
  O35      1.0000 0.44640  0.48770  0.50550  Biso   1.000  O
  O36      1.0000 0.55360  0.51230  0.00550  Biso   1.000  O
  O37      1.0000 0.03330  0.16810  0.00120  Biso   1.000  O
  O38      1.0000 0.96670  0.83190  0.50120  Biso   1.000  O
  O39      1.0000 0.46670  0.66810  0.50120  Biso   1.000  O
  O40      1.0000 0.53330  0.33190  0.00120  Biso   1.000  O
  O41      1.0000 0.41110  0.83650  0.64310  Biso   1.000  O
  O42      1.0000 0.58890  0.16350  0.14310  Biso   1.000  O
  O43      1.0000 0.08890  0.33650  0.14310  Biso   1.000  O
  O44      1.0000 0.91110  0.66350  0.64310  Biso   1.000  O
  H97      1.0000 0.43310  0.85010  0.58220  Biso   1.000  H
  H98      1.0000 0.56690  0.14990  0.08220  Biso   1.000  H
  H99      1.0000 0.06690  0.35010  0.08220  Biso   1.000  H
  H100     1.0000 0.93310  0.64990  0.58220  Biso   1.000  H
  H101     1.0000 0.43810  0.84420  0.69990  Biso   1.000  H
  H102     1.0000 0.56190  0.15580  0.19990  Biso   1.000  H
  H103     1.0000 0.06190  0.34420  0.19990  Biso   1.000  H
  H104     1.0000 0.93810  0.65580  0.69990  Biso   1.000  H
  O45      1.0000 0.42140  0.67490  0.96220  Biso   1.000  O
  O46      1.0000 0.57860  0.32510  0.46220  Biso   1.000  O
  O47      1.0000 0.07860  0.17490  0.46220  Biso   1.000  O
  O48      1.0000 0.92140  0.82510  0.96220  Biso   1.000  O
  H105     1.0000 0.45920  0.71190  0.94980  Biso   1.000  H
  H106     1.0000 0.54080  0.28810  0.44980  Biso   1.000  H
  H107     1.0000 0.04080  0.21190  0.44980  Biso   1.000  H
  H108     1.0000 0.95920  0.78810  0.94980  Biso   1.000  H
  H109     1.0000 0.41230  0.62980  0.91210  Biso   1.000  H
  H110     1.0000 0.58770  0.37020  0.41210  Biso   1.000  H
  H111     1.0000 0.08770  0.12980  0.41210  Biso   1.000  H
  H112     1.0000 0.91230  0.87020  0.91210  Biso   1.000  H
  O49      1.0000 0.94830  0.47290  0.53690  Biso   1.000  O
  O50      1.0000 0.05170  0.52710  0.03690  Biso   1.000  O
  O51      1.0000 0.55170  0.97290  0.03690  Biso   1.000  O
  O52      1.0000 0.44830  0.02710  0.53690  Biso   1.000  O
  O53      1.0000 0.06240  0.55370  0.53610  Biso   1.000  O
  O54      1.0000 0.93760  0.44630  0.03610  Biso   1.000  O
  O55      1.0000 0.43760  0.05370  0.03610  Biso   1.000  O
  O56      1.0000 0.56240  0.94630  0.53610  Biso   1.000  O
  O57      1.0000 0.01990  0.46500  0.37820  Biso   1.000  O
  O58      1.0000 0.98010  0.53500  0.87820  Biso   1.000  O
  O59      1.0000 0.48010  0.96500  0.87820  Biso   1.000  O
  O60      1.0000 0.51990  0.03500  0.37820  Biso   1.000  O
  O61      1.0000 0.05300  0.36940  0.53540  Biso   1.000  O
  O62      1.0000 0.94700  0.63060  0.03540  Biso   1.000  O
  O63      1.0000 0.44700  0.86940  0.03540  Biso   1.000  O
  O64      1.0000 0.55300  0.13060  0.53540  Biso   1.000  O
