data_image0
_cell_length_a       9.1844
_cell_length_b       13.1362
_cell_length_c       8.2785
_cell_angle_alpha    90
_cell_angle_beta     95.885
_cell_angle_gamma    90

_symmetry_space_group_name_H-M    "P 1"
_symmetry_int_tables_number       1

loop_
  _symmetry_equiv_pos_as_xyz
  'x, y, z'

loop_
  _atom_site_label
  _atom_site_occupancy
  _atom_site_fract_x
  _atom_site_fract_y
  _atom_site_fract_z
  _atom_site_thermal_displace_type
  _atom_site_B_iso_or_equiv
  _atom_site_type_symbol
  Cu1      1.0000 0.00000  0.00000  0.50000  Biso   1.000  Cu
  Cu2      1.0000 0.50000  0.50000  0.50000  Biso   1.000  Cu
  C1       1.0000 0.19250  0.12990  0.30350  Biso   1.000  C
  C2       1.0000 0.80750  0.12990  0.69650  Biso   1.000  C
  C3       1.0000 0.69250  0.62990  0.30350  Biso   1.000  C
  C4       1.0000 0.30750  0.62990  0.69650  Biso   1.000  C
  C5       1.0000 0.80750  0.87010  0.69650  Biso   1.000  C
  C6       1.0000 0.19250  0.87010  0.30350  Biso   1.000  C
  C7       1.0000 0.30750  0.37010  0.69650  Biso   1.000  C
  C8       1.0000 0.69250  0.37010  0.30350  Biso   1.000  C
  H1       1.0000 0.27810  0.10440  0.35870  Biso   1.000  H
  H2       1.0000 0.72190  0.10440  0.64130  Biso   1.000  H
  H3       1.0000 0.77810  0.60440  0.35870  Biso   1.000  H
  H4       1.0000 0.22190  0.60440  0.64130  Biso   1.000  H
  H5       1.0000 0.72190  0.89560  0.64130  Biso   1.000  H
  H6       1.0000 0.27810  0.89560  0.35870  Biso   1.000  H
  H7       1.0000 0.22190  0.39560  0.64130  Biso   1.000  H
  H8       1.0000 0.77810  0.39560  0.35870  Biso   1.000  H
  C9       1.0000 0.96990  0.15680  0.23590  Biso   1.000  C
  C10      1.0000 0.03010  0.15680  0.76410  Biso   1.000  C
  C11      1.0000 0.46990  0.65680  0.23590  Biso   1.000  C
  C12      1.0000 0.53010  0.65680  0.76410  Biso   1.000  C
  C13      1.0000 0.03010  0.84320  0.76410  Biso   1.000  C
  C14      1.0000 0.96990  0.84320  0.23590  Biso   1.000  C
  C15      1.0000 0.53010  0.34320  0.76410  Biso   1.000  C
  C16      1.0000 0.46990  0.34320  0.23590  Biso   1.000  C
  H9       1.0000 0.86820  0.15580  0.22850  Biso   1.000  H
  H10      1.0000 0.13180  0.15580  0.77150  Biso   1.000  H
  H11      1.0000 0.36820  0.65580  0.22850  Biso   1.000  H
  H12      1.0000 0.63180  0.65580  0.77150  Biso   1.000  H
  H13      1.0000 0.13180  0.84420  0.77150  Biso   1.000  H
  H14      1.0000 0.86820  0.84420  0.22850  Biso   1.000  H
  H15      1.0000 0.63180  0.34420  0.77150  Biso   1.000  H
  H16      1.0000 0.36820  0.34420  0.22850  Biso   1.000  H
  C17      1.0000 0.00000  0.27250  0.00000  Biso   1.000  C
  C18      1.0000 0.50000  0.77250  0.00000  Biso   1.000  C
  C19      1.0000 0.00000  0.72750  0.00000  Biso   1.000  C
  C20      1.0000 0.50000  0.22750  0.00000  Biso   1.000  C
  H17      1.0000 0.91990  0.31590  0.02530  Biso   1.000  H
  H18      1.0000 0.08010  0.31590  0.97470  Biso   1.000  H
  H19      1.0000 0.41990  0.81590  0.02530  Biso   1.000  H
  H20      1.0000 0.58010  0.81590  0.97470  Biso   1.000  H
  H21      1.0000 0.08010  0.68410  0.97470  Biso   1.000  H
  H22      1.0000 0.91990  0.68410  0.02530  Biso   1.000  H
  H23      1.0000 0.58010  0.18410  0.97470  Biso   1.000  H
  H24      1.0000 0.41990  0.18410  0.02530  Biso   1.000  H
  N1       1.0000 0.05650  0.10560  0.34430  Biso   1.000  N
  N2       1.0000 0.94350  0.10560  0.65570  Biso   1.000  N
  N3       1.0000 0.55650  0.60560  0.34430  Biso   1.000  N
  N4       1.0000 0.44350  0.60560  0.65570  Biso   1.000  N
  N5       1.0000 0.94350  0.89440  0.65570  Biso   1.000  N
  N6       1.0000 0.05650  0.89440  0.34430  Biso   1.000  N
  N7       1.0000 0.44350  0.39440  0.65570  Biso   1.000  N
  N8       1.0000 0.55650  0.39440  0.34430  Biso   1.000  N
  N9       1.0000 0.04730  0.20940  0.13950  Biso   1.000  N
  N10      1.0000 0.95270  0.20940  0.86050  Biso   1.000  N
  N11      1.0000 0.54730  0.70940  0.13950  Biso   1.000  N
  N12      1.0000 0.45270  0.70940  0.86050  Biso   1.000  N
  N13      1.0000 0.95270  0.79060  0.86050  Biso   1.000  N
  N14      1.0000 0.04730  0.79060  0.13950  Biso   1.000  N
  N15      1.0000 0.45270  0.29060  0.86050  Biso   1.000  N
  N16      1.0000 0.54730  0.29060  0.13950  Biso   1.000  N
  N17      1.0000 0.19190  0.19220  0.17960  Biso   1.000  N
  N18      1.0000 0.80810  0.19220  0.82040  Biso   1.000  N
  N19      1.0000 0.69190  0.69220  0.17960  Biso   1.000  N
  N20      1.0000 0.30810  0.69220  0.82040  Biso   1.000  N
  N21      1.0000 0.80810  0.80780  0.82040  Biso   1.000  N
  N22      1.0000 0.19190  0.80780  0.17960  Biso   1.000  N
  N23      1.0000 0.30810  0.30780  0.82040  Biso   1.000  N
  N24      1.0000 0.69190  0.30780  0.17960  Biso   1.000  N
  Cl1      1.0000 0.62922  0.00000  0.27177  Biso   1.000  Cl
  Cl2      1.0000 0.37078  0.00000  0.72823  Biso   1.000  Cl
  Cl3      1.0000 0.12922  0.50000  0.27177  Biso   1.000  Cl
  Cl4      1.0000 0.87078  0.50000  0.72823  Biso   1.000  Cl
  O1       1.0000 0.68170  0.00000  0.11490  Biso   1.000  O
  O2       1.0000 0.31830  0.00000  0.88510  Biso   1.000  O
  O3       1.0000 0.18170  0.50000  0.11490  Biso   1.000  O
  O4       1.0000 0.81830  0.50000  0.88510  Biso   1.000  O
  O5       1.0000 0.50960  0.06460  0.28280  Biso   1.000  O
  O6       1.0000 0.49040  0.06460  0.71720  Biso   1.000  O
  O7       1.0000 0.00960  0.56460  0.28280  Biso   1.000  O
  O8       1.0000 0.99040  0.56460  0.71720  Biso   1.000  O
  O9       1.0000 0.49040  0.93540  0.71720  Biso   1.000  O
  O10      1.0000 0.50960  0.93540  0.28280  Biso   1.000  O
  O11      1.0000 0.99040  0.43540  0.71720  Biso   1.000  O
  O12      1.0000 0.00960  0.43540  0.28280  Biso   1.000  O
  O13      1.0000 0.74470  0.03640  0.39080  Biso   1.000  O
  O14      1.0000 0.25530  0.03640  0.60920  Biso   1.000  O
  O15      1.0000 0.24470  0.53640  0.39080  Biso   1.000  O
  O16      1.0000 0.75530  0.53640  0.60920  Biso   1.000  O
  O17      1.0000 0.25530  0.96360  0.60920  Biso   1.000  O
  O18      1.0000 0.74470  0.96360  0.39080  Biso   1.000  O
  O19      1.0000 0.75530  0.46360  0.60920  Biso   1.000  O
  O20      1.0000 0.24470  0.46360  0.39080  Biso   1.000  O
  O21      1.0000 0.58720  0.10670  0.30490  Biso   1.000  O
  O22      1.0000 0.41280  0.10670  0.69510  Biso   1.000  O
  O23      1.0000 0.08720  0.60670  0.30490  Biso   1.000  O
  O24      1.0000 0.91280  0.60670  0.69510  Biso   1.000  O
  O25      1.0000 0.41280  0.89330  0.69510  Biso   1.000  O
  O26      1.0000 0.58720  0.89330  0.30490  Biso   1.000  O
  O27      1.0000 0.91280  0.39330  0.69510  Biso   1.000  O
  O28      1.0000 0.08720  0.39330  0.30490  Biso   1.000  O
  O29      1.0000 0.74710  0.98700  0.39730  Biso   1.000  O
  O30      1.0000 0.25290  0.98700  0.60270  Biso   1.000  O
  O31      1.0000 0.24710  0.48700  0.39730  Biso   1.000  O
  O32      1.0000 0.75290  0.48700  0.60270  Biso   1.000  O
  O33      1.0000 0.25290  0.01300  0.60270  Biso   1.000  O
  O34      1.0000 0.74710  0.01300  0.39730  Biso   1.000  O
  O35      1.0000 0.75290  0.51300  0.60270  Biso   1.000  O
  O36      1.0000 0.24710  0.51300  0.39730  Biso   1.000  O
