data_image0
_cell_length_a       14.198
_cell_length_b       21.2033
_cell_length_c       8.7574
_cell_angle_alpha    90
_cell_angle_beta     90
_cell_angle_gamma    90

_symmetry_space_group_name_H-M    "P 1"
_symmetry_int_tables_number       1

loop_
  _symmetry_equiv_pos_as_xyz
  'x, y, z'

loop_
  _atom_site_label
  _atom_site_occupancy
  _atom_site_fract_x
  _atom_site_fract_y
  _atom_site_fract_z
  _atom_site_thermal_displace_type
  _atom_site_B_iso_or_equiv
  _atom_site_type_symbol
  Cu1      1.0000 0.05777  0.25000  0.25000  Biso   1.000  Cu
  Cu2      1.0000 0.44223  0.75000  0.25000  Biso   1.000  Cu
  Cu3      1.0000 0.94223  0.75000  0.75000  Biso   1.000  Cu
  Cu4      1.0000 0.55777  0.25000  0.75000  Biso   1.000  Cu
  N1       1.0000 0.05650  0.32781  0.12130  Biso   1.000  N
  N2       1.0000 0.44350  0.67219  0.12130  Biso   1.000  N
  N3       1.0000 0.05650  0.17219  0.37870  Biso   1.000  N
  N4       1.0000 0.44350  0.82781  0.37870  Biso   1.000  N
  N5       1.0000 0.94350  0.67219  0.87870  Biso   1.000  N
  N6       1.0000 0.55650  0.32781  0.87870  Biso   1.000  N
  N7       1.0000 0.94350  0.82781  0.62130  Biso   1.000  N
  N8       1.0000 0.55650  0.17219  0.62130  Biso   1.000  N
  N9       1.0000 0.08370  0.42280  0.02210  Biso   1.000  N
  N10      1.0000 0.41630  0.57720  0.02210  Biso   1.000  N
  N11      1.0000 0.08370  0.07720  0.47790  Biso   1.000  N
  N12      1.0000 0.41630  0.92280  0.47790  Biso   1.000  N
  N13      1.0000 0.91630  0.57720  0.97790  Biso   1.000  N
  N14      1.0000 0.58370  0.42280  0.97790  Biso   1.000  N
  N15      1.0000 0.91630  0.92280  0.52210  Biso   1.000  N
  N16      1.0000 0.58370  0.07720  0.52210  Biso   1.000  N
  N17      1.0000 0.01100  0.39403  0.94790  Biso   1.000  N
  N18      1.0000 0.48900  0.60597  0.94790  Biso   1.000  N
  N19      1.0000 0.01100  0.10597  0.55210  Biso   1.000  N
  N20      1.0000 0.48900  0.89403  0.55210  Biso   1.000  N
  N21      1.0000 0.98900  0.60597  0.05210  Biso   1.000  N
  N22      1.0000 0.51100  0.39403  0.05210  Biso   1.000  N
  N23      1.0000 0.98900  0.89403  0.44790  Biso   1.000  N
  N24      1.0000 0.51100  0.10597  0.44790  Biso   1.000  N
  N25      1.0000 0.05020  0.37788  0.60740  Biso   1.000  N
  N26      1.0000 0.44980  0.62212  0.60740  Biso   1.000  N
  N27      1.0000 0.05020  0.12212  0.89260  Biso   1.000  N
  N28      1.0000 0.44980  0.87788  0.89260  Biso   1.000  N
  N29      1.0000 0.94980  0.62212  0.39260  Biso   1.000  N
  N30      1.0000 0.55020  0.37788  0.39260  Biso   1.000  N
  N31      1.0000 0.94980  0.87788  0.10740  Biso   1.000  N
  N32      1.0000 0.55020  0.12212  0.10740  Biso   1.000  N
  N33      1.0000 0.11760  0.33900  0.66630  Biso   1.000  N
  N34      1.0000 0.38240  0.66100  0.66630  Biso   1.000  N
  N35      1.0000 0.11760  0.16100  0.83370  Biso   1.000  N
  N36      1.0000 0.38240  0.83900  0.83370  Biso   1.000  N
  N37      1.0000 0.88240  0.66100  0.33370  Biso   1.000  N
  N38      1.0000 0.61760  0.33900  0.33370  Biso   1.000  N
  N39      1.0000 0.88240  0.83900  0.16630  Biso   1.000  N
  N40      1.0000 0.61760  0.16100  0.16630  Biso   1.000  N
  N41      1.0000 0.06730  0.30352  0.43960  Biso   1.000  N
  N42      1.0000 0.43270  0.69648  0.43960  Biso   1.000  N
  N43      1.0000 0.06730  0.19648  0.06040  Biso   1.000  N
  N44      1.0000 0.43270  0.80352  0.06040  Biso   1.000  N
  N45      1.0000 0.93270  0.69648  0.56040  Biso   1.000  N
  N46      1.0000 0.56730  0.30352  0.56040  Biso   1.000  N
  N47      1.0000 0.93270  0.80352  0.93960  Biso   1.000  N
  N48      1.0000 0.56730  0.19648  0.93960  Biso   1.000  N
  C1       1.0000 0.99610  0.33800  0.00900  Biso   1.000  C
  C2       1.0000 0.50390  0.66200  0.00900  Biso   1.000  C
  C3       1.0000 0.99610  0.16200  0.49100  Biso   1.000  C
  C4       1.0000 0.50390  0.83800  0.49100  Biso   1.000  C
  C5       1.0000 0.00390  0.66200  0.99100  Biso   1.000  C
  C6       1.0000 0.49610  0.33800  0.99100  Biso   1.000  C
  C7       1.0000 0.00390  0.83800  0.50900  Biso   1.000  C
  C8       1.0000 0.49610  0.16200  0.50900  Biso   1.000  C
  H1       1.0000 0.94990  0.30970  0.97760  Biso   1.000  H
  H2       1.0000 0.55010  0.69030  0.97760  Biso   1.000  H
  H3       1.0000 0.94990  0.19030  0.52240  Biso   1.000  H
  H4       1.0000 0.55010  0.80970  0.52240  Biso   1.000  H
  H5       1.0000 0.05010  0.69030  0.02240  Biso   1.000  H
  H6       1.0000 0.44990  0.30970  0.02240  Biso   1.000  H
  H7       1.0000 0.05010  0.80970  0.47760  Biso   1.000  H
  H8       1.0000 0.44990  0.19030  0.47760  Biso   1.000  H
  C9       1.0000 0.10880  0.38110  0.12400  Biso   1.000  C
  C10      1.0000 0.39120  0.61890  0.12400  Biso   1.000  C
  C11      1.0000 0.10880  0.11890  0.37600  Biso   1.000  C
  C12      1.0000 0.39120  0.88110  0.37600  Biso   1.000  C
  C13      1.0000 0.89120  0.61890  0.87600  Biso   1.000  C
  C14      1.0000 0.60880  0.38110  0.87600  Biso   1.000  C
  C15      1.0000 0.89120  0.88110  0.62400  Biso   1.000  C
  C16      1.0000 0.60880  0.11890  0.62400  Biso   1.000  C
  H9       1.0000 0.15810  0.38750  0.19210  Biso   1.000  H
  H10      1.0000 0.34190  0.61250  0.19210  Biso   1.000  H
  H11      1.0000 0.15810  0.11250  0.30790  Biso   1.000  H
  H12      1.0000 0.34190  0.88750  0.30790  Biso   1.000  H
  H13      1.0000 0.84190  0.61250  0.80790  Biso   1.000  H
  H14      1.0000 0.65810  0.38750  0.80790  Biso   1.000  H
  H15      1.0000 0.84190  0.88750  0.69210  Biso   1.000  H
  H16      1.0000 0.65810  0.11250  0.69210  Biso   1.000  H
  C17      1.0000 0.96090  0.42450  0.82230  Biso   1.000  C
  C18      1.0000 0.53910  0.57550  0.82230  Biso   1.000  C
  C19      1.0000 0.96090  0.07550  0.67770  Biso   1.000  C
  C20      1.0000 0.53910  0.92450  0.67770  Biso   1.000  C
  C21      1.0000 0.03910  0.57550  0.17770  Biso   1.000  C
  C22      1.0000 0.46090  0.42450  0.17770  Biso   1.000  C
  C23      1.0000 0.03910  0.92450  0.32230  Biso   1.000  C
  C24      1.0000 0.46090  0.07550  0.32230  Biso   1.000  C
  H17      1.0000 0.93550  0.46440  0.85730  Biso   1.000  H
  H18      1.0000 0.56450  0.53560  0.85730  Biso   1.000  H
  H19      1.0000 0.93550  0.03560  0.64270  Biso   1.000  H
  H20      1.0000 0.56450  0.96440  0.64270  Biso   1.000  H
  H21      1.0000 0.06450  0.53560  0.14270  Biso   1.000  H
  H22      1.0000 0.43550  0.46440  0.14270  Biso   1.000  H
  H23      1.0000 0.06450  0.96440  0.35730  Biso   1.000  H
  H24      1.0000 0.43550  0.03560  0.35730  Biso   1.000  H
  H25      1.0000 0.90840  0.39810  0.79150  Biso   1.000  H
  H26      1.0000 0.59160  0.60190  0.79150  Biso   1.000  H
  H27      1.0000 0.90840  0.10190  0.70850  Biso   1.000  H
  H28      1.0000 0.59160  0.89810  0.70850  Biso   1.000  H
  H29      1.0000 0.09160  0.60190  0.20850  Biso   1.000  H
  H30      1.0000 0.40840  0.39810  0.20850  Biso   1.000  H
  H31      1.0000 0.09160  0.89810  0.29150  Biso   1.000  H
  H32      1.0000 0.40840  0.10190  0.29150  Biso   1.000  H
  C25      1.0000 0.02330  0.43600  0.68710  Biso   1.000  C
  C26      1.0000 0.47670  0.56400  0.68710  Biso   1.000  C
  C27      1.0000 0.02330  0.06400  0.81290  Biso   1.000  C
  C28      1.0000 0.47670  0.93600  0.81290  Biso   1.000  C
  C29      1.0000 0.97670  0.56400  0.31290  Biso   1.000  C
  C30      1.0000 0.52330  0.43600  0.31290  Biso   1.000  C
  C31      1.0000 0.97670  0.93600  0.18710  Biso   1.000  C
  C32      1.0000 0.52330  0.06400  0.18710  Biso   1.000  C
  H33      1.0000 0.99090  0.46350  0.61600  Biso   1.000  H
  H34      1.0000 0.50910  0.53650  0.61600  Biso   1.000  H
  H35      1.0000 0.99090  0.03650  0.88400  Biso   1.000  H
  H36      1.0000 0.50910  0.96350  0.88400  Biso   1.000  H
  H37      1.0000 0.00910  0.53650  0.38400  Biso   1.000  H
  H38      1.0000 0.49090  0.46350  0.38400  Biso   1.000  H
  H39      1.0000 0.00910  0.96350  0.11600  Biso   1.000  H
  H40      1.0000 0.49090  0.03650  0.11600  Biso   1.000  H
  H41      1.0000 0.07990  0.45750  0.72090  Biso   1.000  H
  H42      1.0000 0.42010  0.54250  0.72090  Biso   1.000  H
  H43      1.0000 0.07990  0.04250  0.77910  Biso   1.000  H
  H44      1.0000 0.42010  0.95750  0.77910  Biso   1.000  H
  H45      1.0000 0.92010  0.54250  0.27910  Biso   1.000  H
  H46      1.0000 0.57990  0.45750  0.27910  Biso   1.000  H
  H47      1.0000 0.92010  0.95750  0.22090  Biso   1.000  H
  H48      1.0000 0.57990  0.04250  0.22090  Biso   1.000  H
  C33      1.0000 0.02230  0.35590  0.47390  Biso   1.000  C
  C34      1.0000 0.47770  0.64410  0.47390  Biso   1.000  C
  C35      1.0000 0.02230  0.14410  0.02610  Biso   1.000  C
  C36      1.0000 0.47770  0.85590  0.02610  Biso   1.000  C
  C37      1.0000 0.97770  0.64410  0.52610  Biso   1.000  C
  C38      1.0000 0.52230  0.35590  0.52610  Biso   1.000  C
  C39      1.0000 0.97770  0.85590  0.97390  Biso   1.000  C
  C40      1.0000 0.52230  0.14410  0.97390  Biso   1.000  C
  H49      1.0000 0.97710  0.37480  0.41240  Biso   1.000  H
  H50      1.0000 0.52290  0.62520  0.41240  Biso   1.000  H
  H51      1.0000 0.97710  0.12520  0.08760  Biso   1.000  H
  H52      1.0000 0.52290  0.87480  0.08760  Biso   1.000  H
  H53      1.0000 0.02290  0.62520  0.58760  Biso   1.000  H
  H54      1.0000 0.47710  0.37480  0.58760  Biso   1.000  H
  H55      1.0000 0.02290  0.87480  0.91240  Biso   1.000  H
  H56      1.0000 0.47710  0.12520  0.91240  Biso   1.000  H
  C41      1.0000 0.12510  0.29500  0.56270  Biso   1.000  C
  C42      1.0000 0.37490  0.70500  0.56270  Biso   1.000  C
  C43      1.0000 0.12510  0.20500  0.93730  Biso   1.000  C
  C44      1.0000 0.37490  0.79500  0.93730  Biso   1.000  C
  C45      1.0000 0.87490  0.70500  0.43730  Biso   1.000  C
  C46      1.0000 0.62510  0.29500  0.43730  Biso   1.000  C
  C47      1.0000 0.87490  0.79500  0.06270  Biso   1.000  C
  C48      1.0000 0.62510  0.20500  0.06270  Biso   1.000  C
  H57      1.0000 0.16610  0.26100  0.57170  Biso   1.000  H
  H58      1.0000 0.33390  0.73900  0.57170  Biso   1.000  H
  H59      1.0000 0.16610  0.23900  0.92830  Biso   1.000  H
  H60      1.0000 0.33390  0.76100  0.92830  Biso   1.000  H
  H61      1.0000 0.83390  0.73900  0.42830  Biso   1.000  H
  H62      1.0000 0.66610  0.26100  0.42830  Biso   1.000  H
  H63      1.0000 0.83390  0.76100  0.07170  Biso   1.000  H
  H64      1.0000 0.66610  0.23900  0.07170  Biso   1.000  H
  Cl1      1.0000 0.31700  0.26070  0.24590  Biso   1.000  Cl
  Cl2      1.0000 0.18300  0.73930  0.24590  Biso   1.000  Cl
  Cl3      1.0000 0.31700  0.23930  0.25410  Biso   1.000  Cl
  Cl4      1.0000 0.18300  0.76070  0.25410  Biso   1.000  Cl
  Cl5      1.0000 0.68300  0.73930  0.75410  Biso   1.000  Cl
  Cl6      1.0000 0.81700  0.26070  0.75410  Biso   1.000  Cl
  Cl7      1.0000 0.68300  0.76070  0.74590  Biso   1.000  Cl
  Cl8      1.0000 0.81700  0.23930  0.74590  Biso   1.000  Cl
  O1       1.0000 0.34810  0.29570  0.37870  Biso   1.000  O
  O2       1.0000 0.15190  0.70430  0.37870  Biso   1.000  O
  O3       1.0000 0.34810  0.20430  0.12130  Biso   1.000  O
  O4       1.0000 0.15190  0.79570  0.12130  Biso   1.000  O
  O5       1.0000 0.65190  0.70430  0.62130  Biso   1.000  O
  O6       1.0000 0.84810  0.29570  0.62130  Biso   1.000  O
  O7       1.0000 0.65190  0.79570  0.87870  Biso   1.000  O
  O8       1.0000 0.84810  0.20430  0.87870  Biso   1.000  O
  O9       1.0000 0.39400  0.22280  0.19300  Biso   1.000  O
  O10      1.0000 0.10600  0.77720  0.19300  Biso   1.000  O
  O11      1.0000 0.39400  0.27720  0.30700  Biso   1.000  O
  O12      1.0000 0.10600  0.72280  0.30700  Biso   1.000  O
  O13      1.0000 0.60600  0.77720  0.80700  Biso   1.000  O
  O14      1.0000 0.89400  0.22280  0.80700  Biso   1.000  O
  O15      1.0000 0.60600  0.72280  0.69300  Biso   1.000  O
  O16      1.0000 0.89400  0.27720  0.69300  Biso   1.000  O
  O17      1.0000 0.29000  0.30460  0.12900  Biso   1.000  O
  O18      1.0000 0.21000  0.69540  0.12900  Biso   1.000  O
  O19      1.0000 0.29000  0.19540  0.37100  Biso   1.000  O
  O20      1.0000 0.21000  0.80460  0.37100  Biso   1.000  O
  O21      1.0000 0.71000  0.69540  0.87100  Biso   1.000  O
  O22      1.0000 0.79000  0.30460  0.87100  Biso   1.000  O
  O23      1.0000 0.71000  0.80460  0.62900  Biso   1.000  O
  O24      1.0000 0.79000  0.19540  0.62900  Biso   1.000  O
  O25      1.0000 0.23880  0.22220  0.28640  Biso   1.000  O
  O26      1.0000 0.26120  0.77780  0.28640  Biso   1.000  O
  O27      1.0000 0.23880  0.27780  0.21360  Biso   1.000  O
  O28      1.0000 0.26120  0.72220  0.21360  Biso   1.000  O
  O29      1.0000 0.76120  0.77780  0.71360  Biso   1.000  O
  O30      1.0000 0.73880  0.22220  0.71360  Biso   1.000  O
  O31      1.0000 0.76120  0.72220  0.78640  Biso   1.000  O
  O32      1.0000 0.73880  0.27780  0.78640  Biso   1.000  O
  Cl9      1.0000 0.31320  0.25900  0.30340  Biso   1.000  Cl
  Cl10     1.0000 0.18680  0.74100  0.30340  Biso   1.000  Cl
  Cl11     1.0000 0.31320  0.24100  0.19660  Biso   1.000  Cl
  Cl12     1.0000 0.18680  0.75900  0.19660  Biso   1.000  Cl
  Cl13     1.0000 0.68680  0.74100  0.69660  Biso   1.000  Cl
  Cl14     1.0000 0.81320  0.25900  0.69660  Biso   1.000  Cl
  Cl15     1.0000 0.68680  0.75900  0.80340  Biso   1.000  Cl
  Cl16     1.0000 0.81320  0.24100  0.80340  Biso   1.000  Cl
  O33      1.0000 0.30460  0.32230  0.36400  Biso   1.000  O
  O34      1.0000 0.19540  0.67770  0.36400  Biso   1.000  O
  O35      1.0000 0.30460  0.17770  0.13600  Biso   1.000  O
  O36      1.0000 0.19540  0.82230  0.13600  Biso   1.000  O
  O37      1.0000 0.69540  0.67770  0.63600  Biso   1.000  O
  O38      1.0000 0.80460  0.32230  0.63600  Biso   1.000  O
  O39      1.0000 0.69540  0.82230  0.86400  Biso   1.000  O
  O40      1.0000 0.80460  0.17770  0.86400  Biso   1.000  O
  O41      1.0000 0.40820  0.25000  0.25000  Biso   1.000  O
  O42      1.0000 0.09180  0.75000  0.25000  Biso   1.000  O
  O43      1.0000 0.59180  0.75000  0.75000  Biso   1.000  O
  O44      1.0000 0.90820  0.25000  0.75000  Biso   1.000  O
  O45      1.0000 0.24780  0.25150  0.18000  Biso   1.000  O
  O46      1.0000 0.25220  0.74850  0.18000  Biso   1.000  O
  O47      1.0000 0.24780  0.24850  0.32000  Biso   1.000  O
  O48      1.0000 0.25220  0.75150  0.32000  Biso   1.000  O
  O49      1.0000 0.75220  0.74850  0.82000  Biso   1.000  O
  O50      1.0000 0.74780  0.25150  0.82000  Biso   1.000  O
  O51      1.0000 0.75220  0.75150  0.68000  Biso   1.000  O
  O52      1.0000 0.74780  0.24850  0.68000  Biso   1.000  O
  O53      1.0000 0.29290  0.21410  0.42200  Biso   1.000  O
  O54      1.0000 0.20710  0.78590  0.42200  Biso   1.000  O
  O55      1.0000 0.29290  0.28590  0.07800  Biso   1.000  O
  O56      1.0000 0.20710  0.71410  0.07800  Biso   1.000  O
  O57      1.0000 0.70710  0.78590  0.57800  Biso   1.000  O
  O58      1.0000 0.79290  0.21410  0.57800  Biso   1.000  O
  O59      1.0000 0.70710  0.71410  0.92200  Biso   1.000  O
  O60      1.0000 0.79290  0.28590  0.92200  Biso   1.000  O
  Cl17     1.0000 0.75000  0.50000  0.59580  Biso   1.000  Cl
  Cl18     1.0000 0.75000  0.00000  0.90420  Biso   1.000  Cl
  Cl19     1.0000 0.25000  0.50000  0.40420  Biso   1.000  Cl
  Cl20     1.0000 0.25000  0.00000  0.09580  Biso   1.000  Cl
  O61      1.0000 0.73270  0.50800  0.75740  Biso   1.000  O
  O62      1.0000 0.76730  0.49200  0.75740  Biso   1.000  O
  O63      1.0000 0.73270  0.99200  0.74260  Biso   1.000  O
  O64      1.0000 0.76730  0.00800  0.74260  Biso   1.000  O
  O65      1.0000 0.26730  0.49200  0.24260  Biso   1.000  O
  O66      1.0000 0.23270  0.50800  0.24260  Biso   1.000  O
  O67      1.0000 0.26730  0.00800  0.25740  Biso   1.000  O
  O68      1.0000 0.23270  0.99200  0.25740  Biso   1.000  O
  O69      1.0000 0.74380  0.56720  0.57110  Biso   1.000  O
  O70      1.0000 0.75620  0.43280  0.57110  Biso   1.000  O
  O71      1.0000 0.74380  0.93280  0.92890  Biso   1.000  O
  O72      1.0000 0.75620  0.06720  0.92890  Biso   1.000  O
  O73      1.0000 0.25620  0.43280  0.42890  Biso   1.000  O
  O74      1.0000 0.24380  0.56720  0.42890  Biso   1.000  O
  O75      1.0000 0.25620  0.06720  0.07110  Biso   1.000  O
  O76      1.0000 0.24380  0.93280  0.07110  Biso   1.000  O
  O77      1.0000 0.66680  0.47140  0.55680  Biso   1.000  O
  O78      1.0000 0.83320  0.52860  0.55680  Biso   1.000  O
  O79      1.0000 0.66680  0.02860  0.94320  Biso   1.000  O
  O80      1.0000 0.83320  0.97140  0.94320  Biso   1.000  O
  O81      1.0000 0.33320  0.52860  0.44320  Biso   1.000  O
  O82      1.0000 0.16680  0.47140  0.44320  Biso   1.000  O
  O83      1.0000 0.33320  0.97140  0.05680  Biso   1.000  O
  O84      1.0000 0.16680  0.02860  0.05680  Biso   1.000  O
  O85      1.0000 0.82830  0.47680  0.51610  Biso   1.000  O
  O86      1.0000 0.67170  0.52320  0.51610  Biso   1.000  O
  O87      1.0000 0.82830  0.02320  0.98390  Biso   1.000  O
  O88      1.0000 0.67170  0.97680  0.98390  Biso   1.000  O
  O89      1.0000 0.17170  0.52320  0.48390  Biso   1.000  O
  O90      1.0000 0.32830  0.47680  0.48390  Biso   1.000  O
  O91      1.0000 0.17170  0.97680  0.01610  Biso   1.000  O
  O92      1.0000 0.32830  0.02320  0.01610  Biso   1.000  O
  O93      1.0000 0.88970  0.25000  0.25000  Biso   1.000  O
  O94      1.0000 0.61030  0.75000  0.25000  Biso   1.000  O
  O95      1.0000 0.11030  0.75000  0.75000  Biso   1.000  O
  O96      1.0000 0.38970  0.25000  0.75000  Biso   1.000  O
  O97      1.0000 0.16590  0.88360  0.76730  Biso   1.000  O
  O98      1.0000 0.33410  0.11640  0.76730  Biso   1.000  O
  O99      1.0000 0.16590  0.61640  0.73270  Biso   1.000  O
  O100     1.0000 0.33410  0.38360  0.73270  Biso   1.000  O
  O101     1.0000 0.83410  0.11640  0.23270  Biso   1.000  O
  O102     1.0000 0.66590  0.88360  0.23270  Biso   1.000  O
  O103     1.0000 0.83410  0.38360  0.26730  Biso   1.000  O
  O104     1.0000 0.66590  0.61640  0.26730  Biso   1.000  O
  O105     1.0000 0.25000  0.00000  0.60400  Biso   1.000  O
  O106     1.0000 0.25000  0.50000  0.89600  Biso   1.000  O
  O107     1.0000 0.75000  0.00000  0.39600  Biso   1.000  O
  O108     1.0000 0.75000  0.50000  0.10400  Biso   1.000  O
  O109     1.0000 0.21390  0.96860  0.58800  Biso   1.000  O
  O110     1.0000 0.28610  0.03140  0.58800  Biso   1.000  O
  O111     1.0000 0.21390  0.53140  0.91200  Biso   1.000  O
  O112     1.0000 0.28610  0.46860  0.91200  Biso   1.000  O
  O113     1.0000 0.78610  0.03140  0.41200  Biso   1.000  O
  O114     1.0000 0.71390  0.96860  0.41200  Biso   1.000  O
  O115     1.0000 0.78610  0.46860  0.08800  Biso   1.000  O
  O116     1.0000 0.71390  0.53140  0.08800  Biso   1.000  O
