data_image0
_cell_length_a       18.101
_cell_length_b       15.391
_cell_length_c       16.678
_cell_angle_alpha    90
_cell_angle_beta     111.648
_cell_angle_gamma    90

_symmetry_space_group_name_H-M    "P 1"
_symmetry_int_tables_number       1

loop_
  _symmetry_equiv_pos_as_xyz
  'x, y, z'

loop_
  _atom_site_label
  _atom_site_occupancy
  _atom_site_fract_x
  _atom_site_fract_y
  _atom_site_fract_z
  _atom_site_thermal_displace_type
  _atom_site_B_iso_or_equiv
  _atom_site_type_symbol
  C1       1.0000 0.25990  0.98770  0.11520  Biso   1.000  C
  C2       1.0000 0.74010  0.98770  0.38480  Biso   1.000  C
  C3       1.0000 0.75990  0.48770  0.11520  Biso   1.000  C
  C4       1.0000 0.24010  0.48770  0.38480  Biso   1.000  C
  C5       1.0000 0.74010  0.01230  0.88480  Biso   1.000  C
  C6       1.0000 0.25990  0.01230  0.61520  Biso   1.000  C
  C7       1.0000 0.24010  0.51230  0.88480  Biso   1.000  C
  C8       1.0000 0.75990  0.51230  0.61520  Biso   1.000  C
  C9       1.0000 0.24490  0.92260  0.17550  Biso   1.000  C
  C10      1.0000 0.75510  0.92260  0.32450  Biso   1.000  C
  C11      1.0000 0.74490  0.42260  0.17550  Biso   1.000  C
  C12      1.0000 0.25510  0.42260  0.32450  Biso   1.000  C
  C13      1.0000 0.75510  0.07740  0.82450  Biso   1.000  C
  C14      1.0000 0.24490  0.07740  0.67550  Biso   1.000  C
  C15      1.0000 0.25510  0.57740  0.82450  Biso   1.000  C
  C16      1.0000 0.74490  0.57740  0.67550  Biso   1.000  C
  C17      1.0000 0.30290  0.86450  0.22380  Biso   1.000  C
  C18      1.0000 0.69710  0.86450  0.27620  Biso   1.000  C
  C19      1.0000 0.80290  0.36450  0.22380  Biso   1.000  C
  C20      1.0000 0.19710  0.36450  0.27620  Biso   1.000  C
  C21      1.0000 0.69710  0.13550  0.77620  Biso   1.000  C
  C22      1.0000 0.30290  0.13550  0.72380  Biso   1.000  C
  C23      1.0000 0.19710  0.63550  0.77620  Biso   1.000  C
  C24      1.0000 0.80290  0.63550  0.72380  Biso   1.000  C
  H1       1.0000 0.35070  0.86090  0.21520  Biso   1.000  H
  H2       1.0000 0.64930  0.86090  0.28480  Biso   1.000  H
  H3       1.0000 0.85070  0.36090  0.21520  Biso   1.000  H
  H4       1.0000 0.14930  0.36090  0.28480  Biso   1.000  H
  H5       1.0000 0.64930  0.13910  0.78480  Biso   1.000  H
  H6       1.0000 0.35070  0.13910  0.71520  Biso   1.000  H
  H7       1.0000 0.14930  0.63910  0.78480  Biso   1.000  H
  H8       1.0000 0.85070  0.63910  0.71520  Biso   1.000  H
  C25      1.0000 0.28970  0.81140  0.28500  Biso   1.000  C
  C26      1.0000 0.71030  0.81140  0.21500  Biso   1.000  C
  C27      1.0000 0.78970  0.31140  0.28500  Biso   1.000  C
  C28      1.0000 0.21030  0.31140  0.21500  Biso   1.000  C
  C29      1.0000 0.71030  0.18860  0.71500  Biso   1.000  C
  C30      1.0000 0.28970  0.18860  0.78500  Biso   1.000  C
  C31      1.0000 0.21030  0.68860  0.71500  Biso   1.000  C
  C32      1.0000 0.78970  0.68860  0.78500  Biso   1.000  C
  H9       1.0000 0.32850  0.77220  0.31690  Biso   1.000  H
  H10      1.0000 0.67150  0.77220  0.18310  Biso   1.000  H
  H11      1.0000 0.82850  0.27220  0.31690  Biso   1.000  H
  H12      1.0000 0.17150  0.27220  0.18310  Biso   1.000  H
  H13      1.0000 0.67150  0.22780  0.68310  Biso   1.000  H
  H14      1.0000 0.32850  0.22780  0.81690  Biso   1.000  H
  H15      1.0000 0.17150  0.72780  0.68310  Biso   1.000  H
  H16      1.0000 0.82850  0.72780  0.81690  Biso   1.000  H
  C33      1.0000 0.21810  0.81740  0.29820  Biso   1.000  C
  C34      1.0000 0.78190  0.81740  0.20180  Biso   1.000  C
  C35      1.0000 0.71810  0.31740  0.29820  Biso   1.000  C
  C36      1.0000 0.28190  0.31740  0.20180  Biso   1.000  C
  C37      1.0000 0.78190  0.18260  0.70180  Biso   1.000  C
  C38      1.0000 0.21810  0.18260  0.79820  Biso   1.000  C
  C39      1.0000 0.28190  0.68260  0.70180  Biso   1.000  C
  C40      1.0000 0.71810  0.68260  0.79820  Biso   1.000  C
  C41      1.0000 0.15730  0.86960  0.24570  Biso   1.000  C
  C42      1.0000 0.84270  0.86960  0.25430  Biso   1.000  C
  C43      1.0000 0.65730  0.36960  0.24570  Biso   1.000  C
  C44      1.0000 0.34270  0.36960  0.25430  Biso   1.000  C
  C45      1.0000 0.84270  0.13040  0.75430  Biso   1.000  C
  C46      1.0000 0.15730  0.13040  0.74570  Biso   1.000  C
  C47      1.0000 0.34270  0.63040  0.75430  Biso   1.000  C
  C48      1.0000 0.65730  0.63040  0.74570  Biso   1.000  C
  C49      1.0000 0.17180  0.92310  0.18340  Biso   1.000  C
  C50      1.0000 0.82820  0.92310  0.31660  Biso   1.000  C
  C51      1.0000 0.67180  0.42310  0.18340  Biso   1.000  C
  C52      1.0000 0.32820  0.42310  0.31660  Biso   1.000  C
  C53      1.0000 0.82820  0.07690  0.81660  Biso   1.000  C
  C54      1.0000 0.17180  0.07690  0.68340  Biso   1.000  C
  C55      1.0000 0.32820  0.57690  0.81660  Biso   1.000  C
  C56      1.0000 0.67180  0.57690  0.68340  Biso   1.000  C
  H17      1.0000 0.13160  0.95880  0.14790  Biso   1.000  H
  H18      1.0000 0.86840  0.95880  0.35210  Biso   1.000  H
  H19      1.0000 0.63160  0.45880  0.14790  Biso   1.000  H
  H20      1.0000 0.36840  0.45880  0.35210  Biso   1.000  H
  H21      1.0000 0.86840  0.04120  0.85210  Biso   1.000  H
  H22      1.0000 0.13160  0.04120  0.64790  Biso   1.000  H
  H23      1.0000 0.36840  0.54120  0.85210  Biso   1.000  H
  H24      1.0000 0.63160  0.54120  0.64790  Biso   1.000  H
  C57      1.0000 0.07740  0.87110  0.24870  Biso   1.000  C
  C58      1.0000 0.92260  0.87110  0.25130  Biso   1.000  C
  C59      1.0000 0.57740  0.37110  0.24870  Biso   1.000  C
  C60      1.0000 0.42260  0.37110  0.25130  Biso   1.000  C
  C61      1.0000 0.92260  0.12890  0.75130  Biso   1.000  C
  C62      1.0000 0.07740  0.12890  0.74870  Biso   1.000  C
  C63      1.0000 0.42260  0.62890  0.75130  Biso   1.000  C
  C64      1.0000 0.57740  0.62890  0.74870  Biso   1.000  C
  C65      1.0000 0.03810  0.79300  0.24930  Biso   1.000  C
  C66      1.0000 0.96190  0.79300  0.25070  Biso   1.000  C
  C67      1.0000 0.53810  0.29300  0.24930  Biso   1.000  C
  C68      1.0000 0.46190  0.29300  0.25070  Biso   1.000  C
  C69      1.0000 0.96190  0.20700  0.75070  Biso   1.000  C
  C70      1.0000 0.03810  0.20700  0.74930  Biso   1.000  C
  C71      1.0000 0.46190  0.70700  0.75070  Biso   1.000  C
  C72      1.0000 0.53810  0.70700  0.74930  Biso   1.000  C
  H25      1.0000 0.06340  0.74050  0.24890  Biso   1.000  H
  H26      1.0000 0.93660  0.74050  0.25110  Biso   1.000  H
  H27      1.0000 0.56340  0.24050  0.24890  Biso   1.000  H
  H28      1.0000 0.43660  0.24050  0.25110  Biso   1.000  H
  H29      1.0000 0.93660  0.25950  0.75110  Biso   1.000  H
  H30      1.0000 0.06340  0.25950  0.74890  Biso   1.000  H
  H31      1.0000 0.43660  0.75950  0.75110  Biso   1.000  H
  H32      1.0000 0.56340  0.75950  0.74890  Biso   1.000  H
  C73      1.0000 0.03710  0.94760  0.24840  Biso   1.000  C
  C74      1.0000 0.96290  0.94760  0.25160  Biso   1.000  C
  C75      1.0000 0.53710  0.44760  0.24840  Biso   1.000  C
  C76      1.0000 0.46290  0.44760  0.25160  Biso   1.000  C
  C77      1.0000 0.96290  0.05240  0.75160  Biso   1.000  C
  C78      1.0000 0.03710  0.05240  0.74840  Biso   1.000  C
  C79      1.0000 0.46290  0.55240  0.75160  Biso   1.000  C
  C80      1.0000 0.53710  0.55240  0.74840  Biso   1.000  C
  H33      1.0000 0.06130  0.00030  0.24600  Biso   1.000  H
  H34      1.0000 0.93870  0.00030  0.25400  Biso   1.000  H
  H35      1.0000 0.56130  0.50030  0.24600  Biso   1.000  H
  H36      1.0000 0.43870  0.50030  0.25400  Biso   1.000  H
  H37      1.0000 0.93870  0.99970  0.75400  Biso   1.000  H
  H38      1.0000 0.06130  0.99970  0.74600  Biso   1.000  H
  H39      1.0000 0.43870  0.49970  0.75400  Biso   1.000  H
  H40      1.0000 0.56130  0.49970  0.74600  Biso   1.000  H
  C81      1.0000 0.20990  0.77020  0.37500  Biso   1.000  C
  C82      1.0000 0.79010  0.77020  0.12500  Biso   1.000  C
  C83      1.0000 0.70990  0.27020  0.37500  Biso   1.000  C
  C84      1.0000 0.29010  0.27020  0.12500  Biso   1.000  C
  C85      1.0000 0.79010  0.22980  0.62500  Biso   1.000  C
  C86      1.0000 0.20990  0.22980  0.87500  Biso   1.000  C
  C87      1.0000 0.29010  0.72980  0.62500  Biso   1.000  C
  C88      1.0000 0.70990  0.72980  0.87500  Biso   1.000  C
  C89      1.0000 0.23350  0.05070  0.39790  Biso   1.000  C
  C90      1.0000 0.76650  0.05070  0.10210  Biso   1.000  C
  C91      1.0000 0.73350  0.55070  0.39790  Biso   1.000  C
  C92      1.0000 0.26650  0.55070  0.10210  Biso   1.000  C
  C93      1.0000 0.76650  0.94930  0.60210  Biso   1.000  C
  C94      1.0000 0.23350  0.94930  0.89790  Biso   1.000  C
  C95      1.0000 0.26650  0.44930  0.60210  Biso   1.000  C
  C96      1.0000 0.73350  0.44930  0.89790  Biso   1.000  C
  H41      1.0000 0.18970  0.05470  0.41400  Biso   1.000  H
  H42      1.0000 0.81030  0.05470  0.08600  Biso   1.000  H
  H43      1.0000 0.68970  0.55470  0.41400  Biso   1.000  H
  H44      1.0000 0.31030  0.55470  0.08600  Biso   1.000  H
  H45      1.0000 0.81030  0.94530  0.58600  Biso   1.000  H
  H46      1.0000 0.18970  0.94530  0.91400  Biso   1.000  H
  H47      1.0000 0.31030  0.44530  0.58600  Biso   1.000  H
  H48      1.0000 0.68970  0.44530  0.91400  Biso   1.000  H
  C97      1.0000 0.24010  0.11080  0.33810  Biso   1.000  C
  C98      1.0000 0.75990  0.11080  0.16190  Biso   1.000  C
  C99      1.0000 0.74010  0.61080  0.33810  Biso   1.000  C
  C100     1.0000 0.25990  0.61080  0.16190  Biso   1.000  C
  C101     1.0000 0.75990  0.88920  0.66190  Biso   1.000  C
  C102     1.0000 0.24010  0.88920  0.83810  Biso   1.000  C
  C103     1.0000 0.25990  0.38920  0.66190  Biso   1.000  C
  C104     1.0000 0.74010  0.38920  0.83810  Biso   1.000  C
  H49      1.0000 0.20120  0.15280  0.31410  Biso   1.000  H
  H50      1.0000 0.79880  0.15280  0.18590  Biso   1.000  H
  H51      1.0000 0.70120  0.65280  0.31410  Biso   1.000  H
  H52      1.0000 0.29880  0.65280  0.18590  Biso   1.000  H
  H53      1.0000 0.79880  0.84720  0.68590  Biso   1.000  H
  H54      1.0000 0.20120  0.84720  0.81410  Biso   1.000  H
  H55      1.0000 0.29880  0.34720  0.68590  Biso   1.000  H
  H56      1.0000 0.70120  0.34720  0.81410  Biso   1.000  H
  C105     1.0000 0.30620  0.10560  0.31580  Biso   1.000  C
  C106     1.0000 0.69380  0.10560  0.18420  Biso   1.000  C
  C107     1.0000 0.80620  0.60560  0.31580  Biso   1.000  C
  C108     1.0000 0.19380  0.60560  0.18420  Biso   1.000  C
  C109     1.0000 0.69380  0.89440  0.68420  Biso   1.000  C
  C110     1.0000 0.30620  0.89440  0.81580  Biso   1.000  C
  C111     1.0000 0.19380  0.39440  0.68420  Biso   1.000  C
  C112     1.0000 0.80620  0.39440  0.81580  Biso   1.000  C
  H57      1.0000 0.31260  0.14480  0.27640  Biso   1.000  H
  H58      1.0000 0.68740  0.14480  0.22360  Biso   1.000  H
  H59      1.0000 0.81260  0.64480  0.27640  Biso   1.000  H
  H60      1.0000 0.18740  0.64480  0.22360  Biso   1.000  H
  H61      1.0000 0.68740  0.85520  0.72360  Biso   1.000  H
  H62      1.0000 0.31260  0.85520  0.77640  Biso   1.000  H
  H63      1.0000 0.18740  0.35520  0.72360  Biso   1.000  H
  H64      1.0000 0.81260  0.35520  0.77640  Biso   1.000  H
  C113     1.0000 0.36380  0.04150  0.35240  Biso   1.000  C
  C114     1.0000 0.63620  0.04150  0.14760  Biso   1.000  C
  C115     1.0000 0.86380  0.54150  0.35240  Biso   1.000  C
  C116     1.0000 0.13620  0.54150  0.14760  Biso   1.000  C
  C117     1.0000 0.63620  0.95850  0.64760  Biso   1.000  C
  C118     1.0000 0.36380  0.95850  0.85240  Biso   1.000  C
  C119     1.0000 0.13620  0.45850  0.64760  Biso   1.000  C
  C120     1.0000 0.86380  0.45850  0.85240  Biso   1.000  C
  C121     1.0000 0.35150  0.98390  0.41190  Biso   1.000  C
  C122     1.0000 0.64850  0.98390  0.08810  Biso   1.000  C
  C123     1.0000 0.85150  0.48390  0.41190  Biso   1.000  C
  C124     1.0000 0.14850  0.48390  0.08810  Biso   1.000  C
  C125     1.0000 0.64850  0.01610  0.58810  Biso   1.000  C
  C126     1.0000 0.35150  0.01610  0.91190  Biso   1.000  C
  C127     1.0000 0.14850  0.51610  0.58810  Biso   1.000  C
  C128     1.0000 0.85150  0.51610  0.91190  Biso   1.000  C
  C129     1.0000 0.40580  0.91640  0.44930  Biso   1.000  C
  C130     1.0000 0.59420  0.91640  0.05070  Biso   1.000  C
  C131     1.0000 0.90580  0.41640  0.44930  Biso   1.000  C
  C132     1.0000 0.09420  0.41640  0.05070  Biso   1.000  C
  C133     1.0000 0.59420  0.08360  0.55070  Biso   1.000  C
  C134     1.0000 0.40580  0.08360  0.94930  Biso   1.000  C
  C135     1.0000 0.09420  0.58360  0.55070  Biso   1.000  C
  C136     1.0000 0.90580  0.58360  0.94930  Biso   1.000  C
  C137     1.0000 0.43830  0.79480  0.53800  Biso   1.000  C
  C138     1.0000 0.56170  0.79480  0.96200  Biso   1.000  C
  C139     1.0000 0.93830  0.29480  0.53800  Biso   1.000  C
  C140     1.0000 0.06170  0.29480  0.96200  Biso   1.000  C
  C141     1.0000 0.56170  0.20520  0.46200  Biso   1.000  C
  C142     1.0000 0.43830  0.20520  0.03800  Biso   1.000  C
  C143     1.0000 0.06170  0.70520  0.46200  Biso   1.000  C
  C144     1.0000 0.93830  0.70520  0.03800  Biso   1.000  C
  H65      1.0000 0.42740  0.75650  0.57530  Biso   1.000  H
  H66      1.0000 0.57260  0.75650  0.92470  Biso   1.000  H
  H67      1.0000 0.92740  0.25650  0.57530  Biso   1.000  H
  H68      1.0000 0.07260  0.25650  0.92470  Biso   1.000  H
  H69      1.0000 0.57260  0.24350  0.42470  Biso   1.000  H
  H70      1.0000 0.42740  0.24350  0.07530  Biso   1.000  H
  H71      1.0000 0.07260  0.74350  0.42470  Biso   1.000  H
  H72      1.0000 0.92740  0.74350  0.07530  Biso   1.000  H
  C145     1.0000 0.50750  0.78260  0.52020  Biso   1.000  C
  C146     1.0000 0.49250  0.78260  0.97980  Biso   1.000  C
  C147     1.0000 0.00750  0.28260  0.52020  Biso   1.000  C
  C148     1.0000 0.99250  0.28260  0.97980  Biso   1.000  C
  C149     1.0000 0.49250  0.21740  0.47980  Biso   1.000  C
  C150     1.0000 0.50750  0.21740  0.02020  Biso   1.000  C
  C151     1.0000 0.99250  0.71740  0.47980  Biso   1.000  C
  C152     1.0000 0.00750  0.71740  0.02020  Biso   1.000  C
  H73      1.0000 0.54080  0.73580  0.54440  Biso   1.000  H
  H74      1.0000 0.45920  0.73580  0.95560  Biso   1.000  H
  H75      1.0000 0.04080  0.23580  0.54440  Biso   1.000  H
  H76      1.0000 0.95920  0.23580  0.95560  Biso   1.000  H
  H77      1.0000 0.45920  0.26420  0.45560  Biso   1.000  H
  H78      1.0000 0.54080  0.26420  0.04440  Biso   1.000  H
  H79      1.0000 0.95920  0.76420  0.45560  Biso   1.000  H
  H80      1.0000 0.04080  0.76420  0.04440  Biso   1.000  H
  C153     1.0000 0.52590  0.83880  0.46790  Biso   1.000  C
  C154     1.0000 0.47410  0.83880  0.03210  Biso   1.000  C
  C155     1.0000 0.02590  0.33880  0.46790  Biso   1.000  C
  C156     1.0000 0.97410  0.33880  0.03210  Biso   1.000  C
  C157     1.0000 0.47410  0.16120  0.53210  Biso   1.000  C
  C158     1.0000 0.52590  0.16120  0.96790  Biso   1.000  C
  C159     1.0000 0.97410  0.66120  0.53210  Biso   1.000  C
  C160     1.0000 0.02590  0.66120  0.96790  Biso   1.000  C
  H81      1.0000 0.57250  0.83140  0.45730  Biso   1.000  H
  H82      1.0000 0.42750  0.83140  0.04270  Biso   1.000  H
  H83      1.0000 0.07250  0.33140  0.45730  Biso   1.000  H
  H84      1.0000 0.92750  0.33140  0.04270  Biso   1.000  H
  H85      1.0000 0.42750  0.16860  0.54270  Biso   1.000  H
  H86      1.0000 0.57250  0.16860  0.95730  Biso   1.000  H
  H87      1.0000 0.92750  0.66860  0.54270  Biso   1.000  H
  H88      1.0000 0.07250  0.66860  0.95730  Biso   1.000  H
  C161     1.0000 0.47540  0.90720  0.43020  Biso   1.000  C
  C162     1.0000 0.52460  0.90720  0.06980  Biso   1.000  C
  C163     1.0000 0.97540  0.40720  0.43020  Biso   1.000  C
  C164     1.0000 0.02460  0.40720  0.06980  Biso   1.000  C
  C165     1.0000 0.52460  0.09280  0.56980  Biso   1.000  C
  C166     1.0000 0.47540  0.09280  0.93020  Biso   1.000  C
  C167     1.0000 0.02460  0.59280  0.56980  Biso   1.000  C
  C168     1.0000 0.97540  0.59280  0.93020  Biso   1.000  C
  C169     1.0000 0.48610  0.97040  0.37000  Biso   1.000  C
  C170     1.0000 0.51390  0.97040  0.13000  Biso   1.000  C
  C171     1.0000 0.98610  0.47040  0.37000  Biso   1.000  C
  C172     1.0000 0.01390  0.47040  0.13000  Biso   1.000  C
  C173     1.0000 0.51390  0.02960  0.63000  Biso   1.000  C
  C174     1.0000 0.48610  0.02960  0.87000  Biso   1.000  C
  C175     1.0000 0.01390  0.52960  0.63000  Biso   1.000  C
  C176     1.0000 0.98610  0.52960  0.87000  Biso   1.000  C
  H89      1.0000 0.53200  0.96790  0.35740  Biso   1.000  H
  H90      1.0000 0.46800  0.96790  0.14260  Biso   1.000  H
  H91      1.0000 0.03200  0.46790  0.35740  Biso   1.000  H
  H92      1.0000 0.96800  0.46790  0.14260  Biso   1.000  H
  H93      1.0000 0.46800  0.03210  0.64260  Biso   1.000  H
  H94      1.0000 0.53200  0.03210  0.85740  Biso   1.000  H
  H95      1.0000 0.96800  0.53210  0.64260  Biso   1.000  H
  H96      1.0000 0.03200  0.53210  0.85740  Biso   1.000  H
  C177     1.0000 0.43190  0.03200  0.33220  Biso   1.000  C
  C178     1.0000 0.56810  0.03200  0.16780  Biso   1.000  C
  C179     1.0000 0.93190  0.53200  0.33220  Biso   1.000  C
  C180     1.0000 0.06810  0.53200  0.16780  Biso   1.000  C
  C181     1.0000 0.56810  0.96800  0.66780  Biso   1.000  C
  C182     1.0000 0.43190  0.96800  0.83220  Biso   1.000  C
  C183     1.0000 0.06810  0.46800  0.66780  Biso   1.000  C
  C184     1.0000 0.93190  0.46800  0.83220  Biso   1.000  C
  H97      1.0000 0.43970  0.06890  0.29190  Biso   1.000  H
  H98      1.0000 0.56030  0.06890  0.20810  Biso   1.000  H
  H99      1.0000 0.93970  0.56890  0.29190  Biso   1.000  H
  H100     1.0000 0.06030  0.56890  0.20810  Biso   1.000  H
  H101     1.0000 0.56030  0.93110  0.70810  Biso   1.000  H
  H102     1.0000 0.43970  0.93110  0.79190  Biso   1.000  H
  H103     1.0000 0.06030  0.43110  0.70810  Biso   1.000  H
  H104     1.0000 0.93970  0.43110  0.79190  Biso   1.000  H
  Cu1      1.0000 0.28330  0.89393  0.52538  Biso   1.000  Cu
  Cu2      1.0000 0.71670  0.89393  0.97462  Biso   1.000  Cu
  Cu3      1.0000 0.78330  0.39393  0.52538  Biso   1.000  Cu
  Cu4      1.0000 0.21670  0.39393  0.97462  Biso   1.000  Cu
  Cu5      1.0000 0.71670  0.10607  0.47462  Biso   1.000  Cu
  Cu6      1.0000 0.28330  0.10607  0.02538  Biso   1.000  Cu
  Cu7      1.0000 0.21670  0.60607  0.47462  Biso   1.000  Cu
  Cu8      1.0000 0.78330  0.60607  0.02538  Biso   1.000  Cu
  N1       1.0000 0.38770  0.85950  0.50320  Biso   1.000  N
  N2       1.0000 0.61230  0.85950  0.99680  Biso   1.000  N
  N3       1.0000 0.88770  0.35950  0.50320  Biso   1.000  N
  N4       1.0000 0.11230  0.35950  0.99680  Biso   1.000  N
  N5       1.0000 0.61230  0.14050  0.49680  Biso   1.000  N
  N6       1.0000 0.38770  0.14050  0.00320  Biso   1.000  N
  N7       1.0000 0.11230  0.64050  0.49680  Biso   1.000  N
  N8       1.0000 0.88770  0.64050  0.00320  Biso   1.000  N
  N9       1.0000 0.28590  0.98830  0.43310  Biso   1.000  N
  N10      1.0000 0.71410  0.98830  0.06690  Biso   1.000  N
  N11      1.0000 0.78590  0.48830  0.43310  Biso   1.000  N
  N12      1.0000 0.21410  0.48830  0.06690  Biso   1.000  N
  N13      1.0000 0.71410  0.01170  0.56690  Biso   1.000  N
  N14      1.0000 0.28590  0.01170  0.93310  Biso   1.000  N
  N15      1.0000 0.21410  0.51170  0.56690  Biso   1.000  N
  N16      1.0000 0.78590  0.51170  0.93310  Biso   1.000  N
  O1       1.0000 0.20270  0.81590  0.43380  Biso   1.000  O
  O2       1.0000 0.79730  0.81590  0.06620  Biso   1.000  O
  O3       1.0000 0.70270  0.31590  0.43380  Biso   1.000  O
  O4       1.0000 0.29730  0.31590  0.06620  Biso   1.000  O
  O5       1.0000 0.79730  0.18410  0.56620  Biso   1.000  O
  O6       1.0000 0.20270  0.18410  0.93380  Biso   1.000  O
  O7       1.0000 0.29730  0.68410  0.56620  Biso   1.000  O
  O8       1.0000 0.70270  0.68410  0.93380  Biso   1.000  O
  O9       1.0000 0.20830  0.68840  0.37330  Biso   1.000  O
  O10      1.0000 0.79170  0.68840  0.12670  Biso   1.000  O
  O11      1.0000 0.70830  0.18840  0.37330  Biso   1.000  O
  O12      1.0000 0.29170  0.18840  0.12670  Biso   1.000  O
  O13      1.0000 0.79170  0.31160  0.62670  Biso   1.000  O
  O14      1.0000 0.20830  0.31160  0.87330  Biso   1.000  O
  O15      1.0000 0.29170  0.81160  0.62670  Biso   1.000  O
  O16      1.0000 0.70830  0.81160  0.87330  Biso   1.000  O
  O17      1.0000 0.20200  0.03010  0.06380  Biso   1.000  O
  O18      1.0000 0.79800  0.03010  0.43620  Biso   1.000  O
  O19      1.0000 0.70200  0.53010  0.06380  Biso   1.000  O
  O20      1.0000 0.29800  0.53010  0.43620  Biso   1.000  O
  O21      1.0000 0.79800  0.96990  0.93620  Biso   1.000  O
  O22      1.0000 0.20200  0.96990  0.56380  Biso   1.000  O
  O23      1.0000 0.29800  0.46990  0.93620  Biso   1.000  O
  O24      1.0000 0.70200  0.46990  0.56380  Biso   1.000  O
  O25      1.0000 0.32920  0.00150  0.12130  Biso   1.000  O
  O26      1.0000 0.67080  0.00150  0.37870  Biso   1.000  O
  O27      1.0000 0.82920  0.50150  0.12130  Biso   1.000  O
  O28      1.0000 0.17080  0.50150  0.37870  Biso   1.000  O
  O29      1.0000 0.67080  0.99850  0.87870  Biso   1.000  O
  O30      1.0000 0.32920  0.99850  0.62130  Biso   1.000  O
  O31      1.0000 0.17080  0.49850  0.87870  Biso   1.000  O
  O32      1.0000 0.82920  0.49850  0.62130  Biso   1.000  O
