data_image0
_cell_length_a       5.036
_cell_length_b       18.915
_cell_length_c       6.152
_cell_angle_alpha    90
_cell_angle_beta     96.21
_cell_angle_gamma    90

_symmetry_space_group_name_H-M    "P 1"
_symmetry_int_tables_number       1

loop_
  _symmetry_equiv_pos_as_xyz
  'x, y, z'

loop_
  _atom_site_label
  _atom_site_occupancy
  _atom_site_fract_x
  _atom_site_fract_y
  _atom_site_fract_z
  _atom_site_thermal_displace_type
  _atom_site_B_iso_or_equiv
  _atom_site_type_symbol
  Cu1      1.0000 0.78210  0.62217  0.22094  Biso   1.000  Cu
  Cu2      1.0000 0.21790  0.12217  0.77906  Biso   1.000  Cu
  O1       1.0000 0.59250  0.71513  0.22670  Biso   1.000  O
  O2       1.0000 0.40750  0.21513  0.77330  Biso   1.000  O
  O3       1.0000 0.57800  0.82390  0.09920  Biso   1.000  O
  O4       1.0000 0.42200  0.32390  0.90080  Biso   1.000  O
  O5       1.0000 0.12850  0.67650  0.58700  Biso   1.000  O
  O6       1.0000 0.87150  0.17650  0.41300  Biso   1.000  O
  N1       1.0000 0.03330  0.67840  0.05080  Biso   1.000  N
  N2       1.0000 0.96670  0.17840  0.94920  Biso   1.000  N
  H1       1.0000 0.17600  0.68000  0.15800  Biso   1.000  H
  H2       1.0000 0.82400  0.18000  0.84200  Biso   1.000  H
  H3       1.0000 0.08100  0.65900  0.94400  Biso   1.000  H
  H4       1.0000 0.91900  0.15900  0.05600  Biso   1.000  H
  N3       1.0000 0.17220  0.79230  0.51080  Biso   1.000  N
  N4       1.0000 0.82780  0.29230  0.48920  Biso   1.000  N
  H5       1.0000 0.08800  0.83000  0.48800  Biso   1.000  H
  H6       1.0000 0.91200  0.33000  0.51200  Biso   1.000  H
  H7       1.0000 0.27600  0.78700  0.41700  Biso   1.000  H
  H8       1.0000 0.72400  0.28700  0.58300  Biso   1.000  H
  C1       1.0000 0.68000  0.76540  0.11410  Biso   1.000  C
  C2       1.0000 0.32000  0.26540  0.88590  Biso   1.000  C
  C3       1.0000 0.92370  0.74940  0.99030  Biso   1.000  C
  C4       1.0000 0.07630  0.24940  0.00970  Biso   1.000  C
  H9       1.0000 0.06200  0.78480  0.03190  Biso   1.000  H
  H10      1.0000 0.93800  0.28480  0.96810  Biso   1.000  H
  C5       1.0000 0.83520  0.75670  0.74310  Biso   1.000  C
  C6       1.0000 0.16480  0.25670  0.25690  Biso   1.000  C
  H11      1.0000 0.68610  0.72510  0.70290  Biso   1.000  H
  H12      1.0000 0.31390  0.22510  0.29710  Biso   1.000  H
  H13      1.0000 0.77480  0.80460  0.71190  Biso   1.000  H
  H14      1.0000 0.22520  0.30460  0.28810  Biso   1.000  H
  C7       1.0000 0.06080  0.73930  0.60620  Biso   1.000  C
  C8       1.0000 0.93920  0.23930  0.39380  Biso   1.000  C
  O7       1.0000 0.01120  0.53481  0.27080  Biso   1.000  O
  O8       1.0000 0.98880  0.03481  0.72920  Biso   1.000  O
  O9       1.0000 0.03870  0.43440  0.45330  Biso   1.000  O
  O10      1.0000 0.96130  0.93440  0.54670  Biso   1.000  O
  O11      1.0000 0.52740  0.57414  0.94040  Biso   1.000  O
  O12      1.0000 0.47260  0.07414  0.05960  Biso   1.000  O
  N5       1.0000 0.59070  0.57800  0.46530  Biso   1.000  N
  N6       1.0000 0.40930  0.07800  0.53470  Biso   1.000  N
  H15      1.0000 0.56400  0.61100  0.56500  Biso   1.000  H
  H16      1.0000 0.43600  0.11100  0.43500  Biso   1.000  H
  H17      1.0000 0.45200  0.55500  0.39100  Biso   1.000  H
  H18      1.0000 0.54800  0.05500  0.60900  Biso   1.000  H
  N7       1.0000 0.35780  0.46690  0.00400  Biso   1.000  N
  N8       1.0000 0.64220  0.96690  0.99600  Biso   1.000  N
  H19      1.0000 0.36700  0.42200  0.99600  Biso   1.000  H
  H20      1.0000 0.63300  0.92200  0.00400  Biso   1.000  H
  H21      1.0000 0.27400  0.47900  0.11200  Biso   1.000  H
  H22      1.0000 0.72600  0.97900  0.88800  Biso   1.000  H
  C9       1.0000 0.95290  0.49450  0.42430  Biso   1.000  C
  C10      1.0000 0.04710  0.99450  0.57570  Biso   1.000  C
  C11      1.0000 0.78150  0.52800  0.58800  Biso   1.000  C
  C12      1.0000 0.21850  0.02800  0.41200  Biso   1.000  C
  H23      1.0000 0.90180  0.55660  0.68830  Biso   1.000  H
  H24      1.0000 0.09820  0.05660  0.31170  Biso   1.000  H
  C13      1.0000 0.65220  0.47530  0.72540  Biso   1.000  C
  C14      1.0000 0.34780  0.97530  0.27460  Biso   1.000  C
  H25      1.0000 0.78820  0.44370  0.79390  Biso   1.000  H
  H26      1.0000 0.21180  0.94370  0.20610  Biso   1.000  H
  H27      1.0000 0.52630  0.44710  0.63150  Biso   1.000  H
  H28      1.0000 0.47370  0.94710  0.36850  Biso   1.000  H
  C15      1.0000 0.50750  0.50950  0.90080  Biso   1.000  C
  C16      1.0000 0.49250  0.00950  0.09920  Biso   1.000  C
