data_image0
_cell_length_a       5.028
_cell_length_b       18.928
_cell_length_c       6.174
_cell_angle_alpha    90
_cell_angle_beta     96.4
_cell_angle_gamma    90

_symmetry_space_group_name_H-M    "P 1"
_symmetry_int_tables_number       1

loop_
  _symmetry_equiv_pos_as_xyz
  'x, y, z'

loop_
  _atom_site_label
  _atom_site_occupancy
  _atom_site_fract_x
  _atom_site_fract_y
  _atom_site_fract_z
  _atom_site_thermal_displace_type
  _atom_site_B_iso_or_equiv
  _atom_site_type_symbol
  C1       1.0000 0.29160  0.86300  0.36110  Biso   1.000  C
  C2       1.0000 0.70840  0.36300  0.63890  Biso   1.000  C
  C3       1.0000 0.06050  0.87980  0.50490  Biso   1.000  C
  C4       1.0000 0.93950  0.37980  0.49510  Biso   1.000  C
  C5       1.0000 0.15190  0.86910  0.74490  Biso   1.000  C
  C6       1.0000 0.84810  0.36910  0.25510  Biso   1.000  C
  C7       1.0000 0.93410  0.89200  0.87420  Biso   1.000  C
  C8       1.0000 0.06590  0.39200  0.12580  Biso   1.000  C
  C9       1.0000 0.05200  0.13490  0.07690  Biso   1.000  C
  C10      1.0000 0.94800  0.63490  0.92310  Biso   1.000  C
  C11      1.0000 0.21850  0.09950  0.90690  Biso   1.000  C
  C12      1.0000 0.78150  0.59950  0.09310  Biso   1.000  C
  C13      1.0000 0.34800  0.15280  0.78880  Biso   1.000  C
  C14      1.0000 0.65200  0.65280  0.21120  Biso   1.000  C
  C15      1.0000 0.51340  0.11830  0.60360  Biso   1.000  C
  C16      1.0000 0.48660  0.61830  0.39640  Biso   1.000  C
  N1       1.0000 0.94870  0.95070  0.43870  Biso   1.000  N
  N2       1.0000 0.05130  0.45070  0.56130  Biso   1.000  N
  N3       1.0000 0.81610  0.83630  0.98670  Biso   1.000  N
  N4       1.0000 0.18390  0.33630  0.01330  Biso   1.000  N
  N5       1.0000 0.41190  0.04940  0.03890  Biso   1.000  N
  N6       1.0000 0.58810  0.54940  0.96110  Biso   1.000  N
  N7       1.0000 0.64930  0.16400  0.49840  Biso   1.000  N
  N8       1.0000 0.35070  0.66400  0.50160  Biso   1.000  N
  O1       1.0000 0.39610  0.91260  0.25740  Biso   1.000  O
  O2       1.0000 0.60390  0.41260  0.74260  Biso   1.000  O
  O3       1.0000 0.42240  0.80560  0.39620  Biso   1.000  O
  O4       1.0000 0.57760  0.30560  0.60380  Biso   1.000  O
  O5       1.0000 0.85160  0.95000  0.89850  Biso   1.000  O
  O6       1.0000 0.14840  0.45000  0.10150  Biso   1.000  O
  O7       1.0000 0.98880  0.08840  0.22340  Biso   1.000  O
  O8       1.0000 0.01120  0.58840  0.77660  Biso   1.000  O
  O9       1.0000 0.96420  0.19370  0.05800  Biso   1.000  O
  O10      1.0000 0.03580  0.69370  0.94200  Biso   1.000  O
  O11      1.0000 0.48490  0.05370  0.56700  Biso   1.000  O
  O12      1.0000 0.51510  0.55370  0.43300  Biso   1.000  O
  Cu1      1.0000 0.19060  0.00000  0.25040  Biso   1.000  Cu
  Cu2      1.0000 0.80940  0.50000  0.74960  Biso   1.000  Cu
