data_image0
_cell_length_a       11.3702
_cell_length_b       17.1
_cell_length_c       17.374
_cell_angle_alpha    90
_cell_angle_beta     90
_cell_angle_gamma    90

_symmetry_space_group_name_H-M    "P 1"
_symmetry_int_tables_number       1

loop_
  _symmetry_equiv_pos_as_xyz
  'x, y, z'

loop_
  _atom_site_label
  _atom_site_occupancy
  _atom_site_fract_x
  _atom_site_fract_y
  _atom_site_fract_z
  _atom_site_thermal_displace_type
  _atom_site_B_iso_or_equiv
  _atom_site_type_symbol
  C1       1.0000 0.60290  0.13240  0.34340  Biso   1.000  C
  C2       1.0000 0.89710  0.86760  0.84340  Biso   1.000  C
  C3       1.0000 0.39710  0.63240  0.15660  Biso   1.000  C
  C4       1.0000 0.10290  0.36760  0.65660  Biso   1.000  C
  C5       1.0000 0.39710  0.86760  0.65660  Biso   1.000  C
  C6       1.0000 0.10290  0.13240  0.15660  Biso   1.000  C
  C7       1.0000 0.60290  0.36760  0.84340  Biso   1.000  C
  C8       1.0000 0.89710  0.63240  0.34340  Biso   1.000  C
  C9       1.0000 0.56290  0.17370  0.28070  Biso   1.000  C
  C10      1.0000 0.93710  0.82630  0.78070  Biso   1.000  C
  C11      1.0000 0.43710  0.67370  0.21930  Biso   1.000  C
  C12      1.0000 0.06290  0.32630  0.71930  Biso   1.000  C
  C13      1.0000 0.43710  0.82630  0.71930  Biso   1.000  C
  C14      1.0000 0.06290  0.17370  0.21930  Biso   1.000  C
  C15      1.0000 0.56290  0.32630  0.78070  Biso   1.000  C
  C16      1.0000 0.93710  0.67370  0.28070  Biso   1.000  C
  H1       1.0000 0.49270  0.20150  0.28310  Biso   1.000  H
  H2       1.0000 0.00730  0.79850  0.78310  Biso   1.000  H
  H3       1.0000 0.50730  0.70150  0.21690  Biso   1.000  H
  H4       1.0000 0.99270  0.29850  0.71690  Biso   1.000  H
  H5       1.0000 0.50730  0.79850  0.71690  Biso   1.000  H
  H6       1.0000 0.99270  0.20150  0.21690  Biso   1.000  H
  H7       1.0000 0.49270  0.29850  0.78310  Biso   1.000  H
  H8       1.0000 0.00730  0.70150  0.28310  Biso   1.000  H
  C17      1.0000 0.62950  0.17310  0.21420  Biso   1.000  C
  C18      1.0000 0.87050  0.82690  0.71420  Biso   1.000  C
  C19      1.0000 0.37050  0.67310  0.28580  Biso   1.000  C
  C20      1.0000 0.12950  0.32690  0.78580  Biso   1.000  C
  C21      1.0000 0.37050  0.82690  0.78580  Biso   1.000  C
  C22      1.0000 0.12950  0.17310  0.28580  Biso   1.000  C
  C23      1.0000 0.62950  0.32690  0.71420  Biso   1.000  C
  C24      1.0000 0.87050  0.67310  0.21420  Biso   1.000  C
  H9       1.0000 0.60430  0.20000  0.17070  Biso   1.000  H
  H10      1.0000 0.89570  0.80000  0.67070  Biso   1.000  H
  H11      1.0000 0.39570  0.70000  0.32930  Biso   1.000  H
  H12      1.0000 0.10430  0.30000  0.82930  Biso   1.000  H
  H13      1.0000 0.39570  0.80000  0.82930  Biso   1.000  H
  H14      1.0000 0.10430  0.20000  0.32930  Biso   1.000  H
  H15      1.0000 0.60430  0.30000  0.67070  Biso   1.000  H
  H16      1.0000 0.89570  0.70000  0.17070  Biso   1.000  H
  C25      1.0000 0.73250  0.13250  0.21300  Biso   1.000  C
  C26      1.0000 0.76750  0.86750  0.71300  Biso   1.000  C
  C27      1.0000 0.26750  0.63250  0.28700  Biso   1.000  C
  C28      1.0000 0.23250  0.36750  0.78700  Biso   1.000  C
  C29      1.0000 0.26750  0.86750  0.78700  Biso   1.000  C
  C30      1.0000 0.23250  0.13250  0.28700  Biso   1.000  C
  C31      1.0000 0.73250  0.36750  0.71300  Biso   1.000  C
  C32      1.0000 0.76750  0.63250  0.21300  Biso   1.000  C
  H17      1.0000 0.77850  0.13170  0.16870  Biso   1.000  H
  H18      1.0000 0.72150  0.86830  0.66870  Biso   1.000  H
  H19      1.0000 0.22150  0.63170  0.33130  Biso   1.000  H
  H20      1.0000 0.27850  0.36830  0.83130  Biso   1.000  H
  H21      1.0000 0.22150  0.86830  0.83130  Biso   1.000  H
  H22      1.0000 0.27850  0.13170  0.33130  Biso   1.000  H
  H23      1.0000 0.77850  0.36830  0.66870  Biso   1.000  H
  H24      1.0000 0.72150  0.63170  0.16870  Biso   1.000  H
  C33      1.0000 0.76790  0.09250  0.27780  Biso   1.000  C
  C34      1.0000 0.73210  0.90750  0.77780  Biso   1.000  C
  C35      1.0000 0.23210  0.59250  0.22220  Biso   1.000  C
  C36      1.0000 0.26790  0.40750  0.72220  Biso   1.000  C
  C37      1.0000 0.23210  0.90750  0.72220  Biso   1.000  C
  C38      1.0000 0.26790  0.09250  0.22220  Biso   1.000  C
  C39      1.0000 0.76790  0.40750  0.77780  Biso   1.000  C
  C40      1.0000 0.73210  0.59250  0.27780  Biso   1.000  C
  H25      1.0000 0.83830  0.06490  0.27660  Biso   1.000  H
  H26      1.0000 0.66170  0.93510  0.77660  Biso   1.000  H
  H27      1.0000 0.16170  0.56490  0.22340  Biso   1.000  H
  H28      1.0000 0.33830  0.43510  0.72340  Biso   1.000  H
  H29      1.0000 0.16170  0.93510  0.72340  Biso   1.000  H
  H30      1.0000 0.33830  0.06490  0.22340  Biso   1.000  H
  H31      1.0000 0.83830  0.43510  0.77660  Biso   1.000  H
  H32      1.0000 0.66170  0.56490  0.27660  Biso   1.000  H
  C41      1.0000 0.53850  0.13098  0.41700  Biso   1.000  C
  C42      1.0000 0.96150  0.86902  0.91700  Biso   1.000  C
  C43      1.0000 0.46150  0.63098  0.08300  Biso   1.000  C
  C44      1.0000 0.03850  0.36902  0.58300  Biso   1.000  C
  C45      1.0000 0.46150  0.86902  0.58300  Biso   1.000  C
  C46      1.0000 0.03850  0.13098  0.08300  Biso   1.000  C
  C47      1.0000 0.53850  0.36902  0.91700  Biso   1.000  C
  C48      1.0000 0.96150  0.63098  0.41700  Biso   1.000  C
  C49      1.0000 0.54020  0.06670  0.60590  Biso   1.000  C
  C50      1.0000 0.95980  0.93330  0.10590  Biso   1.000  C
  C51      1.0000 0.45980  0.56670  0.89410  Biso   1.000  C
  C52      1.0000 0.04020  0.43330  0.39410  Biso   1.000  C
  C53      1.0000 0.45980  0.93330  0.39410  Biso   1.000  C
  C54      1.0000 0.04020  0.06670  0.89410  Biso   1.000  C
  C55      1.0000 0.54020  0.43330  0.10590  Biso   1.000  C
  C56      1.0000 0.95980  0.56670  0.60590  Biso   1.000  C
  C57      1.0000 0.45140  0.09210  0.66460  Biso   1.000  C
  C58      1.0000 0.04860  0.90790  0.16460  Biso   1.000  C
  C59      1.0000 0.54860  0.59210  0.83540  Biso   1.000  C
  C60      1.0000 0.95140  0.40790  0.33540  Biso   1.000  C
  C61      1.0000 0.54860  0.90790  0.33540  Biso   1.000  C
  C62      1.0000 0.95140  0.09210  0.83540  Biso   1.000  C
  C63      1.0000 0.45140  0.40790  0.16460  Biso   1.000  C
  C64      1.0000 0.04860  0.59210  0.66460  Biso   1.000  C
  C65      1.0000 0.45780  0.07180  0.74020  Biso   1.000  C
  C66      1.0000 0.04220  0.92820  0.24020  Biso   1.000  C
  C67      1.0000 0.54220  0.57180  0.75980  Biso   1.000  C
  C68      1.0000 0.95780  0.42820  0.25980  Biso   1.000  C
  C69      1.0000 0.54220  0.92820  0.25980  Biso   1.000  C
  C70      1.0000 0.95780  0.07180  0.75980  Biso   1.000  C
  C71      1.0000 0.45780  0.42820  0.24020  Biso   1.000  C
  C72      1.0000 0.04220  0.57180  0.74020  Biso   1.000  C
  H33      1.0000 0.51910  0.04030  0.75740  Biso   1.000  H
  H34      1.0000 0.98090  0.95970  0.25740  Biso   1.000  H
  H35      1.0000 0.48090  0.54030  0.74260  Biso   1.000  H
  H36      1.0000 0.01910  0.45970  0.24260  Biso   1.000  H
  H37      1.0000 0.48090  0.95970  0.24260  Biso   1.000  H
  H38      1.0000 0.01910  0.04030  0.74260  Biso   1.000  H
  H39      1.0000 0.51910  0.45970  0.25740  Biso   1.000  H
  H40      1.0000 0.98090  0.54030  0.75740  Biso   1.000  H
  C73      1.0000 0.37400  0.09770  0.79110  Biso   1.000  C
  C74      1.0000 0.12600  0.90230  0.29110  Biso   1.000  C
  C75      1.0000 0.62600  0.59770  0.70890  Biso   1.000  C
  C76      1.0000 0.87400  0.40230  0.20890  Biso   1.000  C
  C77      1.0000 0.62600  0.90230  0.20890  Biso   1.000  C
  C78      1.0000 0.87400  0.09770  0.70890  Biso   1.000  C
  C79      1.0000 0.37400  0.40230  0.29110  Biso   1.000  C
  C80      1.0000 0.12600  0.59770  0.79110  Biso   1.000  C
  H41      1.0000 0.37760  0.08360  0.84270  Biso   1.000  H
  H42      1.0000 0.12240  0.91640  0.34270  Biso   1.000  H
  H43      1.0000 0.62240  0.58360  0.65730  Biso   1.000  H
  H44      1.0000 0.87760  0.41640  0.15730  Biso   1.000  H
  H45      1.0000 0.62240  0.91640  0.15730  Biso   1.000  H
  H46      1.0000 0.87760  0.08360  0.65730  Biso   1.000  H
  H47      1.0000 0.37760  0.41640  0.34270  Biso   1.000  H
  H48      1.0000 0.12240  0.58360  0.84270  Biso   1.000  H
  C81      1.0000 0.28530  0.14440  0.76450  Biso   1.000  C
  C82      1.0000 0.21470  0.85560  0.26450  Biso   1.000  C
  C83      1.0000 0.71470  0.64440  0.73550  Biso   1.000  C
  C84      1.0000 0.78530  0.35560  0.23550  Biso   1.000  C
  C85      1.0000 0.71470  0.85560  0.23550  Biso   1.000  C
  C86      1.0000 0.78530  0.14440  0.73550  Biso   1.000  C
  C87      1.0000 0.28530  0.35560  0.26450  Biso   1.000  C
  C88      1.0000 0.21470  0.64440  0.76450  Biso   1.000  C
  H49      1.0000 0.22840  0.16350  0.79810  Biso   1.000  H
  H50      1.0000 0.27160  0.83650  0.29810  Biso   1.000  H
  H51      1.0000 0.77160  0.66350  0.70190  Biso   1.000  H
  H52      1.0000 0.72840  0.33650  0.20190  Biso   1.000  H
  H53      1.0000 0.77160  0.83650  0.20190  Biso   1.000  H
  H54      1.0000 0.72840  0.16350  0.70190  Biso   1.000  H
  H55      1.0000 0.22840  0.33650  0.29810  Biso   1.000  H
  H56      1.0000 0.27160  0.66350  0.79810  Biso   1.000  H
  C89      1.0000 0.28130  0.16290  0.68770  Biso   1.000  C
  C90      1.0000 0.21870  0.83710  0.18770  Biso   1.000  C
  C91      1.0000 0.71870  0.66290  0.81230  Biso   1.000  C
  C92      1.0000 0.78130  0.33710  0.31230  Biso   1.000  C
  C93      1.0000 0.71870  0.83710  0.31230  Biso   1.000  C
  C94      1.0000 0.78130  0.16290  0.81230  Biso   1.000  C
  C95      1.0000 0.28130  0.33710  0.18770  Biso   1.000  C
  C96      1.0000 0.21870  0.66290  0.68770  Biso   1.000  C
  H57      1.0000 0.21980  0.19360  0.66950  Biso   1.000  H
  H58      1.0000 0.28020  0.80640  0.16950  Biso   1.000  H
  H59      1.0000 0.78020  0.69360  0.83050  Biso   1.000  H
  H60      1.0000 0.71980  0.30640  0.33050  Biso   1.000  H
  H61      1.0000 0.78020  0.80640  0.33050  Biso   1.000  H
  H62      1.0000 0.71980  0.19360  0.83050  Biso   1.000  H
  H63      1.0000 0.21980  0.30640  0.16950  Biso   1.000  H
  H64      1.0000 0.28020  0.69360  0.66950  Biso   1.000  H
  Cu1      1.0000 0.73860  0.03746  0.44099  Biso   1.000  Cu
  Cu2      1.0000 0.76140  0.96254  0.94099  Biso   1.000  Cu
  Cu3      1.0000 0.26140  0.53746  0.05901  Biso   1.000  Cu
  Cu4      1.0000 0.23860  0.46254  0.55901  Biso   1.000  Cu
  Cu5      1.0000 0.26140  0.96254  0.55901  Biso   1.000  Cu
  Cu6      1.0000 0.23860  0.03746  0.05901  Biso   1.000  Cu
  Cu7      1.0000 0.73860  0.46254  0.94099  Biso   1.000  Cu
  Cu8      1.0000 0.76140  0.53746  0.44099  Biso   1.000  Cu
  Cu9      1.0000 0.38654  0.16688  0.52814  Biso   1.000  Cu
  Cu10     1.0000 0.11346  0.83312  0.02814  Biso   1.000  Cu
  Cu11     1.0000 0.61346  0.66688  0.97186  Biso   1.000  Cu
  Cu12     1.0000 0.88654  0.33312  0.47186  Biso   1.000  Cu
  Cu13     1.0000 0.61346  0.83312  0.47186  Biso   1.000  Cu
  Cu14     1.0000 0.88654  0.16688  0.97186  Biso   1.000  Cu
  Cu15     1.0000 0.38654  0.33312  0.02814  Biso   1.000  Cu
  Cu16     1.0000 0.11346  0.66688  0.52814  Biso   1.000  Cu
  N1       1.0000 0.70420  0.09232  0.34258  Biso   1.000  N
  N2       1.0000 0.79580  0.90768  0.84258  Biso   1.000  N
  N3       1.0000 0.29580  0.59232  0.15742  Biso   1.000  N
  N4       1.0000 0.20420  0.40768  0.65742  Biso   1.000  N
  N5       1.0000 0.29580  0.90768  0.65742  Biso   1.000  N
  N6       1.0000 0.20420  0.09232  0.15742  Biso   1.000  N
  N7       1.0000 0.70420  0.40768  0.84258  Biso   1.000  N
  N8       1.0000 0.79580  0.59232  0.34258  Biso   1.000  N
  N9       1.0000 0.58840  0.09041  0.47330  Biso   1.000  N
  N10      1.0000 0.91160  0.90959  0.97330  Biso   1.000  N
  N11      1.0000 0.41160  0.59041  0.02670  Biso   1.000  N
  N12      1.0000 0.08840  0.40959  0.52670  Biso   1.000  N
  N13      1.0000 0.41160  0.90959  0.52670  Biso   1.000  N
  N14      1.0000 0.08840  0.09041  0.02670  Biso   1.000  N
  N15      1.0000 0.58840  0.40959  0.97330  Biso   1.000  N
  N16      1.0000 0.91160  0.59041  0.47330  Biso   1.000  N
  N17      1.0000 0.51960  0.09844  0.53940  Biso   1.000  N
  N18      1.0000 0.98040  0.90156  0.03940  Biso   1.000  N
  N19      1.0000 0.48040  0.59844  0.96060  Biso   1.000  N
  N20      1.0000 0.01960  0.40156  0.46060  Biso   1.000  N
  N21      1.0000 0.48040  0.90156  0.46060  Biso   1.000  N
  N22      1.0000 0.01960  0.09844  0.96060  Biso   1.000  N
  N23      1.0000 0.51960  0.40156  0.03940  Biso   1.000  N
  N24      1.0000 0.98040  0.59844  0.53940  Biso   1.000  N
  N25      1.0000 0.36290  0.13806  0.63835  Biso   1.000  N
  N26      1.0000 0.13710  0.86194  0.13835  Biso   1.000  N
  N27      1.0000 0.63710  0.63806  0.86165  Biso   1.000  N
  N28      1.0000 0.86290  0.36194  0.36165  Biso   1.000  N
  N29      1.0000 0.63710  0.86194  0.36165  Biso   1.000  N
  N30      1.0000 0.86290  0.13806  0.86165  Biso   1.000  N
  N31      1.0000 0.36290  0.36194  0.13835  Biso   1.000  N
  N32      1.0000 0.13710  0.63806  0.63835  Biso   1.000  N
  O1       1.0000 0.03700  0.08268  0.43524  Biso   1.000  O
  O2       1.0000 0.46300  0.91732  0.93524  Biso   1.000  O
  O3       1.0000 0.96300  0.58268  0.06476  Biso   1.000  O
  O4       1.0000 0.53700  0.41732  0.56476  Biso   1.000  O
  O5       1.0000 0.96300  0.91732  0.56476  Biso   1.000  O
  O6       1.0000 0.53700  0.08268  0.06476  Biso   1.000  O
  O7       1.0000 0.03700  0.41732  0.93524  Biso   1.000  O
  O8       1.0000 0.46300  0.58268  0.43524  Biso   1.000  O
  O9       1.0000 0.05140  0.15226  0.55416  Biso   1.000  O
  O10      1.0000 0.44860  0.84774  0.05416  Biso   1.000  O
  O11      1.0000 0.94860  0.65226  0.94584  Biso   1.000  O
  O12      1.0000 0.55140  0.34774  0.44584  Biso   1.000  O
  O13      1.0000 0.94860  0.84774  0.44584  Biso   1.000  O
  O14      1.0000 0.55140  0.15226  0.94584  Biso   1.000  O
  O15      1.0000 0.05140  0.34774  0.05416  Biso   1.000  O
  O16      1.0000 0.44860  0.65226  0.55416  Biso   1.000  O
  O17      1.0000 0.98920  0.21939  0.44091  Biso   1.000  O
  O18      1.0000 0.51080  0.78061  0.94091  Biso   1.000  O
  O19      1.0000 0.01080  0.71939  0.05909  Biso   1.000  O
  O20      1.0000 0.48920  0.28061  0.55909  Biso   1.000  O
  O21      1.0000 0.01080  0.78061  0.55909  Biso   1.000  O
  O22      1.0000 0.48920  0.21939  0.05909  Biso   1.000  O
  O23      1.0000 0.98920  0.28061  0.94091  Biso   1.000  O
  O24      1.0000 0.51080  0.71939  0.44091  Biso   1.000  O
  O25      1.0000 0.25090  0.23462  0.51060  Biso   1.000  O
  O26      1.0000 0.24910  0.76538  0.01060  Biso   1.000  O
  O27      1.0000 0.74910  0.73462  0.98940  Biso   1.000  O
  O28      1.0000 0.75090  0.26538  0.48940  Biso   1.000  O
  O29      1.0000 0.74910  0.76538  0.48940  Biso   1.000  O
  O30      1.0000 0.75090  0.23462  0.98940  Biso   1.000  O
  O31      1.0000 0.25090  0.26538  0.01060  Biso   1.000  O
  O32      1.0000 0.24910  0.73462  0.51060  Biso   1.000  O
  H65      1.0000 0.20910  0.23630  0.55120  Biso   1.000  H
  H66      1.0000 0.29090  0.76370  0.05120  Biso   1.000  H
  H67      1.0000 0.79090  0.73630  0.94880  Biso   1.000  H
  H68      1.0000 0.70910  0.26370  0.44880  Biso   1.000  H
  H69      1.0000 0.79090  0.76370  0.44880  Biso   1.000  H
  H70      1.0000 0.70910  0.23630  0.94880  Biso   1.000  H
  H71      1.0000 0.20910  0.26370  0.05120  Biso   1.000  H
  H72      1.0000 0.29090  0.73630  0.55120  Biso   1.000  H
  H73      1.0000 0.20930  0.21570  0.47450  Biso   1.000  H
  H74      1.0000 0.29070  0.78430  0.97450  Biso   1.000  H
  H75      1.0000 0.79070  0.71570  0.02550  Biso   1.000  H
  H76      1.0000 0.70930  0.28430  0.52550  Biso   1.000  H
  H77      1.0000 0.79070  0.78430  0.52550  Biso   1.000  H
  H78      1.0000 0.70930  0.21570  0.02550  Biso   1.000  H
  H79      1.0000 0.20930  0.28430  0.97450  Biso   1.000  H
  H80      1.0000 0.29070  0.71570  0.47450  Biso   1.000  H
  O33      1.0000 0.87550  0.98601  0.39161  Biso   1.000  O
  O34      1.0000 0.62450  0.01399  0.89161  Biso   1.000  O
  O35      1.0000 0.12450  0.48601  0.10839  Biso   1.000  O
  O36      1.0000 0.37550  0.51399  0.60839  Biso   1.000  O
  O37      1.0000 0.12450  0.01399  0.60839  Biso   1.000  O
  O38      1.0000 0.37550  0.98601  0.10839  Biso   1.000  O
  O39      1.0000 0.87550  0.51399  0.89161  Biso   1.000  O
  O40      1.0000 0.62450  0.48601  0.39161  Biso   1.000  O
  H81      1.0000 0.92750  0.97730  0.42570  Biso   1.000  H
  H82      1.0000 0.57250  0.02270  0.92570  Biso   1.000  H
  H83      1.0000 0.07250  0.47730  0.07430  Biso   1.000  H
  H84      1.0000 0.42750  0.52270  0.57430  Biso   1.000  H
  H85      1.0000 0.07250  0.02270  0.57430  Biso   1.000  H
  H86      1.0000 0.42750  0.97730  0.07430  Biso   1.000  H
  H87      1.0000 0.92750  0.52270  0.92570  Biso   1.000  H
  H88      1.0000 0.57250  0.47730  0.42570  Biso   1.000  H
  H89      1.0000 0.85380  0.94290  0.37170  Biso   1.000  H
  H90      1.0000 0.64620  0.05710  0.87170  Biso   1.000  H
  H91      1.0000 0.14620  0.44290  0.12830  Biso   1.000  H
  H92      1.0000 0.35380  0.55710  0.62830  Biso   1.000  H
  H93      1.0000 0.14620  0.05710  0.62830  Biso   1.000  H
  H94      1.0000 0.35380  0.94290  0.12830  Biso   1.000  H
  H95      1.0000 0.85380  0.55710  0.87170  Biso   1.000  H
  H96      1.0000 0.64620  0.44290  0.37170  Biso   1.000  H
  O41      1.0000 0.74220  0.96029  0.52241  Biso   1.000  O
  O42      1.0000 0.75780  0.03971  0.02241  Biso   1.000  O
  O43      1.0000 0.25780  0.46029  0.97759  Biso   1.000  O
  O44      1.0000 0.24220  0.53971  0.47759  Biso   1.000  O
  O45      1.0000 0.25780  0.03971  0.47759  Biso   1.000  O
  O46      1.0000 0.24220  0.96029  0.97759  Biso   1.000  O
  O47      1.0000 0.74220  0.53971  0.02241  Biso   1.000  O
  O48      1.0000 0.75780  0.46029  0.52241  Biso   1.000  O
  H97      1.0000 0.80280  0.93170  0.51730  Biso   1.000  H
  H98      1.0000 0.69720  0.06830  0.01730  Biso   1.000  H
  H99      1.0000 0.19720  0.43170  0.98270  Biso   1.000  H
  H100     1.0000 0.30280  0.56830  0.48270  Biso   1.000  H
  H101     1.0000 0.19720  0.06830  0.48270  Biso   1.000  H
  H102     1.0000 0.30280  0.93170  0.98270  Biso   1.000  H
  H103     1.0000 0.80280  0.56830  0.01730  Biso   1.000  H
  H104     1.0000 0.69720  0.43170  0.51730  Biso   1.000  H
  H105     1.0000 0.74460  0.98330  0.56580  Biso   1.000  H
  H106     1.0000 0.75540  0.01670  0.06580  Biso   1.000  H
  H107     1.0000 0.25540  0.48330  0.93420  Biso   1.000  H
  H108     1.0000 0.24460  0.51670  0.43420  Biso   1.000  H
  H109     1.0000 0.25540  0.01670  0.43420  Biso   1.000  H
  H110     1.0000 0.24460  0.98330  0.93420  Biso   1.000  H
  H111     1.0000 0.74460  0.51670  0.06580  Biso   1.000  H
  H112     1.0000 0.75540  0.48330  0.56580  Biso   1.000  H
  O49      1.0000 0.86070  0.12521  0.49927  Biso   1.000  O
  O50      1.0000 0.63930  0.87479  0.99927  Biso   1.000  O
  O51      1.0000 0.13930  0.62521  0.00073  Biso   1.000  O
  O52      1.0000 0.36070  0.37479  0.50073  Biso   1.000  O
  O53      1.0000 0.13930  0.87479  0.50073  Biso   1.000  O
  O54      1.0000 0.36070  0.12521  0.00073  Biso   1.000  O
  O55      1.0000 0.86070  0.37479  0.99927  Biso   1.000  O
  O56      1.0000 0.63930  0.62521  0.49927  Biso   1.000  O
  O57      1.0000 0.44280  0.16882  0.42211  Biso   1.000  O
  O58      1.0000 0.05720  0.83118  0.92211  Biso   1.000  O
  O59      1.0000 0.55720  0.66882  0.07789  Biso   1.000  O
  O60      1.0000 0.94280  0.33118  0.57789  Biso   1.000  O
  O61      1.0000 0.55720  0.83118  0.57789  Biso   1.000  O
  O62      1.0000 0.94280  0.16882  0.07789  Biso   1.000  O
  O63      1.0000 0.44280  0.33118  0.92211  Biso   1.000  O
  O64      1.0000 0.05720  0.66882  0.42211  Biso   1.000  O
  O65      1.0000 0.62010  0.02059  0.62692  Biso   1.000  O
  O66      1.0000 0.87990  0.97941  0.12692  Biso   1.000  O
  O67      1.0000 0.37990  0.52059  0.87308  Biso   1.000  O
  O68      1.0000 0.12010  0.47941  0.37308  Biso   1.000  O
  O69      1.0000 0.37990  0.97941  0.37308  Biso   1.000  O
  O70      1.0000 0.12010  0.02059  0.87308  Biso   1.000  O
  O71      1.0000 0.62010  0.47941  0.12692  Biso   1.000  O
  O72      1.0000 0.87990  0.52059  0.62692  Biso   1.000  O
  S1       1.0000 0.98399  0.14571  0.48239  Biso   1.000  S
  S2       1.0000 0.51601  0.85429  0.98239  Biso   1.000  S
  S3       1.0000 0.01601  0.64571  0.01761  Biso   1.000  S
  S4       1.0000 0.48399  0.35429  0.51761  Biso   1.000  S
  S5       1.0000 0.01601  0.85429  0.51761  Biso   1.000  S
  S6       1.0000 0.48399  0.14571  0.01761  Biso   1.000  S
  S7       1.0000 0.98399  0.35429  0.98239  Biso   1.000  S
  S8       1.0000 0.51601  0.64571  0.48239  Biso   1.000  S
