data_image0
_cell_length_a       9.8549
_cell_length_b       12.9803
_cell_length_c       13.1435
_cell_angle_alpha    88.025
_cell_angle_beta     78.041
_cell_angle_gamma    85.364

_symmetry_space_group_name_H-M    "P 1"
_symmetry_int_tables_number       1

loop_
  _symmetry_equiv_pos_as_xyz
  'x, y, z'

loop_
  _atom_site_label
  _atom_site_occupancy
  _atom_site_fract_x
  _atom_site_fract_y
  _atom_site_fract_z
  _atom_site_thermal_displace_type
  _atom_site_B_iso_or_equiv
  _atom_site_type_symbol
  C1       1.0000 0.51750  0.15410  0.17600  Biso   1.000  C
  C2       1.0000 0.48250  0.84590  0.82400  Biso   1.000  C
  H1       1.0000 0.53010  0.18000  0.10800  Biso   1.000  H
  H2       1.0000 0.46990  0.82000  0.89200  Biso   1.000  H
  C3       1.0000 0.48360  0.22130  0.25600  Biso   1.000  C
  C4       1.0000 0.51640  0.77870  0.74400  Biso   1.000  C
  H3       1.0000 0.47130  0.29200  0.24310  Biso   1.000  H
  H4       1.0000 0.52870  0.70800  0.75690  Biso   1.000  H
  C5       1.0000 0.46760  0.18320  0.35650  Biso   1.000  C
  C6       1.0000 0.53240  0.81680  0.64350  Biso   1.000  C
  H5       1.0000 0.44620  0.22810  0.41220  Biso   1.000  H
  H6       1.0000 0.55380  0.77190  0.58780  Biso   1.000  H
  C7       1.0000 0.48370  0.07790  0.37420  Biso   1.000  C
  C8       1.0000 0.51630  0.92210  0.62580  Biso   1.000  C
  H7       1.0000 0.47350  0.05080  0.44150  Biso   1.000  H
  H8       1.0000 0.52650  0.94920  0.55850  Biso   1.000  H
  C9       1.0000 0.51490  0.01420  0.29040  Biso   1.000  C
  C10      1.0000 0.48510  0.98580  0.70960  Biso   1.000  C
  C11      1.0000 0.53280  0.89790  0.30150  Biso   1.000  C
  C12      1.0000 0.46720  0.10210  0.69850  Biso   1.000  C
  C13      1.0000 0.61330  0.73580  0.09170  Biso   1.000  C
  C14      1.0000 0.38670  0.26420  0.90830  Biso   1.000  C
  C15      1.0000 0.63990  0.62730  0.05640  Biso   1.000  C
  C16      1.0000 0.36010  0.37270  0.94360  Biso   1.000  C
  C17      1.0000 0.66780  0.60250  0.95320  Biso   1.000  C
  C18      1.0000 0.33220  0.39750  0.04680  Biso   1.000  C
  H9       1.0000 0.67240  0.65390  0.90190  Biso   1.000  H
  H10      1.0000 0.32760  0.34610  0.09810  Biso   1.000  H
  C19      1.0000 0.68890  0.49990  0.92740  Biso   1.000  C
  C20      1.0000 0.31110  0.50010  0.07260  Biso   1.000  C
  H11      1.0000 0.70700  0.48070  0.85810  Biso   1.000  H
  H12      1.0000 0.29300  0.51930  0.14190  Biso   1.000  H
  C21      1.0000 0.68280  0.42650  0.00470  Biso   1.000  C
  C22      1.0000 0.31720  0.57350  0.99530  Biso   1.000  C
  H13      1.0000 0.69600  0.35670  0.98850  Biso   1.000  H
  H14      1.0000 0.30400  0.64330  0.01150  Biso   1.000  H
  C23      1.0000 0.65720  0.45610  0.10590  Biso   1.000  C
  C24      1.0000 0.34280  0.54390  0.89410  Biso   1.000  C
  H15      1.0000 0.65570  0.40560  0.15800  Biso   1.000  H
  H16      1.0000 0.34430  0.59440  0.84200  Biso   1.000  H
  C25      1.0000 0.97030  0.82640  0.83650  Biso   1.000  C
  C26      1.0000 0.02970  0.17360  0.16350  Biso   1.000  C
  H17      1.0000 0.95430  0.89350  0.81220  Biso   1.000  H
  H18      1.0000 0.04570  0.10650  0.18780  Biso   1.000  H
  C27      1.0000 0.01120  0.74890  0.76610  Biso   1.000  C
  C28      1.0000 0.98880  0.25110  0.23390  Biso   1.000  C
  H19      1.0000 0.02380  0.76310  0.69500  Biso   1.000  H
  H20      1.0000 0.97620  0.23690  0.30500  Biso   1.000  H
  C29      1.0000 0.03330  0.64870  0.80300  Biso   1.000  C
  C30      1.0000 0.96670  0.35130  0.19700  Biso   1.000  C
  H21      1.0000 0.06100  0.59470  0.75680  Biso   1.000  H
  H22      1.0000 0.93900  0.40530  0.24320  Biso   1.000  H
  C31      1.0000 0.01410  0.63030  0.90760  Biso   1.000  C
  C32      1.0000 0.98590  0.36970  0.09240  Biso   1.000  C
  H23      1.0000 0.02680  0.56350  0.93360  Biso   1.000  H
  H24      1.0000 0.97320  0.43650  0.06640  Biso   1.000  H
  C33      1.0000 0.97560  0.71240  0.97420  Biso   1.000  C
  C34      1.0000 0.02440  0.28760  0.02580  Biso   1.000  C
  C35      1.0000 0.95470  0.69880  0.09030  Biso   1.000  C
  C36      1.0000 0.04530  0.30120  0.90970  Biso   1.000  C
  C37      1.0000 0.86800  0.90270  0.25940  Biso   1.000  C
  C38      1.0000 0.13200  0.09730  0.74060  Biso   1.000  C
  C39      1.0000 0.85210  0.93610  0.36790  Biso   1.000  C
  C40      1.0000 0.14790  0.06390  0.63210  Biso   1.000  C
  C41      1.0000 0.81380  0.03720  0.39660  Biso   1.000  C
  C42      1.0000 0.18620  0.96280  0.60340  Biso   1.000  C
  H25      1.0000 0.79620  0.08730  0.34770  Biso   1.000  H
  H26      1.0000 0.20380  0.91270  0.65230  Biso   1.000  H
  C43      1.0000 0.80230  0.06240  0.49790  Biso   1.000  C
  C44      1.0000 0.19770  0.93760  0.50210  Biso   1.000  C
  H27      1.0000 0.77600  0.13000  0.51910  Biso   1.000  H
  H28      1.0000 0.22400  0.87000  0.48090  Biso   1.000  H
  C45      1.0000 0.82970  0.98720  0.56850  Biso   1.000  C
  C46      1.0000 0.17030  0.01280  0.43150  Biso   1.000  C
  H29      1.0000 0.82310  0.00350  0.63780  Biso   1.000  H
  H30      1.0000 0.17690  0.99650  0.36220  Biso   1.000  H
  C47      1.0000 0.86700  0.88740  0.53540  Biso   1.000  C
  C48      1.0000 0.13300  0.11260  0.46460  Biso   1.000  C
  H31      1.0000 0.88360  0.83630  0.58360  Biso   1.000  H
  H32      1.0000 0.11640  0.16370  0.41640  Biso   1.000  H
  Cu1      1.0000 0.57559  0.94154  0.08919  Biso   1.000  Cu
  Cu2      1.0000 0.42441  0.05846  0.91081  Biso   1.000  Cu
  Cu3      1.0000 0.90480  0.90894  0.05277  Biso   1.000  Cu
  Cu4      1.0000 0.09520  0.09106  0.94723  Biso   1.000  Cu
  Cu5      1.0000 0.60640  0.61550  0.27320  Biso   1.000  Cu
  Cu6      1.0000 0.39360  0.38450  0.72680  Biso   1.000  Cu
  Cu7      1.0000 0.94750  0.72648  0.37077  Biso   1.000  Cu
  Cu8      1.0000 0.05250  0.27352  0.62923  Biso   1.000  Cu
  N1       1.0000 0.53320  0.05150  0.19220  Biso   1.000  N
  N2       1.0000 0.46680  0.94850  0.80780  Biso   1.000  N
  N3       1.0000 0.55830  0.85480  0.21140  Biso   1.000  N
  N4       1.0000 0.44170  0.14520  0.78860  Biso   1.000  N
  N5       1.0000 0.58290  0.74840  0.19270  Biso   1.000  N
  N6       1.0000 0.41710  0.25160  0.80730  Biso   1.000  N
  O1       1.0000 0.62390  0.80734  0.02270  Biso   1.000  O
  O2       1.0000 0.37610  0.19266  0.97730  Biso   1.000  O
  N7       1.0000 0.63400  0.55620  0.13260  Biso   1.000  N
  N8       1.0000 0.36600  0.44380  0.86740  Biso   1.000  N
  N9       1.0000 0.95280  0.80900  0.93830  Biso   1.000  N
  N10      1.0000 0.04720  0.19100  0.06170  Biso   1.000  N
  N11      1.0000 0.92500  0.78780  0.13560  Biso   1.000  N
  N12      1.0000 0.07500  0.21220  0.86440  Biso   1.000  N
  N13      1.0000 0.90470  0.80250  0.24250  Biso   1.000  N
  N14      1.0000 0.09530  0.19750  0.75750  Biso   1.000  N
  N15      1.0000 0.88010  0.86200  0.43530  Biso   1.000  N
  N16      1.0000 0.11990  0.13800  0.56470  Biso   1.000  N
  O3       1.0000 0.84960  0.97051  0.19040  Biso   1.000  O
  O4       1.0000 0.15040  0.02949  0.80960  Biso   1.000  O
  O5       1.0000 0.52310  0.85910  0.39050  Biso   1.000  O
  O6       1.0000 0.47690  0.14090  0.60950  Biso   1.000  O
  O7       1.0000 0.96720  0.60970  0.12800  Biso   1.000  O
  O8       1.0000 0.03280  0.39030  0.87200  Biso   1.000  O
  O9       1.0000 0.64830  0.47699  0.33480  Biso   1.000  O
  O10      1.0000 0.35170  0.52301  0.66520  Biso   1.000  O
  H33      1.0000 0.73590  0.46590  0.32830  Biso   1.000  H
  H34      1.0000 0.26410  0.53410  0.67170  Biso   1.000  H
  H35      1.0000 0.60990  0.47600  0.39900  Biso   1.000  H
  H36      1.0000 0.39010  0.52400  0.60100  Biso   1.000  H
  O11      1.0000 0.64230  0.68030  0.39330  Biso   1.000  O
  O12      1.0000 0.35770  0.31970  0.60670  Biso   1.000  O
  H37      1.0000 0.58880  0.73510  0.40600  Biso   1.000  H
  H38      1.0000 0.41120  0.26490  0.59400  Biso   1.000  H
  H39      1.0000 0.62680  0.63880  0.44510  Biso   1.000  H
  H40      1.0000 0.37320  0.36120  0.55490  Biso   1.000  H
  O13      1.0000 0.96630  0.58880  0.31730  Biso   1.000  O
  O14      1.0000 0.03370  0.41120  0.68270  Biso   1.000  O
  H41      1.0000 0.99990  0.59060  0.25230  Biso   1.000  H
  H42      1.0000 0.00010  0.40940  0.74770  Biso   1.000  H
  H43      1.0000 0.02100  0.55120  0.34780  Biso   1.000  H
  H44      1.0000 0.97900  0.44880  0.65220  Biso   1.000  H
  O15      1.0000 0.98120  0.66730  0.50840  Biso   1.000  O
  O16      1.0000 0.01880  0.33270  0.49160  Biso   1.000  O
  H45      1.0000 0.90590  0.64680  0.54430  Biso   1.000  H
  H46      1.0000 0.09410  0.35320  0.45570  Biso   1.000  H
  H47      1.0000 0.04210  0.61650  0.49710  Biso   1.000  H
  H48      1.0000 0.95790  0.38350  0.50290  Biso   1.000  H
  O17      1.0000 0.17540  0.75990  0.32530  Biso   1.000  O
  O18      1.0000 0.82460  0.24010  0.67470  Biso   1.000  O
  H49      1.0000 0.19090  0.78800  0.26510  Biso   1.000  H
  H50      1.0000 0.80910  0.21200  0.73490  Biso   1.000  H
  H51      1.0000 0.22610  0.70370  0.32470  Biso   1.000  H
  H52      1.0000 0.77390  0.29630  0.67530  Biso   1.000  H
  O19      1.0000 0.36690  0.97643  0.03770  Biso   1.000  O
  O20      1.0000 0.63310  0.02357  0.96230  Biso   1.000  O
  O21      1.0000 0.12980  0.96558  0.02500  Biso   1.000  O
  O22      1.0000 0.87020  0.03442  0.97500  Biso   1.000  O
  O23      1.0000 0.19720  0.93620  0.18860  Biso   1.000  O
  O24      1.0000 0.80280  0.06380  0.81140  Biso   1.000  O
  O25      1.0000 0.26820  0.81250  0.05480  Biso   1.000  O
  O26      1.0000 0.73180  0.18750  0.94520  Biso   1.000  O
  O27      1.0000 0.23300  0.56720  0.49770  Biso   1.000  O
  O28      1.0000 0.76700  0.43280  0.50230  Biso   1.000  O
  O29      1.0000 0.18540  0.46480  0.36310  Biso   1.000  O
  O30      1.0000 0.81460  0.53520  0.63690  Biso   1.000  O
  O31      1.0000 0.39710  0.42750  0.42640  Biso   1.000  O
  O32      1.0000 0.60290  0.57250  0.57360  Biso   1.000  O
  O33      1.0000 0.36840  0.58100  0.32290  Biso   1.000  O
  O34      1.0000 0.63160  0.41900  0.67710  Biso   1.000  O
  S1       1.0000 0.24009  0.91978  0.07900  Biso   1.000  S
  S2       1.0000 0.75991  0.08022  0.92100  Biso   1.000  S
  S3       1.0000 0.29587  0.51082  0.40203  Biso   1.000  S
  S4       1.0000 0.70413  0.48918  0.59797  Biso   1.000  S
