data_image0
_cell_length_a       5.1625
_cell_length_b       9.7839
_cell_length_c       14.709
_cell_angle_alpha    90
_cell_angle_beta     90.773
_cell_angle_gamma    90

_symmetry_space_group_name_H-M    "P 1"
_symmetry_int_tables_number       1

loop_
  _symmetry_equiv_pos_as_xyz
  'x, y, z'

loop_
  _atom_site_label
  _atom_site_occupancy
  _atom_site_fract_x
  _atom_site_fract_y
  _atom_site_fract_z
  _atom_site_thermal_displace_type
  _atom_site_B_iso_or_equiv
  _atom_site_type_symbol
  Cu1      1.0000 0.17773  0.19124  0.46672  Biso   1.000  Cu
  Cu2      1.0000 0.82227  0.69124  0.53328  Biso   1.000  Cu
  P1       1.0000 0.30770  0.89370  0.55633  Biso   1.000  P
  P2       1.0000 0.69230  0.39370  0.44367  Biso   1.000  P
  O1       1.0000 0.36030  0.02090  0.49880  Biso   1.000  O
  O2       1.0000 0.63970  0.52090  0.50120  Biso   1.000  O
  C1       1.0000 0.95310  0.26010  0.80370  Biso   1.000  C
  C2       1.0000 0.04690  0.76010  0.19630  Biso   1.000  C
  C3       1.0000 0.21970  0.04640  0.71560  Biso   1.000  C
  C4       1.0000 0.78030  0.54640  0.28440  Biso   1.000  C
  C5       1.0000 0.28840  0.18380  0.70300  Biso   1.000  C
  C6       1.0000 0.71160  0.68380  0.29700  Biso   1.000  C
  H1       1.0000 0.42420  0.20550  0.66460  Biso   1.000  H
  H2       1.0000 0.57580  0.70550  0.33540  Biso   1.000  H
  C7       1.0000 0.83800  0.36960  0.85810  Biso   1.000  C
  C8       1.0000 0.16200  0.86960  0.14190  Biso   1.000  C
  C9       1.0000 0.01010  0.01890  0.76950  Biso   1.000  C
  C10      1.0000 0.98990  0.51890  0.23050  Biso   1.000  C
  H3       1.0000 0.95600  0.92900  0.77740  Biso   1.000  H
  H4       1.0000 0.04400  0.42900  0.22260  Biso   1.000  H
  C11      1.0000 0.37180  0.93190  0.67340  Biso   1.000  C
  C12      1.0000 0.62820  0.43190  0.32660  Biso   1.000  C
  H5       1.0000 0.34090  0.84960  0.70840  Biso   1.000  H
  H6       1.0000 0.65910  0.34960  0.29160  Biso   1.000  H
  H7       1.0000 0.55450  0.95360  0.67990  Biso   1.000  H
  H8       1.0000 0.44550  0.45360  0.32010  Biso   1.000  H
  C13      1.0000 0.15960  0.28550  0.74580  Biso   1.000  C
  C14      1.0000 0.84040  0.78550  0.25420  Biso   1.000  C
  H9       1.0000 0.21080  0.37540  0.73630  Biso   1.000  H
  H10      1.0000 0.78920  0.87540  0.26370  Biso   1.000  H
  C15      1.0000 0.76640  0.49930  0.82460  Biso   1.000  C
  C16      1.0000 0.23360  0.99930  0.17540  Biso   1.000  C
  C17      1.0000 0.87850  0.12450  0.81230  Biso   1.000  C
  C18      1.0000 0.12150  0.62450  0.18770  Biso   1.000  C
  H11      1.0000 0.73600  0.10350  0.84770  Biso   1.000  H
  H12      1.0000 0.26400  0.60350  0.15230  Biso   1.000  H
  C19      1.0000 0.81230  0.34960  0.95090  Biso   1.000  C
  C20      1.0000 0.18770  0.84960  0.04910  Biso   1.000  C
  H13      1.0000 0.85470  0.26480  0.97550  Biso   1.000  H
  H14      1.0000 0.14530  0.76480  0.02450  Biso   1.000  H
  C21      1.0000 0.68750  0.60210  0.88280  Biso   1.000  C
  C22      1.0000 0.31250  0.10210  0.11720  Biso   1.000  C
  H15      1.0000 0.64690  0.68800  0.85950  Biso   1.000  H
  H16      1.0000 0.35310  0.18800  0.14050  Biso   1.000  H
  C23      1.0000 0.66880  0.57860  0.97440  Biso   1.000  C
  C24      1.0000 0.33120  0.07860  0.02560  Biso   1.000  C
  H17      1.0000 0.61780  0.64850  0.01310  Biso   1.000  H
  H18      1.0000 0.38220  0.14850  0.98690  Biso   1.000  H
  C25      1.0000 0.72520  0.45230  0.00850  Biso   1.000  C
  C26      1.0000 0.27480  0.95230  0.99150  Biso   1.000  C
  H19      1.0000 0.70560  0.43470  0.07020  Biso   1.000  H
  H20      1.0000 0.29440  0.93470  0.92980  Biso   1.000  H
  O3       1.0000 0.48460  0.77850  0.52840  Biso   1.000  O
  O4       1.0000 0.51540  0.27850  0.47160  Biso   1.000  O
  O5       1.0000 0.66810  0.43340  0.67350  Biso   1.000  O
  O6       1.0000 0.33190  0.93340  0.32650  Biso   1.000  O
  H21      1.0000 0.66370  0.45890  0.62040  Biso   1.000  H
  H22      1.0000 0.33630  0.95890  0.37960  Biso   1.000  H
  C27      1.0000 0.74990  0.53350  0.72550  Biso   1.000  C
  C28      1.0000 0.25010  0.03350  0.27450  Biso   1.000  C
  O7       1.0000 0.79290  0.64780  0.69660  Biso   1.000  O
  O8       1.0000 0.20710  0.14780  0.30340  Biso   1.000  O
  O9       1.0000 0.02250  0.85660  0.54690  Biso   1.000  O
  O10      1.0000 0.97750  0.35660  0.45310  Biso   1.000  O
  O11      1.0000 0.86920  0.07980  0.45390  Biso   1.000  O
  O12      1.0000 0.13080  0.57980  0.54610  Biso   1.000  O
  O13      1.0000 0.87200  0.10610  0.52790  Biso   1.000  O
  O14      1.0000 0.12800  0.60610  0.47210  Biso   1.000  O
