data_image0
_cell_length_a       7.4983
_cell_length_b       7.973
_cell_length_c       10.8652
_cell_angle_alpha    84.071
_cell_angle_beta     89.669
_cell_angle_gamma    70.382

_symmetry_space_group_name_H-M    "P 1"
_symmetry_int_tables_number       1

loop_
  _symmetry_equiv_pos_as_xyz
  'x, y, z'

loop_
  _atom_site_label
  _atom_site_occupancy
  _atom_site_fract_x
  _atom_site_fract_y
  _atom_site_fract_z
  _atom_site_thermal_displace_type
  _atom_site_B_iso_or_equiv
  _atom_site_type_symbol
  Cu1      1.0000 0.02203  0.98179  0.13394  Biso   1.000  Cu
  Cu2      1.0000 0.97797  0.01821  0.86606  Biso   1.000  Cu
  N1       1.0000 0.89510  0.17810  0.24538  Biso   1.000  N
  N2       1.0000 0.10490  0.82190  0.75462  Biso   1.000  N
  O1       1.0000 0.85142  0.14247  0.00434  Biso   1.000  O
  O2       1.0000 0.14858  0.85753  0.99566  Biso   1.000  O
  O3       1.0000 0.24375  0.14481  0.13740  Biso   1.000  O
  O4       1.0000 0.75625  0.85519  0.86260  Biso   1.000  O
  H1       1.0000 0.30940  0.17710  0.07710  Biso   1.000  H
  H2       1.0000 0.69060  0.82290  0.92290  Biso   1.000  H
  O5       1.0000 0.19273  0.81293  0.26100  Biso   1.000  O
  O6       1.0000 0.80727  0.18707  0.73900  Biso   1.000  O
  O7       1.0000 0.75430  0.87958  0.21823  Biso   1.000  O
  O8       1.0000 0.24570  0.12042  0.78177  Biso   1.000  O
  H3       1.0000 0.85240  0.79510  0.26090  Biso   1.000  H
  H4       1.0000 0.14760  0.20490  0.73910  Biso   1.000  H
  O9       1.0000 0.03038  0.64313  0.34849  Biso   1.000  O
  O10      1.0000 0.96962  0.35687  0.65151  Biso   1.000  O
  C1       1.0000 0.17140  0.28310  0.21529  Biso   1.000  C
  C2       1.0000 0.82860  0.71690  0.78471  Biso   1.000  C
  H5       1.0000 0.09810  0.39630  0.16540  Biso   1.000  H
  H6       1.0000 0.90190  0.60370  0.83460  Biso   1.000  H
  H7       1.0000 0.27680  0.30270  0.25940  Biso   1.000  H
  H8       1.0000 0.72320  0.69730  0.74060  Biso   1.000  H
  C3       1.0000 0.04520  0.22620  0.30713  Biso   1.000  C
  C4       1.0000 0.95480  0.77380  0.69287  Biso   1.000  C
  H9       1.0000 0.12360  0.12170  0.36310  Biso   1.000  H
  H10      1.0000 0.87640  0.87830  0.63690  Biso   1.000  H
  H11      1.0000 0.98500  0.32500  0.35810  Biso   1.000  H
  H12      1.0000 0.01500  0.67500  0.64190  Biso   1.000  H
  C5       1.0000 0.78810  0.10870  0.34170  Biso   1.000  C
  C6       1.0000 0.21190  0.89130  0.65830  Biso   1.000  C
  H13      1.0000 0.71060  0.20930  0.38630  Biso   1.000  H
  H14      1.0000 0.28940  0.79070  0.61370  Biso   1.000  H
  H15      1.0000 0.87940  0.02120  0.40240  Biso   1.000  H
  H16      1.0000 0.12060  0.97880  0.59760  Biso   1.000  H
  C7       1.0000 0.65940  0.01950  0.29040  Biso   1.000  C
  C8       1.0000 0.34060  0.98050  0.70960  Biso   1.000  C
  H17      1.0000 0.59970  0.97050  0.36020  Biso   1.000  H
  H18      1.0000 0.40030  0.02950  0.63980  Biso   1.000  H
  H19      1.0000 0.55700  0.11110  0.23880  Biso   1.000  H
  H20      1.0000 0.44300  0.88890  0.76120  Biso   1.000  H
  C9       1.0000 0.76660  0.33440  0.16387  Biso   1.000  C
  C10      1.0000 0.23340  0.66560  0.83613  Biso   1.000  C
  H21      1.0000 0.77520  0.44690  0.18980  Biso   1.000  H
  H22      1.0000 0.22480  0.55310  0.81020  Biso   1.000  H
  H23      1.0000 0.63400  0.33770  0.17280  Biso   1.000  H
  H24      1.0000 0.36600  0.66230  0.82720  Biso   1.000  H
  C11      1.0000 0.82100  0.32060  0.02818  Biso   1.000  C
  C12      1.0000 0.17900  0.67940  0.97182  Biso   1.000  C
  H25      1.0000 0.93760  0.35080  0.01340  Biso   1.000  H
  H26      1.0000 0.06240  0.64920  0.98660  Biso   1.000  H
  H27      1.0000 0.71790  0.40470  0.97300  Biso   1.000  H
  H28      1.0000 0.28210  0.59530  0.02700  Biso   1.000  H
  C13      1.0000 0.17560  0.68640  0.33561  Biso   1.000  C
  C14      1.0000 0.82440  0.31360  0.66439  Biso   1.000  C
  C15      1.0000 0.34610  0.58600  0.41860  Biso   1.000  C
  C16      1.0000 0.65390  0.41400  0.58140  Biso   1.000  C
  C17      1.0000 0.33490  0.45550  0.51195  Biso   1.000  C
  C18      1.0000 0.66510  0.54450  0.48805  Biso   1.000  C
  H29      1.0000 0.22300  0.42500  0.51960  Biso   1.000  H
  H30      1.0000 0.77700  0.57500  0.48040  Biso   1.000  H
  C19      1.0000 0.51170  0.62900  0.40685  Biso   1.000  C
  C20      1.0000 0.48830  0.37100  0.59315  Biso   1.000  C
  H31      1.0000 0.51940  0.71670  0.34280  Biso   1.000  H
  H32      1.0000 0.48060  0.28330  0.65720  Biso   1.000  H
  O11      1.0000 0.45119  0.22837  0.95517  Biso   1.000  O
  O12      1.0000 0.54881  0.77163  0.04483  Biso   1.000  O
  H33      1.0000 0.57630  0.17640  0.95470  Biso   1.000  H
  H34      1.0000 0.42370  0.82360  0.04530  Biso   1.000  H
  H35      1.0000 0.40540  0.18190  0.89410  Biso   1.000  H
  H36      1.0000 0.59460  0.81810  0.10590  Biso   1.000  H
