data_image0
_cell_length_a       7.2659
_cell_length_b       9.9624
_cell_length_c       13.716
_cell_angle_alpha    94.208
_cell_angle_beta     98.334
_cell_angle_gamma    103.15

_symmetry_space_group_name_H-M    "P 1"
_symmetry_int_tables_number       1

loop_
  _symmetry_equiv_pos_as_xyz
  'x, y, z'

loop_
  _atom_site_label
  _atom_site_occupancy
  _atom_site_fract_x
  _atom_site_fract_y
  _atom_site_fract_z
  _atom_site_thermal_displace_type
  _atom_site_B_iso_or_equiv
  _atom_site_type_symbol
  C1       1.0000 0.75620  0.54490  0.89690  Biso   1.000  C
  C2       1.0000 0.24380  0.45510  0.10310  Biso   1.000  C
  C3       1.0000 0.83410  0.59820  0.80810  Biso   1.000  C
  C4       1.0000 0.16590  0.40180  0.19190  Biso   1.000  C
  C5       1.0000 0.83850  0.72880  0.78350  Biso   1.000  C
  C6       1.0000 0.16150  0.27120  0.21650  Biso   1.000  C
  H1       1.0000 0.79550  0.79090  0.82320  Biso   1.000  H
  H2       1.0000 0.20450  0.20910  0.17680  Biso   1.000  H
  C7       1.0000 0.90860  0.76780  0.69780  Biso   1.000  C
  C8       1.0000 0.09140  0.23220  0.30220  Biso   1.000  C
  H3       1.0000 0.91540  0.85710  0.68050  Biso   1.000  H
  H4       1.0000 0.08460  0.14290  0.31950  Biso   1.000  H
  C9       1.0000 0.96680  0.67490  0.63990  Biso   1.000  C
  C10      1.0000 0.03320  0.32510  0.36010  Biso   1.000  C
  H5       1.0000 0.00970  0.69840  0.58130  Biso   1.000  H
  H6       1.0000 0.99030  0.30160  0.41870  Biso   1.000  H
  C11      1.0000 0.96150  0.54620  0.66910  Biso   1.000  C
  C12      1.0000 0.03850  0.45380  0.33090  Biso   1.000  C
  H7       1.0000 0.00340  0.48290  0.62980  Biso   1.000  H
  H8       1.0000 0.99660  0.51710  0.37020  Biso   1.000  H
  C13      1.0000 0.77810  0.22860  0.97690  Biso   1.000  C
  C14      1.0000 0.22190  0.77140  0.02310  Biso   1.000  C
  C15      1.0000 0.72630  0.13710  0.05410  Biso   1.000  C
  C16      1.0000 0.27370  0.86290  0.94590  Biso   1.000  C
  C17      1.0000 0.75640  0.00620  0.05330  Biso   1.000  C
  C18      1.0000 0.24360  0.99380  0.94670  Biso   1.000  C
  H9       1.0000 0.81300  0.97150  0.00360  Biso   1.000  H
  H10      1.0000 0.18700  0.02850  0.99640  Biso   1.000  H
  C19      1.0000 0.70160  0.92640  0.12720  Biso   1.000  C
  C20      1.0000 0.29840  0.07360  0.87280  Biso   1.000  C
  H11      1.0000 0.72440  0.83840  0.12880  Biso   1.000  H
  H12      1.0000 0.27560  0.16160  0.87120  Biso   1.000  H
  C21      1.0000 0.61280  0.97820  0.19860  Biso   1.000  C
  C22      1.0000 0.38720  0.02180  0.80140  Biso   1.000  C
  H13      1.0000 0.56840  0.92480  0.24700  Biso   1.000  H
  H14      1.0000 0.43160  0.07520  0.75300  Biso   1.000  H
  C23      1.0000 0.59230  0.11230  0.19550  Biso   1.000  C
  C24      1.0000 0.40770  0.88770  0.80450  Biso   1.000  C
  H15      1.0000 0.53620  0.14950  0.24450  Biso   1.000  H
  H16      1.0000 0.46380  0.85050  0.75550  Biso   1.000  H
  C25      1.0000 0.84550  0.14570  0.64730  Biso   1.000  C
  C26      1.0000 0.15450  0.85430  0.35270  Biso   1.000  C
  C27      1.0000 0.92720  0.07280  0.57010  Biso   1.000  C
  C28      1.0000 0.07280  0.92720  0.42990  Biso   1.000  C
  C29      1.0000 0.12120  0.09290  0.57260  Biso   1.000  C
  C30      1.0000 0.87880  0.90710  0.42740  Biso   1.000  C
  H17      1.0000 0.20460  0.15610  0.62180  Biso   1.000  H
  H18      1.0000 0.79540  0.84390  0.37820  Biso   1.000  H
  C31      1.0000 0.80340  0.97900  0.49670  Biso   1.000  C
  C32      1.0000 0.19660  0.02100  0.50330  Biso   1.000  C
  H19      1.0000 0.67150  0.96410  0.49350  Biso   1.000  H
  H20      1.0000 0.32850  0.03590  0.50650  Biso   1.000  H
  C33      1.0000 0.57860  0.51720  0.29960  Biso   1.000  C
  C34      1.0000 0.42140  0.48280  0.70040  Biso   1.000  C
  C35      1.0000 0.53950  0.50700  0.40460  Biso   1.000  C
  C36      1.0000 0.46050  0.49300  0.59540  Biso   1.000  C
  C37      1.0000 0.48330  0.61440  0.45110  Biso   1.000  C
  C38      1.0000 0.51670  0.38560  0.54890  Biso   1.000  C
  H21      1.0000 0.47210  0.69180  0.41880  Biso   1.000  H
  H22      1.0000 0.52790  0.30820  0.58120  Biso   1.000  H
  C39      1.0000 0.55670  0.39420  0.45290  Biso   1.000  C
  C40      1.0000 0.44330  0.60580  0.54710  Biso   1.000  C
  H23      1.0000 0.59570  0.32220  0.42130  Biso   1.000  H
  H24      1.0000 0.40430  0.67780  0.57870  Biso   1.000  H
  Cu1      1.0000 0.65929  0.39037  0.11988  Biso   1.000  Cu
  Cu2      1.0000 0.34071  0.60963  0.88012  Biso   1.000  Cu
  Cu3      1.0000 0.89301  0.32960  0.81323  Biso   1.000  Cu
  Cu4      1.0000 0.10699  0.67040  0.18677  Biso   1.000  Cu
  N1       1.0000 0.80020  0.42700  0.91390  Biso   1.000  N
  N2       1.0000 0.19980  0.57300  0.08610  Biso   1.000  N
  N3       1.0000 0.73940  0.35030  0.98960  Biso   1.000  N
  N4       1.0000 0.26060  0.64970  0.01040  Biso   1.000  N
  N5       1.0000 0.89830  0.50780  0.75180  Biso   1.000  N
  N6       1.0000 0.10170  0.49220  0.24820  Biso   1.000  N
  N7       1.0000 0.64850  0.19070  0.12610  Biso   1.000  N
  N8       1.0000 0.35150  0.80930  0.87390  Biso   1.000  N
  O1       1.0000 0.66240  0.61490  0.94240  Biso   1.000  O
  O2       1.0000 0.33760  0.38510  0.05760  Biso   1.000  O
  O3       1.0000 0.85030  0.18410  0.90530  Biso   1.000  O
  O4       1.0000 0.14970  0.81590  0.09470  Biso   1.000  O
  O5       1.0000 0.97350  0.23230  0.71040  Biso   1.000  O
  O6       1.0000 0.02650  0.76770  0.28960  Biso   1.000  O
  O7       1.0000 0.67620  0.12020  0.64880  Biso   1.000  O
  O8       1.0000 0.32380  0.87980  0.35120  Biso   1.000  O
  O9       1.0000 0.57400  0.62680  0.26270  Biso   1.000  O
  O10      1.0000 0.42600  0.37320  0.73730  Biso   1.000  O
  O11      1.0000 0.61410  0.41230  0.25630  Biso   1.000  O
  O12      1.0000 0.38590  0.58770  0.74370  Biso   1.000  O
  O13      1.0000 0.75860  0.58960  0.12430  Biso   1.000  O
  O14      1.0000 0.24140  0.41040  0.87570  Biso   1.000  O
  H25      1.0000 0.73830  0.63030  0.17700  Biso   1.000  H
  H26      1.0000 0.26170  0.36970  0.82300  Biso   1.000  H
  H27      1.0000 0.70180  0.61790  0.07410  Biso   1.000  H
  H28      1.0000 0.29820  0.38210  0.92590  Biso   1.000  H
