data_image0
_cell_length_a       13.647
_cell_length_b       12.2255
_cell_length_c       10.0282
_cell_angle_alpha    90
_cell_angle_beta     97.675
_cell_angle_gamma    90

_symmetry_space_group_name_H-M    "P 1"
_symmetry_int_tables_number       1

loop_
  _symmetry_equiv_pos_as_xyz
  'x, y, z'

loop_
  _atom_site_label
  _atom_site_occupancy
  _atom_site_fract_x
  _atom_site_fract_y
  _atom_site_fract_z
  _atom_site_thermal_displace_type
  _atom_site_B_iso_or_equiv
  _atom_site_type_symbol
  Cu1      1.0000 0.40238  0.76811  0.53014  Biso   1.000  Cu
  Cu2      1.0000 0.59762  0.26811  0.96986  Biso   1.000  Cu
  Cu3      1.0000 0.59762  0.23189  0.46986  Biso   1.000  Cu
  Cu4      1.0000 0.40238  0.73189  0.03014  Biso   1.000  Cu
  Cu5      1.0000 0.39504  0.91086  0.78335  Biso   1.000  Cu
  Cu6      1.0000 0.60496  0.41086  0.71665  Biso   1.000  Cu
  Cu7      1.0000 0.60496  0.08914  0.21665  Biso   1.000  Cu
  Cu8      1.0000 0.39504  0.58914  0.28335  Biso   1.000  Cu
  Cu9      1.0000 0.50000  0.50000  0.00000  Biso   1.000  Cu
  Cu10     1.0000 0.50000  0.00000  0.50000  Biso   1.000  Cu
  P1       1.0000 0.54883  0.65662  0.77111  Biso   1.000  P
  P2       1.0000 0.45117  0.15662  0.72889  Biso   1.000  P
  P3       1.0000 0.45117  0.34338  0.22889  Biso   1.000  P
  P4       1.0000 0.54883  0.84338  0.27111  Biso   1.000  P
  C1       1.0000 0.66710  0.71120  0.84870  Biso   1.000  C
  C2       1.0000 0.33290  0.21120  0.65130  Biso   1.000  C
  C3       1.0000 0.33290  0.28880  0.15130  Biso   1.000  C
  C4       1.0000 0.66710  0.78880  0.34870  Biso   1.000  C
  H1       1.0000 0.70680  0.72810  0.77800  Biso   1.000  H
  H2       1.0000 0.29320  0.22810  0.72200  Biso   1.000  H
  H3       1.0000 0.29320  0.27190  0.22200  Biso   1.000  H
  H4       1.0000 0.70680  0.77190  0.27800  Biso   1.000  H
  H5       1.0000 0.65500  0.77930  0.89330  Biso   1.000  H
  H6       1.0000 0.34500  0.27930  0.60670  Biso   1.000  H
  H7       1.0000 0.34500  0.22070  0.10670  Biso   1.000  H
  H8       1.0000 0.65500  0.72070  0.39330  Biso   1.000  H
  C5       1.0000 0.72690  0.63660  0.95030  Biso   1.000  C
  C6       1.0000 0.27310  0.13660  0.54970  Biso   1.000  C
  C7       1.0000 0.27310  0.36340  0.04970  Biso   1.000  C
  C8       1.0000 0.72690  0.86340  0.45030  Biso   1.000  C
  C9       1.0000 0.80940  0.58120  0.91890  Biso   1.000  C
  C10      1.0000 0.19060  0.08120  0.58110  Biso   1.000  C
  C11      1.0000 0.19060  0.41880  0.08110  Biso   1.000  C
  C12      1.0000 0.80940  0.91880  0.41890  Biso   1.000  C
  H9       1.0000 0.83070  0.59290  0.83580  Biso   1.000  H
  H10      1.0000 0.16930  0.09290  0.66420  Biso   1.000  H
  H11      1.0000 0.16930  0.40710  0.16420  Biso   1.000  H
  H12      1.0000 0.83070  0.90710  0.33580  Biso   1.000  H
  C13      1.0000 0.86130  0.50850  0.00910  Biso   1.000  C
  C14      1.0000 0.13870  0.00850  0.49090  Biso   1.000  C
  C15      1.0000 0.13870  0.49150  0.99090  Biso   1.000  C
  C16      1.0000 0.86130  0.99150  0.50910  Biso   1.000  C
  H13      1.0000 0.91560  0.47050  0.98580  Biso   1.000  H
  H14      1.0000 0.08440  0.97050  0.51420  Biso   1.000  H
  H15      1.0000 0.08440  0.52950  0.01420  Biso   1.000  H
  H16      1.0000 0.91560  0.02950  0.48580  Biso   1.000  H
  C17      1.0000 0.83070  0.49390  0.13390  Biso   1.000  C
  C18      1.0000 0.16930  0.99390  0.36610  Biso   1.000  C
  C19      1.0000 0.16930  0.50610  0.86610  Biso   1.000  C
  C20      1.0000 0.83070  0.00610  0.63390  Biso   1.000  C
  C21      1.0000 0.75080  0.54890  0.17040  Biso   1.000  C
  C22      1.0000 0.24920  0.04890  0.32960  Biso   1.000  C
  C23      1.0000 0.24920  0.45110  0.82960  Biso   1.000  C
  C24      1.0000 0.75080  0.95110  0.67040  Biso   1.000  C
  H17      1.0000 0.73090  0.53820  0.25460  Biso   1.000  H
  H18      1.0000 0.26910  0.03820  0.24540  Biso   1.000  H
  H19      1.0000 0.26910  0.46180  0.74540  Biso   1.000  H
  H20      1.0000 0.73090  0.96180  0.75460  Biso   1.000  H
  C25      1.0000 0.69970  0.62160  0.07730  Biso   1.000  C
  C26      1.0000 0.30030  0.12160  0.42270  Biso   1.000  C
  C27      1.0000 0.30030  0.37840  0.92270  Biso   1.000  C
  C28      1.0000 0.69970  0.87840  0.57730  Biso   1.000  C
  H21      1.0000 0.64640  0.66070  0.10150  Biso   1.000  H
  H22      1.0000 0.35360  0.16070  0.39850  Biso   1.000  H
  H23      1.0000 0.35360  0.33930  0.89850  Biso   1.000  H
  H24      1.0000 0.64640  0.83930  0.60150  Biso   1.000  H
  C29      1.0000 0.88690  0.41470  0.23340  Biso   1.000  C
  C30      1.0000 0.11310  0.91470  0.26660  Biso   1.000  C
  C31      1.0000 0.11310  0.58530  0.76660  Biso   1.000  C
  C32      1.0000 0.88690  0.08530  0.73340  Biso   1.000  C
  C33      1.0000 0.97850  0.44770  0.29680  Biso   1.000  C
  C34      1.0000 0.02150  0.94770  0.20320  Biso   1.000  C
  C35      1.0000 0.02150  0.55230  0.70320  Biso   1.000  C
  C36      1.0000 0.97850  0.05230  0.79680  Biso   1.000  C
  H25      1.0000 0.00390  0.51490  0.27480  Biso   1.000  H
  H26      1.0000 0.99610  0.01490  0.22520  Biso   1.000  H
  H27      1.0000 0.99610  0.48510  0.72520  Biso   1.000  H
  H28      1.0000 0.00390  0.98510  0.77480  Biso   1.000  H
  C37      1.0000 0.03170  0.38390  0.39010  Biso   1.000  C
  C38      1.0000 0.96830  0.88390  0.10990  Biso   1.000  C
  C39      1.0000 0.96830  0.61610  0.60990  Biso   1.000  C
  C40      1.0000 0.03170  0.11610  0.89010  Biso   1.000  C
  H29      1.0000 0.09560  0.40430  0.42510  Biso   1.000  H
  H30      1.0000 0.90440  0.90430  0.07490  Biso   1.000  H
  H31      1.0000 0.90440  0.59570  0.57490  Biso   1.000  H
  H32      1.0000 0.09560  0.09570  0.92510  Biso   1.000  H
  C41      1.0000 0.99200  0.28960  0.43310  Biso   1.000  C
  C42      1.0000 0.00800  0.78960  0.06690  Biso   1.000  C
  C43      1.0000 0.00800  0.71040  0.56690  Biso   1.000  C
  C44      1.0000 0.99200  0.21040  0.93310  Biso   1.000  C
  H33      1.0000 0.02610  0.24890  0.50280  Biso   1.000  H
  H34      1.0000 0.97390  0.74890  0.99720  Biso   1.000  H
  H35      1.0000 0.97390  0.75110  0.49720  Biso   1.000  H
  H36      1.0000 0.02610  0.25110  0.00280  Biso   1.000  H
  C45      1.0000 0.90080  0.25570  0.37190  Biso   1.000  C
  C46      1.0000 0.09920  0.75570  0.12810  Biso   1.000  C
  C47      1.0000 0.09920  0.74430  0.62810  Biso   1.000  C
  C48      1.0000 0.90080  0.24430  0.87190  Biso   1.000  C
  H37      1.0000 0.87440  0.19030  0.39830  Biso   1.000  H
  H38      1.0000 0.12560  0.69030  0.10170  Biso   1.000  H
  H39      1.0000 0.12560  0.80970  0.60170  Biso   1.000  H
  H40      1.0000 0.87440  0.30970  0.89830  Biso   1.000  H
  C49      1.0000 0.84730  0.31830  0.27060  Biso   1.000  C
  C50      1.0000 0.15270  0.81830  0.22940  Biso   1.000  C
  C51      1.0000 0.15270  0.68170  0.72940  Biso   1.000  C
  C52      1.0000 0.84730  0.18170  0.77060  Biso   1.000  C
  C53      1.0000 0.75220  0.26950  0.20330  Biso   1.000  C
  C54      1.0000 0.24780  0.76950  0.29670  Biso   1.000  C
  C55      1.0000 0.24780  0.73050  0.79670  Biso   1.000  C
  C56      1.0000 0.75220  0.23050  0.70330  Biso   1.000  C
  O1       1.0000 0.49860  0.75250  0.69110  Biso   1.000  O
  O2       1.0000 0.50140  0.25250  0.80890  Biso   1.000  O
  O3       1.0000 0.50140  0.24750  0.30890  Biso   1.000  O
  O4       1.0000 0.49860  0.74750  0.19110  Biso   1.000  O
  O5       1.0000 0.56390  0.56040  0.68100  Biso   1.000  O
  O6       1.0000 0.43610  0.06040  0.81900  Biso   1.000  O
  O7       1.0000 0.43610  0.43960  0.31900  Biso   1.000  O
  O8       1.0000 0.56390  0.93960  0.18100  Biso   1.000  O
  O9       1.0000 0.49370  0.62640  0.88790  Biso   1.000  O
  O10      1.0000 0.50630  0.12640  0.61210  Biso   1.000  O
  O11      1.0000 0.50630  0.37360  0.11210  Biso   1.000  O
  O12      1.0000 0.49370  0.87360  0.38790  Biso   1.000  O
  O13      1.0000 0.71960  0.30080  0.08830  Biso   1.000  O
  O14      1.0000 0.28040  0.80080  0.41170  Biso   1.000  O
  O15      1.0000 0.28040  0.69920  0.91170  Biso   1.000  O
  O16      1.0000 0.71960  0.19920  0.58830  Biso   1.000  O
  O17      1.0000 0.71160  0.19590  0.26690  Biso   1.000  O
  O18      1.0000 0.28840  0.69590  0.23310  Biso   1.000  O
  O19      1.0000 0.28840  0.80410  0.73310  Biso   1.000  O
  O20      1.0000 0.71160  0.30410  0.76690  Biso   1.000  O
  O21      1.0000 0.41370  0.62390  0.46850  Biso   1.000  O
  O22      1.0000 0.58630  0.12390  0.03150  Biso   1.000  O
  O23      1.0000 0.58630  0.37610  0.53150  Biso   1.000  O
  O24      1.0000 0.41370  0.87610  0.96850  Biso   1.000  O
  O25      1.0000 0.39740  0.57600  0.08870  Biso   1.000  O
  O26      1.0000 0.60260  0.07600  0.41130  Biso   1.000  O
  O27      1.0000 0.60260  0.42400  0.91130  Biso   1.000  O
  O28      1.0000 0.39740  0.92400  0.58870  Biso   1.000  O
  O29      1.0000 0.24200  0.50300  0.48100  Biso   1.000  O
  O30      1.0000 0.75800  0.00300  0.01900  Biso   1.000  O
  O31      1.0000 0.75800  0.49700  0.51900  Biso   1.000  O
  O32      1.0000 0.24200  0.99700  0.98100  Biso   1.000  O
