data_image0
_cell_length_a       15.9321
_cell_length_b       17.2033
_cell_length_c       9.9871
_cell_angle_alpha    90
_cell_angle_beta     90
_cell_angle_gamma    90

_symmetry_space_group_name_H-M    "P 1"
_symmetry_int_tables_number       1

loop_
  _symmetry_equiv_pos_as_xyz
  'x, y, z'

loop_
  _atom_site_label
  _atom_site_occupancy
  _atom_site_fract_x
  _atom_site_fract_y
  _atom_site_fract_z
  _atom_site_thermal_displace_type
  _atom_site_B_iso_or_equiv
  _atom_site_type_symbol
  Cu1      1.0000 0.02349  0.67875  0.94733  Biso   1.000  Cu
  Cu2      1.0000 0.97651  0.32125  0.94733  Biso   1.000  Cu
  Cu3      1.0000 0.52349  0.82125  0.05267  Biso   1.000  Cu
  Cu4      1.0000 0.47651  0.17875  0.05267  Biso   1.000  Cu
  O1       1.0000 0.10470  0.95372  0.50210  Biso   1.000  O
  O2       1.0000 0.89530  0.04628  0.50210  Biso   1.000  O
  O3       1.0000 0.60470  0.54628  0.49790  Biso   1.000  O
  O4       1.0000 0.39530  0.45372  0.49790  Biso   1.000  O
  O5       1.0000 0.02850  0.68135  0.14760  Biso   1.000  O
  O6       1.0000 0.97150  0.31865  0.14760  Biso   1.000  O
  O7       1.0000 0.52850  0.81865  0.85240  Biso   1.000  O
  O8       1.0000 0.47150  0.18135  0.85240  Biso   1.000  O
  O9       1.0000 0.00860  0.63097  0.63780  Biso   1.000  O
  O10      1.0000 0.99140  0.36903  0.63780  Biso   1.000  O
  O11      1.0000 0.50860  0.86903  0.36220  Biso   1.000  O
  O12      1.0000 0.49140  0.13097  0.36220  Biso   1.000  O
  O13      1.0000 0.03320  0.80282  0.07560  Biso   1.000  O
  O14      1.0000 0.96680  0.19718  0.07560  Biso   1.000  O
  O15      1.0000 0.53320  0.69718  0.92440  Biso   1.000  O
  O16      1.0000 0.46680  0.30282  0.92440  Biso   1.000  O
  O17      1.0000 0.01940  0.73200  0.77680  Biso   1.000  O
  O18      1.0000 0.98060  0.26800  0.77680  Biso   1.000  O
  O19      1.0000 0.51940  0.76800  0.22320  Biso   1.000  O
  O20      1.0000 0.48060  0.23200  0.22320  Biso   1.000  O
  N1       1.0000 0.72340  0.35630  0.00530  Biso   1.000  N
  N2       1.0000 0.27660  0.64370  0.00530  Biso   1.000  N
  N3       1.0000 0.22340  0.14370  0.99470  Biso   1.000  N
  N4       1.0000 0.77660  0.85630  0.99470  Biso   1.000  N
  N5       1.0000 0.77590  0.64440  0.04480  Biso   1.000  N
  N6       1.0000 0.22410  0.35560  0.04480  Biso   1.000  N
  N7       1.0000 0.27590  0.85560  0.95520  Biso   1.000  N
  N8       1.0000 0.72410  0.14440  0.95520  Biso   1.000  N
  N9       1.0000 0.90130  0.65920  0.95710  Biso   1.000  N
  N10      1.0000 0.09870  0.34080  0.95710  Biso   1.000  N
  N11      1.0000 0.40130  0.84080  0.04290  Biso   1.000  N
  N12      1.0000 0.59870  0.15920  0.04290  Biso   1.000  N
  C1       1.0000 0.03800  0.78120  0.31080  Biso   1.000  C
  C2       1.0000 0.96200  0.21880  0.31080  Biso   1.000  C
  C3       1.0000 0.53800  0.71880  0.68920  Biso   1.000  C
  C4       1.0000 0.46200  0.28120  0.68920  Biso   1.000  C
  C5       1.0000 0.05890  0.83120  0.57130  Biso   1.000  C
  C6       1.0000 0.94110  0.16880  0.57130  Biso   1.000  C
  C7       1.0000 0.55890  0.66880  0.42870  Biso   1.000  C
  C8       1.0000 0.44110  0.33120  0.42870  Biso   1.000  C
  H1       1.0000 0.06520  0.84820  0.65910  Biso   1.000  H
  H2       1.0000 0.93480  0.15180  0.65910  Biso   1.000  H
  H3       1.0000 0.56520  0.65180  0.34090  Biso   1.000  H
  H4       1.0000 0.43480  0.34820  0.34090  Biso   1.000  H
  N13      1.0000 0.85340  0.34030  0.93590  Biso   1.000  N
  N14      1.0000 0.14660  0.65970  0.93590  Biso   1.000  N
  N15      1.0000 0.35340  0.15970  0.06410  Biso   1.000  N
  N16      1.0000 0.64660  0.84030  0.06410  Biso   1.000  N
  C9       1.0000 0.27170  0.05650  0.51680  Biso   1.000  C
  C10      1.0000 0.72830  0.94350  0.51680  Biso   1.000  C
  C11      1.0000 0.77170  0.44350  0.48320  Biso   1.000  C
  C12      1.0000 0.22830  0.55650  0.48320  Biso   1.000  C
  C13      1.0000 0.19150  0.06420  0.46510  Biso   1.000  C
  C14      1.0000 0.80850  0.93580  0.46510  Biso   1.000  C
  C15      1.0000 0.69150  0.43580  0.53490  Biso   1.000  C
  C16      1.0000 0.30850  0.56420  0.53490  Biso   1.000  C
  C17      1.0000 0.03260  0.75460  0.16750  Biso   1.000  C
  C18      1.0000 0.96740  0.24540  0.16750  Biso   1.000  C
  C19      1.0000 0.53260  0.74540  0.83250  Biso   1.000  C
  C20      1.0000 0.46740  0.25460  0.83250  Biso   1.000  C
  C21      1.0000 0.65160  0.36930  0.09690  Biso   1.000  C
  C22      1.0000 0.34840  0.63070  0.09690  Biso   1.000  C
  C23      1.0000 0.15160  0.13070  0.90310  Biso   1.000  C
  C24      1.0000 0.84840  0.86930  0.90310  Biso   1.000  C
  H5       1.0000 0.67290  0.37820  0.18660  Biso   1.000  H
  H6       1.0000 0.32710  0.62180  0.18660  Biso   1.000  H
  H7       1.0000 0.17290  0.12180  0.81340  Biso   1.000  H
  H8       1.0000 0.82710  0.87820  0.81340  Biso   1.000  H
  H9       1.0000 0.61730  0.32270  0.09930  Biso   1.000  H
  H10      1.0000 0.38270  0.67730  0.09930  Biso   1.000  H
  H11      1.0000 0.11730  0.17730  0.90070  Biso   1.000  H
  H12      1.0000 0.88270  0.82270  0.90070  Biso   1.000  H
  C25      1.0000 0.14590  0.99880  0.39780  Biso   1.000  C
  C26      1.0000 0.85410  0.00120  0.39780  Biso   1.000  C
  C27      1.0000 0.64590  0.50120  0.60220  Biso   1.000  C
  C28      1.0000 0.35410  0.49880  0.60220  Biso   1.000  C
  H13      1.0000 0.10470  0.01920  0.33550  Biso   1.000  H
  H14      1.0000 0.89530  0.98080  0.33550  Biso   1.000  H
  H15      1.0000 0.60470  0.48080  0.66450  Biso   1.000  H
  H16      1.0000 0.39530  0.51920  0.66450  Biso   1.000  H
  H17      1.0000 0.18500  0.96650  0.34860  Biso   1.000  H
  H18      1.0000 0.81500  0.03350  0.34860  Biso   1.000  H
  H19      1.0000 0.68500  0.53350  0.65140  Biso   1.000  H
  H20      1.0000 0.31500  0.46650  0.65140  Biso   1.000  H
  C29      1.0000 0.79970  0.33340  0.83000  Biso   1.000  C
  C30      1.0000 0.20030  0.66660  0.83000  Biso   1.000  C
  C31      1.0000 0.29970  0.16660  0.17000  Biso   1.000  C
  C32      1.0000 0.70030  0.83340  0.17000  Biso   1.000  C
  H21      1.0000 0.81560  0.32340  0.74210  Biso   1.000  H
  H22      1.0000 0.18440  0.67660  0.74210  Biso   1.000  H
  H23      1.0000 0.31560  0.17660  0.25790  Biso   1.000  H
  H24      1.0000 0.68440  0.82340  0.25790  Biso   1.000  H
  C33      1.0000 0.15340  0.13670  0.47110  Biso   1.000  C
  C34      1.0000 0.84660  0.86330  0.47110  Biso   1.000  C
  C35      1.0000 0.65340  0.36330  0.52890  Biso   1.000  C
  C36      1.0000 0.34660  0.63670  0.52890  Biso   1.000  C
  H25      1.0000 0.09970  0.14280  0.43610  Biso   1.000  H
  H26      1.0000 0.90030  0.85720  0.43610  Biso   1.000  H
  H27      1.0000 0.59970  0.35720  0.56390  Biso   1.000  H
  H28      1.0000 0.40030  0.64280  0.56390  Biso   1.000  H
  C37      1.0000 0.19320  0.20000  0.52790  Biso   1.000  C
  C38      1.0000 0.80680  0.80000  0.52790  Biso   1.000  C
  C39      1.0000 0.69320  0.30000  0.47210  Biso   1.000  C
  C40      1.0000 0.30680  0.70000  0.47210  Biso   1.000  C
  H29      1.0000 0.16680  0.24820  0.53030  Biso   1.000  H
  H30      1.0000 0.83320  0.75180  0.53030  Biso   1.000  H
  H31      1.0000 0.66680  0.25180  0.46970  Biso   1.000  H
  H32      1.0000 0.33320  0.74820  0.46970  Biso   1.000  H
  C41      1.0000 0.06620  0.85710  0.33550  Biso   1.000  C
  C42      1.0000 0.93380  0.14290  0.33550  Biso   1.000  C
  C43      1.0000 0.56620  0.64290  0.66450  Biso   1.000  C
  C44      1.0000 0.43380  0.35710  0.66450  Biso   1.000  C
  H33      1.0000 0.07700  0.89080  0.26470  Biso   1.000  H
  H34      1.0000 0.92300  0.10920  0.26470  Biso   1.000  H
  H35      1.0000 0.57700  0.60920  0.73530  Biso   1.000  H
  H36      1.0000 0.42300  0.39080  0.73530  Biso   1.000  H
  C45      1.0000 0.02000  0.73160  0.41530  Biso   1.000  C
  C46      1.0000 0.98000  0.26840  0.41530  Biso   1.000  C
  C47      1.0000 0.52000  0.76840  0.58470  Biso   1.000  C
  C48      1.0000 0.48000  0.23160  0.58470  Biso   1.000  C
  H37      1.0000 0.00040  0.68160  0.39830  Biso   1.000  H
  H38      1.0000 0.99960  0.31840  0.39830  Biso   1.000  H
  H39      1.0000 0.50040  0.81840  0.60170  Biso   1.000  H
  H40      1.0000 0.49960  0.18160  0.60170  Biso   1.000  H
  C49      1.0000 0.01830  0.70090  0.66140  Biso   1.000  C
  C50      1.0000 0.98170  0.29910  0.66140  Biso   1.000  C
  C51      1.0000 0.51830  0.79910  0.33860  Biso   1.000  C
  C52      1.0000 0.48170  0.20090  0.33860  Biso   1.000  C
  C53      1.0000 0.03140  0.75680  0.54600  Biso   1.000  C
  C54      1.0000 0.96860  0.24320  0.54600  Biso   1.000  C
  C55      1.0000 0.53140  0.74320  0.45400  Biso   1.000  C
  C56      1.0000 0.46860  0.25680  0.45400  Biso   1.000  C
  C57      1.0000 0.07750  0.88110  0.46470  Biso   1.000  C
  C58      1.0000 0.92250  0.11890  0.46470  Biso   1.000  C
  C59      1.0000 0.57750  0.61890  0.53530  Biso   1.000  C
  C60      1.0000 0.42250  0.38110  0.53530  Biso   1.000  C
  C61      1.0000 0.85780  0.64670  0.06770  Biso   1.000  C
  C62      1.0000 0.14220  0.35330  0.06770  Biso   1.000  C
  C63      1.0000 0.35780  0.85330  0.93230  Biso   1.000  C
  C64      1.0000 0.64220  0.14670  0.93230  Biso   1.000  C
  H41      1.0000 0.88190  0.64020  0.15180  Biso   1.000  H
  H42      1.0000 0.11810  0.35980  0.15180  Biso   1.000  H
  H43      1.0000 0.38190  0.85980  0.84820  Biso   1.000  H
  H44      1.0000 0.61810  0.14020  0.84820  Biso   1.000  H
  C65      1.0000 0.31080  0.12060  0.57450  Biso   1.000  C
  C66      1.0000 0.68920  0.87940  0.57450  Biso   1.000  C
  C67      1.0000 0.81080  0.37940  0.42550  Biso   1.000  C
  C68      1.0000 0.18920  0.62060  0.42550  Biso   1.000  C
  H45      1.0000 0.36460  0.11540  0.60970  Biso   1.000  H
  H46      1.0000 0.63540  0.88460  0.60970  Biso   1.000  H
  H47      1.0000 0.86460  0.38460  0.39030  Biso   1.000  H
  H48      1.0000 0.13540  0.61540  0.39030  Biso   1.000  H
  C69      1.0000 0.64430  0.51430  0.03240  Biso   1.000  C
  C70      1.0000 0.35570  0.48570  0.03240  Biso   1.000  C
  C71      1.0000 0.14430  0.98570  0.96760  Biso   1.000  C
  C72      1.0000 0.85570  0.01430  0.96760  Biso   1.000  C
  H49      1.0000 0.68640  0.50680  0.96340  Biso   1.000  H
  H50      1.0000 0.31360  0.49320  0.96340  Biso   1.000  H
  H51      1.0000 0.18640  0.99320  0.03660  Biso   1.000  H
  H52      1.0000 0.81360  0.00680  0.03660  Biso   1.000  H
  H53      1.0000 0.60470  0.55280  0.00050  Biso   1.000  H
  H54      1.0000 0.39530  0.44720  0.00050  Biso   1.000  H
  H55      1.0000 0.10470  0.94720  0.99950  Biso   1.000  H
  H56      1.0000 0.89530  0.05280  0.99950  Biso   1.000  H
  O21      1.0000 0.29020  0.91800  0.52900  Biso   1.000  O
  O22      1.0000 0.70980  0.08200  0.52900  Biso   1.000  O
  O23      1.0000 0.79020  0.58200  0.47100  Biso   1.000  O
  O24      1.0000 0.20980  0.41800  0.47100  Biso   1.000  O
  C73      1.0000 0.68590  0.54390  0.15690  Biso   1.000  C
  C74      1.0000 0.31410  0.45610  0.15690  Biso   1.000  C
  C75      1.0000 0.18590  0.95610  0.84310  Biso   1.000  C
  C76      1.0000 0.81410  0.04390  0.84310  Biso   1.000  C
  H57      1.0000 0.73600  0.51340  0.17420  Biso   1.000  H
  H58      1.0000 0.26400  0.48660  0.17420  Biso   1.000  H
  H59      1.0000 0.23600  0.98660  0.82580  Biso   1.000  H
  H60      1.0000 0.76400  0.01340  0.82580  Biso   1.000  H
  H61      1.0000 0.64810  0.53700  0.23220  Biso   1.000  H
  H62      1.0000 0.35190  0.46300  0.23220  Biso   1.000  H
  H63      1.0000 0.14810  0.96300  0.76780  Biso   1.000  H
  H64      1.0000 0.85190  0.03700  0.76780  Biso   1.000  H
  C77      1.0000 0.71000  0.62970  0.14610  Biso   1.000  C
  C78      1.0000 0.29000  0.37030  0.14610  Biso   1.000  C
  C79      1.0000 0.21000  0.87030  0.85390  Biso   1.000  C
  C80      1.0000 0.79000  0.12970  0.85390  Biso   1.000  C
  H65      1.0000 0.66050  0.65970  0.12320  Biso   1.000  H
  H66      1.0000 0.33950  0.34030  0.12320  Biso   1.000  H
  H67      1.0000 0.16050  0.84030  0.87680  Biso   1.000  H
  H68      1.0000 0.83950  0.15970  0.87680  Biso   1.000  H
  H69      1.0000 0.72980  0.64760  0.23270  Biso   1.000  H
  H70      1.0000 0.27020  0.35240  0.23270  Biso   1.000  H
  H71      1.0000 0.22980  0.85240  0.76730  Biso   1.000  H
  H72      1.0000 0.77020  0.14760  0.76730  Biso   1.000  H
  C81      1.0000 0.80450  0.35420  0.04090  Biso   1.000  C
  C82      1.0000 0.19550  0.64580  0.04090  Biso   1.000  C
  C83      1.0000 0.30450  0.14580  0.95910  Biso   1.000  C
  C84      1.0000 0.69550  0.85420  0.95910  Biso   1.000  C
  H73      1.0000 0.82400  0.36150  0.12780  Biso   1.000  H
  H74      1.0000 0.17600  0.63850  0.12780  Biso   1.000  H
  H75      1.0000 0.32400  0.13850  0.87220  Biso   1.000  H
  H76      1.0000 0.67600  0.86150  0.87220  Biso   1.000  H
  O25      1.0000 0.39560  0.98870  0.45340  Biso   1.000  O
  O26      1.0000 0.60440  0.01130  0.45340  Biso   1.000  O
  O27      1.0000 0.89560  0.51130  0.54660  Biso   1.000  O
  O28      1.0000 0.10440  0.48870  0.54660  Biso   1.000  O
  H77      1.0000 0.41770  0.94570  0.44900  Biso   1.000  H
  H78      1.0000 0.58230  0.05430  0.44900  Biso   1.000  H
  H79      1.0000 0.91770  0.55430  0.55100  Biso   1.000  H
  H80      1.0000 0.08230  0.44570  0.55100  Biso   1.000  H
  C85      1.0000 0.76480  0.65510  0.91130  Biso   1.000  C
  C86      1.0000 0.23520  0.34490  0.91130  Biso   1.000  C
  C87      1.0000 0.26480  0.84490  0.08870  Biso   1.000  C
  C88      1.0000 0.73520  0.15510  0.08870  Biso   1.000  C
  H81      1.0000 0.71380  0.65620  0.86580  Biso   1.000  H
  H82      1.0000 0.28620  0.34380  0.86580  Biso   1.000  H
  H83      1.0000 0.21380  0.84380  0.13420  Biso   1.000  H
  H84      1.0000 0.78620  0.15620  0.13420  Biso   1.000  H
  C89      1.0000 0.27150  0.19100  0.58020  Biso   1.000  C
  C90      1.0000 0.72850  0.80900  0.58020  Biso   1.000  C
  C91      1.0000 0.77150  0.30900  0.41980  Biso   1.000  C
  C92      1.0000 0.22850  0.69100  0.41980  Biso   1.000  C
  H85      1.0000 0.29840  0.23310  0.62000  Biso   1.000  H
  H86      1.0000 0.70160  0.76690  0.62000  Biso   1.000  H
  H87      1.0000 0.79840  0.26690  0.38000  Biso   1.000  H
  H88      1.0000 0.20160  0.73310  0.38000  Biso   1.000  H
  C93      1.0000 0.71990  0.34330  0.87240  Biso   1.000  C
  C94      1.0000 0.28010  0.65670  0.87240  Biso   1.000  C
  C95      1.0000 0.21990  0.15670  0.12760  Biso   1.000  C
  C96      1.0000 0.78010  0.84330  0.12760  Biso   1.000  C
  H89      1.0000 0.67180  0.34150  0.81990  Biso   1.000  H
  H90      1.0000 0.32820  0.65850  0.81990  Biso   1.000  H
  H91      1.0000 0.17180  0.15850  0.18010  Biso   1.000  H
  H92      1.0000 0.82820  0.84150  0.18010  Biso   1.000  H
  C97      1.0000 0.84170  0.66390  0.85740  Biso   1.000  C
  C98      1.0000 0.15830  0.33610  0.85740  Biso   1.000  C
  C99      1.0000 0.34170  0.83610  0.14260  Biso   1.000  C
  C100     1.0000 0.65830  0.16390  0.14260  Biso   1.000  C
  H93      1.0000 0.85280  0.67190  0.76700  Biso   1.000  H
  H94      1.0000 0.14720  0.32810  0.76700  Biso   1.000  H
  H95      1.0000 0.35280  0.82810  0.23300  Biso   1.000  H
  H96      1.0000 0.64720  0.17190  0.23300  Biso   1.000  H
  C101     1.0000 0.31930  0.98150  0.50340  Biso   1.000  C
  C102     1.0000 0.68070  0.01850  0.50340  Biso   1.000  C
  C103     1.0000 0.81930  0.51850  0.49660  Biso   1.000  C
  C104     1.0000 0.18070  0.48150  0.49660  Biso   1.000  C
  C105     1.0000 0.59780  0.43700  0.05630  Biso   1.000  C
  C106     1.0000 0.40220  0.56300  0.05630  Biso   1.000  C
  C107     1.0000 0.09780  0.06300  0.94370  Biso   1.000  C
  C108     1.0000 0.90220  0.93700  0.94370  Biso   1.000  C
  H97      1.0000 0.55590  0.44520  0.12540  Biso   1.000  H
  H98      1.0000 0.44410  0.55480  0.12540  Biso   1.000  H
  H99      1.0000 0.05590  0.05480  0.87460  Biso   1.000  H
  H100     1.0000 0.94410  0.94520  0.87460  Biso   1.000  H
  H101     1.0000 0.56830  0.42320  0.97480  Biso   1.000  H
  H102     1.0000 0.43170  0.57680  0.97480  Biso   1.000  H
  H103     1.0000 0.06830  0.07680  0.02520  Biso   1.000  H
  H104     1.0000 0.93170  0.92320  0.02520  Biso   1.000  H
