data_image0
_cell_length_a       8.9508
_cell_length_b       9.0335
_cell_length_c       18.2518
_cell_angle_alpha    76.907
_cell_angle_beta     79.085
_cell_angle_gamma    65.248

_symmetry_space_group_name_H-M    "P 1"
_symmetry_int_tables_number       1

loop_
  _symmetry_equiv_pos_as_xyz
  'x, y, z'

loop_
  _atom_site_label
  _atom_site_occupancy
  _atom_site_fract_x
  _atom_site_fract_y
  _atom_site_fract_z
  _atom_site_thermal_displace_type
  _atom_site_B_iso_or_equiv
  _atom_site_type_symbol
  Cu1      1.0000 0.00000  0.00000  0.50000  Biso   1.000  Cu
  Cu2      1.0000 0.00000  0.00000  0.00000  Biso   1.000  Cu
  O1       1.0000 0.03850  0.34090  0.80544  Biso   1.000  O
  O2       1.0000 0.96150  0.65910  0.19456  Biso   1.000  O
  O3       1.0000 0.02960  0.00250  0.63960  Biso   1.000  O
  O4       1.0000 0.97040  0.99750  0.36040  Biso   1.000  O
  O5       1.0000 0.03810  0.80640  0.58244  Biso   1.000  O
  O6       1.0000 0.96190  0.19360  0.41756  Biso   1.000  O
  O7       1.0000 0.03260  0.70200  0.98190  Biso   1.000  O
  O8       1.0000 0.96740  0.29800  0.01810  Biso   1.000  O
  C1       1.0000 0.03020  0.59710  0.72260  Biso   1.000  C
  C2       1.0000 0.96980  0.40290  0.27740  Biso   1.000  C
  H1       1.0000 0.03400  0.55740  0.67920  Biso   1.000  H
  H2       1.0000 0.96600  0.44260  0.32080  Biso   1.000  H
  C3       1.0000 0.01930  0.81280  0.78100  Biso   1.000  C
  C4       1.0000 0.98070  0.18720  0.21900  Biso   1.000  C
  H3       1.0000 0.01650  0.91840  0.77700  Biso   1.000  H
  H4       1.0000 0.98350  0.08160  0.22300  Biso   1.000  H
  C5       1.0000 0.02780  0.75370  0.71700  Biso   1.000  C
  C6       1.0000 0.97220  0.24630  0.28300  Biso   1.000  C
  O9       1.0000 0.96870  0.94500  0.90850  Biso   1.000  O
  O10      1.0000 0.03130  0.05500  0.09150  Biso   1.000  O
  C7       1.0000 0.02700  0.49990  0.79330  Biso   1.000  C
  C8       1.0000 0.97300  0.50010  0.20670  Biso   1.000  C
  O11      1.0000 0.80670  0.60510  0.55910  Biso   1.000  O
  O12      1.0000 0.19330  0.39490  0.44090  Biso   1.000  O
  O13      1.0000 0.96380  0.33090  0.57620  Biso   1.000  O
  O14      1.0000 0.03620  0.66910  0.42380  Biso   1.000  O
  H5       1.0000 0.00880  0.35590  0.53460  Biso   1.000  H
  H6       1.0000 0.99120  0.64410  0.46540  Biso   1.000  H
  C9       1.0000 0.01480  0.71810  0.85140  Biso   1.000  C
  C10      1.0000 0.98520  0.28190  0.14860  Biso   1.000  C
  N1       1.0000 0.52680  0.06460  0.59030  Biso   1.000  N
  N2       1.0000 0.47320  0.93540  0.40970  Biso   1.000  N
  N3       1.0000 0.76010  0.07110  0.52930  Biso   1.000  N
  N4       1.0000 0.23990  0.92890  0.47070  Biso   1.000  N
  C11      1.0000 0.02100  0.56140  0.85750  Biso   1.000  C
  C12      1.0000 0.97900  0.43860  0.14250  Biso   1.000  C
  H7       1.0000 0.02120  0.49600  0.90490  Biso   1.000  H
  H8       1.0000 0.97880  0.50400  0.09510  Biso   1.000  H
  C13      1.0000 0.81310  0.36690  0.74050  Biso   1.000  C
  C14      1.0000 0.18690  0.63310  0.25950  Biso   1.000  C
  N5       1.0000 0.45600  0.95370  0.88970  Biso   1.000  N
  N6       1.0000 0.54400  0.04630  0.11030  Biso   1.000  N
  C15      1.0000 0.99470  0.28760  0.74750  Biso   1.000  C
  C16      1.0000 0.00530  0.71240  0.25250  Biso   1.000  C
  H9       1.0000 0.02880  0.16850  0.75870  Biso   1.000  H
  H10      1.0000 0.97120  0.83150  0.24130  Biso   1.000  H
  H11      1.0000 0.05390  0.31410  0.69950  Biso   1.000  H
  H12      1.0000 0.94610  0.68590  0.30050  Biso   1.000  H
  C17      1.0000 0.74440  0.44560  0.67270  Biso   1.000  C
  C18      1.0000 0.25560  0.55440  0.32730  Biso   1.000  C
  C19      1.0000 0.03340  0.86250  0.64180  Biso   1.000  C
  C20      1.0000 0.96660  0.13750  0.35820  Biso   1.000  C
  C21      1.0000 0.00500  0.79090  0.92050  Biso   1.000  C
  C22      1.0000 0.99500  0.20910  0.07950  Biso   1.000  C
  C23      1.0000 0.84060  0.46760  0.59810  Biso   1.000  C
  C24      1.0000 0.15940  0.53240  0.40190  Biso   1.000  C
  N7       1.0000 0.23930  0.93890  0.96260  Biso   1.000  N
  N8       1.0000 0.76070  0.06110  0.03740  Biso   1.000  N
  C25      1.0000 0.64010  0.22600  0.52030  Biso   1.000  C
  C26      1.0000 0.35990  0.77400  0.47970  Biso   1.000  C
  H13      1.0000 0.65510  0.31960  0.49270  Biso   1.000  H
  H14      1.0000 0.34490  0.68040  0.50730  Biso   1.000  H
  C27      1.0000 0.68710  0.97570  0.57210  Biso   1.000  C
  C28      1.0000 0.31290  0.02430  0.42790  Biso   1.000  C
  H15      1.0000 0.74000  0.86240  0.58740  Biso   1.000  H
  H16      1.0000 0.26000  0.13760  0.41260  Biso   1.000  H
  C29      1.0000 0.47370  0.51500  0.74230  Biso   1.000  C
  C30      1.0000 0.52630  0.48500  0.25770  Biso   1.000  C
  H17      1.0000 0.35920  0.56400  0.74260  Biso   1.000  H
  H18      1.0000 0.64080  0.43600  0.25740  Biso   1.000  H
  C31      1.0000 0.57210  0.51990  0.67470  Biso   1.000  C
  C32      1.0000 0.42790  0.48010  0.32530  Biso   1.000  C
  H19      1.0000 0.52360  0.57320  0.63010  Biso   1.000  H
  H20      1.0000 0.47640  0.42680  0.36990  Biso   1.000  H
  C33      1.0000 0.54030  0.44030  0.80820  Biso   1.000  C
  C34      1.0000 0.45970  0.55970  0.19180  Biso   1.000  C
  H21      1.0000 0.47210  0.43870  0.85340  Biso   1.000  H
  H22      1.0000 0.52790  0.56130  0.14660  Biso   1.000  H
  C35      1.0000 0.49540  0.22320  0.55760  Biso   1.000  C
  C36      1.0000 0.50460  0.77680  0.44240  Biso   1.000  C
  H23      1.0000 0.39420  0.31280  0.56030  Biso   1.000  H
  H24      1.0000 0.60580  0.68720  0.43970  Biso   1.000  H
  C37      1.0000 0.56150  0.01230  0.83400  Biso   1.000  C
  C38      1.0000 0.43850  0.98770  0.16600  Biso   1.000  C
  H25      1.0000 0.67300  0.96050  0.84870  Biso   1.000  H
  H26      1.0000 0.32700  0.03950  0.15130  Biso   1.000  H
  H27      1.0000 0.52430  0.13060  0.83130  Biso   1.000  H
  H28      1.0000 0.47570  0.86940  0.16870  Biso   1.000  H
  C39      1.0000 0.41690  0.99960  0.64690  Biso   1.000  C
  C40      1.0000 0.58310  0.00040  0.35310  Biso   1.000  C
  H29      1.0000 0.30480  0.05480  0.63290  Biso   1.000  H
  H30      1.0000 0.69520  0.94520  0.36710  Biso   1.000  H
  H31      1.0000 0.45270  0.88250  0.64640  Biso   1.000  H
  H32      1.0000 0.54730  0.11750  0.35360  Biso   1.000  H
  C41      1.0000 0.36990  0.77450  0.96930  Biso   1.000  C
  C42      1.0000 0.63010  0.22550  0.03070  Biso   1.000  C
  H33      1.0000 0.36550  0.67660  0.99760  Biso   1.000  H
  H34      1.0000 0.63450  0.32340  0.00240  Biso   1.000  H
  C43      1.0000 0.71050  0.36600  0.80800  Biso   1.000  C
  C44      1.0000 0.28950  0.63400  0.19200  Biso   1.000  C
  H35      1.0000 0.75660  0.31520  0.85340  Biso   1.000  H
  H36      1.0000 0.24340  0.68480  0.14660  Biso   1.000  H
  C45      1.0000 0.50320  0.79860  0.92340  Biso   1.000  C
  C46      1.0000 0.49680  0.20140  0.07660  Biso   1.000  C
  H37      1.0000 0.60940  0.71770  0.91750  Biso   1.000  H
  H38      1.0000 0.39060  0.28230  0.08250  Biso   1.000  H
  C47      1.0000 0.56400  0.97630  0.75660  Biso   1.000  C
  C48      1.0000 0.43600  0.02370  0.24340  Biso   1.000  C
  H39      1.0000 0.63240  0.02620  0.72150  Biso   1.000  H
  H40      1.0000 0.36760  0.97380  0.27850  Biso   1.000  H
  H41      1.0000 0.62110  0.85760  0.75870  Biso   1.000  H
  H42      1.0000 0.37890  0.14240  0.24130  Biso   1.000  H
  C49      1.0000 0.30300  0.02600  0.91920  Biso   1.000  C
  C50      1.0000 0.69700  0.97400  0.08080  Biso   1.000  C
  H43      1.0000 0.24510  0.13960  0.90740  Biso   1.000  H
  H44      1.0000 0.75490  0.86040  0.09260  Biso   1.000  H
  C51      1.0000 0.41770  0.02430  0.72430  Biso   1.000  C
  C52      1.0000 0.58230  0.97570  0.27570  Biso   1.000  C
  H45      1.0000 0.35740  0.14150  0.72550  Biso   1.000  H
  H46      1.0000 0.64260  0.85850  0.27450  Biso   1.000  H
  H47      1.0000 0.35270  0.96860  0.75810  Biso   1.000  H
  H48      1.0000 0.64730  0.03140  0.24190  Biso   1.000  H
