data_image0
_cell_length_a       15.795
_cell_length_b       6.8256
_cell_length_c       8.1755
_cell_angle_alpha    90
_cell_angle_beta     77.004
_cell_angle_gamma    90

_symmetry_space_group_name_H-M    "P 1"
_symmetry_int_tables_number       1

loop_
  _symmetry_equiv_pos_as_xyz
  'x, y, z'

loop_
  _atom_site_label
  _atom_site_occupancy
  _atom_site_fract_x
  _atom_site_fract_y
  _atom_site_fract_z
  _atom_site_thermal_displace_type
  _atom_site_B_iso_or_equiv
  _atom_site_type_symbol
  Cu1      1.0000 0.00000  0.50000  0.00000  Biso   1.000  Cu
  Cu2      1.0000 0.00000  0.50000  0.50000  Biso   1.000  Cu
  O1       1.0000 0.00000  0.34830  0.25000  Biso   1.000  O
  O2       1.0000 0.00000  0.65170  0.75000  Biso   1.000  O
  O3       1.0000 0.09320  0.32820  0.87180  Biso   1.000  O
  O4       1.0000 0.90680  0.32820  0.62820  Biso   1.000  O
  O5       1.0000 0.90680  0.67180  0.12820  Biso   1.000  O
  O6       1.0000 0.09320  0.67180  0.37180  Biso   1.000  O
  O7       1.0000 0.91237  0.30680  0.95770  Biso   1.000  O
  O8       1.0000 0.08763  0.30680  0.54230  Biso   1.000  O
  O9       1.0000 0.08763  0.69320  0.04230  Biso   1.000  O
  O10      1.0000 0.91237  0.69320  0.45770  Biso   1.000  O
  O11      1.0000 0.74824  0.33290  0.17250  Biso   1.000  O
  O12      1.0000 0.25176  0.33290  0.32750  Biso   1.000  O
  O13      1.0000 0.25176  0.66710  0.82750  Biso   1.000  O
  O14      1.0000 0.74824  0.66710  0.67250  Biso   1.000  O
  O15      1.0000 0.15599  0.23090  0.07650  Biso   1.000  O
  O16      1.0000 0.84401  0.23090  0.42350  Biso   1.000  O
  O17      1.0000 0.84401  0.76910  0.92350  Biso   1.000  O
  O18      1.0000 0.15599  0.76910  0.57650  Biso   1.000  O
  C1       1.0000 0.35610  0.18740  0.89670  Biso   1.000  C
  C2       1.0000 0.64390  0.18740  0.60330  Biso   1.000  C
  C3       1.0000 0.64390  0.81260  0.10330  Biso   1.000  C
  C4       1.0000 0.35610  0.81260  0.39670  Biso   1.000  C
  C5       1.0000 0.42880  0.08470  0.95100  Biso   1.000  C
  C6       1.0000 0.57120  0.08470  0.54900  Biso   1.000  C
  C7       1.0000 0.57120  0.91530  0.04900  Biso   1.000  C
  C8       1.0000 0.42880  0.91530  0.45100  Biso   1.000  C
  O19      1.0000 0.35264  0.36720  0.89290  Biso   1.000  O
  O20      1.0000 0.64736  0.36720  0.60710  Biso   1.000  O
  O21      1.0000 0.64736  0.63280  0.10710  Biso   1.000  O
  O22      1.0000 0.35264  0.63280  0.39290  Biso   1.000  O
  N1       1.0000 0.29604  0.07430  0.85070  Biso   1.000  N
  N2       1.0000 0.70396  0.07430  0.64930  Biso   1.000  N
  N3       1.0000 0.70396  0.92570  0.14930  Biso   1.000  N
  N4       1.0000 0.29604  0.92570  0.35070  Biso   1.000  N
  H1       1.0000 0.30030  0.94900  0.85680  Biso   1.000  H
  H2       1.0000 0.69970  0.94900  0.64320  Biso   1.000  H
  H3       1.0000 0.69970  0.05100  0.14320  Biso   1.000  H
  H4       1.0000 0.30030  0.05100  0.35680  Biso   1.000  H
  C9       1.0000 0.15313  0.24420  0.92800  Biso   1.000  C
  C10      1.0000 0.84687  0.24420  0.57200  Biso   1.000  C
  C11      1.0000 0.84687  0.75580  0.07200  Biso   1.000  C
  C12      1.0000 0.15313  0.75580  0.42800  Biso   1.000  C
  C13      1.0000 0.22457  0.15710  0.79130  Biso   1.000  C
  C14      1.0000 0.77543  0.15710  0.70870  Biso   1.000  C
  C15      1.0000 0.77543  0.84290  0.20870  Biso   1.000  C
  C16      1.0000 0.22457  0.84290  0.29130  Biso   1.000  C
  H5       1.0000 0.19950  0.05570  0.73370  Biso   1.000  H
  H6       1.0000 0.80050  0.05570  0.76630  Biso   1.000  H
  H7       1.0000 0.80050  0.94430  0.26630  Biso   1.000  H
  H8       1.0000 0.19950  0.94430  0.23370  Biso   1.000  H
  H9       1.0000 0.24690  0.25860  0.71000  Biso   1.000  H
  H10      1.0000 0.75310  0.25860  0.79000  Biso   1.000  H
  H11      1.0000 0.75310  0.74140  0.29000  Biso   1.000  H
  H12      1.0000 0.24690  0.74140  0.21000  Biso   1.000  H
  C17      1.0000 0.49130  0.19840  0.99660  Biso   1.000  C
  C18      1.0000 0.50870  0.19840  0.50340  Biso   1.000  C
  C19      1.0000 0.50870  0.80160  0.00340  Biso   1.000  C
  C20      1.0000 0.49130  0.80160  0.49660  Biso   1.000  C
  H13      1.0000 0.48620  0.33410  0.99450  Biso   1.000  H
  H14      1.0000 0.51380  0.33410  0.50550  Biso   1.000  H
  H15      1.0000 0.51380  0.66590  0.00550  Biso   1.000  H
  H16      1.0000 0.48620  0.66590  0.49450  Biso   1.000  H
  C21      1.0000 0.43830  0.88420  0.95440  Biso   1.000  C
  C22      1.0000 0.56170  0.88420  0.54560  Biso   1.000  C
  C23      1.0000 0.56170  0.11580  0.04560  Biso   1.000  C
  C24      1.0000 0.43830  0.11580  0.45440  Biso   1.000  C
  H17      1.0000 0.39700  0.80370  0.92350  Biso   1.000  H
  H18      1.0000 0.60300  0.80370  0.57650  Biso   1.000  H
  H19      1.0000 0.60300  0.19630  0.07650  Biso   1.000  H
  H20      1.0000 0.39700  0.19630  0.42350  Biso   1.000  H
  H21      1.0000 0.75800  0.32800  0.26200  Biso   1.000  H
  H22      1.0000 0.24200  0.32800  0.23800  Biso   1.000  H
  H23      1.0000 0.24200  0.67200  0.73800  Biso   1.000  H
  H24      1.0000 0.75800  0.67200  0.76200  Biso   1.000  H
  H25      1.0000 0.90900  0.32800  0.85900  Biso   1.000  H
  H26      1.0000 0.09100  0.32800  0.64100  Biso   1.000  H
  H27      1.0000 0.09100  0.67200  0.14100  Biso   1.000  H
  H28      1.0000 0.90900  0.67200  0.35900  Biso   1.000  H
  H29      1.0000 0.04600  0.28500  0.21900  Biso   1.000  H
  H30      1.0000 0.95400  0.28500  0.28100  Biso   1.000  H
  H31      1.0000 0.95400  0.71500  0.78100  Biso   1.000  H
  H32      1.0000 0.04600  0.71500  0.71900  Biso   1.000  H
  H33      1.0000 0.86200  0.31300  0.01800  Biso   1.000  H
  H34      1.0000 0.13800  0.31300  0.48200  Biso   1.000  H
  H35      1.0000 0.13800  0.68700  0.98200  Biso   1.000  H
  H36      1.0000 0.86200  0.68700  0.51800  Biso   1.000  H
  H37      1.0000 0.71400  0.41800  0.16400  Biso   1.000  H
  H38      1.0000 0.28600  0.41800  0.33600  Biso   1.000  H
  H39      1.0000 0.28600  0.58200  0.83600  Biso   1.000  H
  H40      1.0000 0.71400  0.58200  0.66400  Biso   1.000  H
