data_image0
_cell_length_a       7.96092
_cell_length_b       27.3362
_cell_length_c       3.79473
_cell_angle_alpha    90
_cell_angle_beta     97.4815
_cell_angle_gamma    90

_symmetry_space_group_name_H-M    "P 1"
_symmetry_int_tables_number       1

loop_
  _symmetry_equiv_pos_as_xyz
  'x, y, z'

loop_
  _atom_site_label
  _atom_site_occupancy
  _atom_site_fract_x
  _atom_site_fract_y
  _atom_site_fract_z
  _atom_site_thermal_displace_type
  _atom_site_B_iso_or_equiv
  _atom_site_type_symbol
  N1       1.0000 0.76471  0.89668  0.61611  Biso   1.000  N
  N2       1.0000 0.73529  0.39668  0.88389  Biso   1.000  N
  N3       1.0000 0.23529  0.10332  0.38389  Biso   1.000  N
  N4       1.0000 0.26471  0.60332  0.11611  Biso   1.000  N
  Cu1      1.0000 0.96054  0.94253  0.63956  Biso   1.000  Cu
  Cu2      1.0000 0.53946  0.44253  0.86044  Biso   1.000  Cu
  Cu3      1.0000 0.03946  0.05747  0.36044  Biso   1.000  Cu
  Cu4      1.0000 0.46054  0.55747  0.13956  Biso   1.000  Cu
  C1       1.0000 0.78295  0.84743  0.54772  Biso   1.000  C
  C2       1.0000 0.71705  0.34743  0.95228  Biso   1.000  C
  C3       1.0000 0.21705  0.15257  0.45228  Biso   1.000  C
  C4       1.0000 0.28295  0.65257  0.04772  Biso   1.000  C
  C5       1.0000 0.61869  0.91673  0.67997  Biso   1.000  C
  C6       1.0000 0.88131  0.41673  0.82003  Biso   1.000  C
  C7       1.0000 0.38131  0.08327  0.32003  Biso   1.000  C
  C8       1.0000 0.11869  0.58327  0.17997  Biso   1.000  C
  Cl1      1.0000 0.07918  0.89929  0.12398  Biso   1.000  Cl
  Cl2      1.0000 0.42082  0.39929  0.37602  Biso   1.000  Cl
  Cl3      1.0000 0.92082  0.10071  0.87602  Biso   1.000  Cl
  Cl4      1.0000 0.57918  0.60071  0.62398  Biso   1.000  Cl
  Cl5      1.0000 0.82139  0.00172  0.27724  Biso   1.000  Cl
  Cl6      1.0000 0.67861  0.50172  0.22276  Biso   1.000  Cl
  Cl7      1.0000 0.17861  0.99828  0.72276  Biso   1.000  Cl
  Cl8      1.0000 0.32139  0.49828  0.77724  Biso   1.000  Cl
  C9       1.0000 0.62891  0.81924  0.55076  Biso   1.000  C
  C10      1.0000 0.87109  0.31924  0.94924  Biso   1.000  C
  C11      1.0000 0.37109  0.18076  0.44924  Biso   1.000  C
  C12      1.0000 0.12891  0.68076  0.05076  Biso   1.000  C
  H1       1.0000 0.90430  0.83136  0.49120  Biso   1.000  H
  H2       1.0000 0.59570  0.33136  0.00880  Biso   1.000  H
  H3       1.0000 0.09570  0.16864  0.50880  Biso   1.000  H
  H4       1.0000 0.40430  0.66864  0.99120  Biso   1.000  H
  C13      1.0000 0.46690  0.89028  0.68692  Biso   1.000  C
  C14      1.0000 0.03310  0.39028  0.81308  Biso   1.000  C
  C15      1.0000 0.53310  0.10972  0.31308  Biso   1.000  C
  C16      1.0000 0.96690  0.60972  0.18692  Biso   1.000  C
  H5       1.0000 0.61600  0.94930  0.70970  Biso   1.000  H
  H6       1.0000 0.88400  0.44930  0.79030  Biso   1.000  H
  H7       1.0000 0.38400  0.05070  0.29030  Biso   1.000  H
  H8       1.0000 0.11600  0.55070  0.20970  Biso   1.000  H
  C17      1.0000 0.47952  0.83923  0.61576  Biso   1.000  C
  C18      1.0000 0.02048  0.33923  0.88424  Biso   1.000  C
  C19      1.0000 0.52048  0.16077  0.38424  Biso   1.000  C
  C20      1.0000 0.97952  0.66077  0.11576  Biso   1.000  C
  H9       1.0000 0.62920  0.78508  0.51110  Biso   1.000  H
  H10      1.0000 0.87080  0.28508  0.98890  Biso   1.000  H
  H11      1.0000 0.37080  0.21492  0.48890  Biso   1.000  H
  H12      1.0000 0.12920  0.71492  0.01110  Biso   1.000  H
  H13      1.0000 0.36280  0.90618  0.74250  Biso   1.000  H
  H14      1.0000 0.13720  0.40618  0.75750  Biso   1.000  H
  H15      1.0000 0.63720  0.09382  0.25750  Biso   1.000  H
  H16      1.0000 0.86280  0.59382  0.24250  Biso   1.000  H
  C21      1.0000 0.32969  0.80738  0.61402  Biso   1.000  C
  C22      1.0000 0.17031  0.30738  0.88598  Biso   1.000  C
  C23      1.0000 0.67031  0.19262  0.38598  Biso   1.000  C
  C24      1.0000 0.82969  0.69262  0.11402  Biso   1.000  C
  N5       1.0000 0.21514  0.78157  0.59770  Biso   1.000  N
  N6       1.0000 0.28486  0.28157  0.90230  Biso   1.000  N
  N7       1.0000 0.78486  0.21843  0.40230  Biso   1.000  N
  N8       1.0000 0.71514  0.71843  0.09770  Biso   1.000  N
