data_image0
_cell_length_a       13.8312
_cell_length_b       7.93848
_cell_length_c       3.79073
_cell_angle_alpha    96.1714
_cell_angle_beta     94.9144
_cell_angle_gamma    96.8254

_symmetry_space_group_name_H-M    "P 1"
_symmetry_int_tables_number       1

loop_
  _symmetry_equiv_pos_as_xyz
  'x, y, z'

loop_
  _atom_site_label
  _atom_site_occupancy
  _atom_site_fract_x
  _atom_site_fract_y
  _atom_site_fract_z
  _atom_site_thermal_displace_type
  _atom_site_B_iso_or_equiv
  _atom_site_type_symbol
  N1       1.0000 0.80114  0.20094  0.30110  Biso   1.000  N
  N2       1.0000 0.19886  0.79906  0.69890  Biso   1.000  N
  Cu1      1.0000 0.88764  0.01604  0.30115  Biso   1.000  Cu
  Cu2      1.0000 0.11236  0.98396  0.69885  Biso   1.000  Cu
  C1       1.0000 0.70403  0.14492  0.32290  Biso   1.000  C
  C2       1.0000 0.29597  0.85508  0.67710  Biso   1.000  C
  C3       1.0000 0.83543  0.37229  0.26470  Biso   1.000  C
  C4       1.0000 0.16457  0.62771  0.73530  Biso   1.000  C
  Cl1      1.0000 0.99915  0.18414  0.71834  Biso   1.000  Cl
  Cl2      1.0000 0.00085  0.81586  0.28166  Biso   1.000  Cl
  Cl3      1.0000 0.79144  0.86871  0.81623  Biso   1.000  Cl
  Cl4      1.0000 0.20856  0.13129  0.18377  Biso   1.000  Cl
  C5       1.0000 0.63727  0.26328  0.31030  Biso   1.000  C
  C6       1.0000 0.36273  0.73672  0.68970  Biso   1.000  C
  H1       1.0000 0.67820  0.00880  0.38190  Biso   1.000  H
  H2       1.0000 0.32180  0.99120  0.61810  Biso   1.000  H
  C7       1.0000 0.76996  0.48581  0.25610  Biso   1.000  C
  C8       1.0000 0.23004  0.51419  0.74390  Biso   1.000  C
  H3       1.0000 0.90790  0.42380  0.22670  Biso   1.000  H
  H4       1.0000 0.09210  0.57620  0.77330  Biso   1.000  H
  C9       1.0000 0.67331  0.43725  0.27410  Biso   1.000  C
  C10      1.0000 0.32669  0.56275  0.72590  Biso   1.000  C
  H5       1.0000 0.56810  0.21590  0.32720  Biso   1.000  H
  H6       1.0000 0.43190  0.78410  0.67280  Biso   1.000  H
  H7       1.0000 0.79110  0.59710  0.24650  Biso   1.000  H
  H8       1.0000 0.20890  0.40290  0.75350  Biso   1.000  H
  C11      1.0000 0.61153  0.57965  0.25600  Biso   1.000  C
  C12      1.0000 0.38847  0.42035  0.74400  Biso   1.000  C
  N3       1.0000 0.57092  0.68979  0.24620  Biso   1.000  N
  N4       1.0000 0.42908  0.31021  0.75380  Biso   1.000  N
