data_image0
_cell_length_a       11.9972
_cell_length_b       12.6118
_cell_length_c       13.7326
_cell_angle_alpha    106.531
_cell_angle_beta     102.094
_cell_angle_gamma    110.4

_symmetry_space_group_name_H-M    "P 1"
_symmetry_int_tables_number       1

loop_
  _symmetry_equiv_pos_as_xyz
  'x, y, z'

loop_
  _atom_site_label
  _atom_site_occupancy
  _atom_site_fract_x
  _atom_site_fract_y
  _atom_site_fract_z
  _atom_site_thermal_displace_type
  _atom_site_B_iso_or_equiv
  _atom_site_type_symbol
  W1       1.0000 0.87114  0.99070  0.23826  Biso   1.000  W
  W2       1.0000 0.12886  0.00930  0.76174  Biso   1.000  W
  W3       1.0000 0.13436  0.26097  0.43773  Biso   1.000  W
  W4       1.0000 0.86564  0.73903  0.56227  Biso   1.000  W
  W5       1.0000 0.95469  0.26629  0.61239  Biso   1.000  W
  W6       1.0000 0.04531  0.73371  0.38761  Biso   1.000  W
  W7       1.0000 0.74155  0.72585  0.29792  Biso   1.000  W
  W8       1.0000 0.25845  0.27415  0.70208  Biso   1.000  W
  W9       1.0000 0.69518  0.99002  0.41727  Biso   1.000  W
  W10      1.0000 0.30482  0.00998  0.58273  Biso   1.000  W
  W11      1.0000 0.17355  0.99095  0.31911  Biso   1.000  W
  W12      1.0000 0.82645  0.00905  0.68089  Biso   1.000  W
  Cu1      1.0000 0.50000  0.50000  0.00000  Biso   1.000  Cu
  S1       1.0000 0.74710  0.21670  0.11100  Biso   1.000  S
  S2       1.0000 0.25290  0.78330  0.88900  Biso   1.000  S
  S3       1.0000 0.54730  0.25120  0.45520  Biso   1.000  S
  S4       1.0000 0.45270  0.74880  0.54480  Biso   1.000  S
  S5       1.0000 0.97650  0.75290  0.96690  Biso   1.000  S
  S6       1.0000 0.02350  0.24710  0.03310  Biso   1.000  S
  P1       1.0000 0.00000  0.00000  0.50000  Biso   1.000  P
  O1       1.0000 0.88400  0.94800  0.40300  Biso   1.000  O
  O2       1.0000 0.11600  0.05200  0.59700  Biso   1.000  O
  O3       1.0000 0.93300  0.85800  0.45600  Biso   1.000  O
  O4       1.0000 0.06700  0.14200  0.54400  Biso   1.000  O
  O5       1.0000 0.02900  0.04500  0.41200  Biso   1.000  O
  O6       1.0000 0.97100  0.95500  0.58800  Biso   1.000  O
  O7       1.0000 0.90700  0.04600  0.53700  Biso   1.000  O
  O8       1.0000 0.09300  0.95400  0.46300  Biso   1.000  O
  O9       1.0000 0.70500  0.96800  0.54700  Biso   1.000  O
  O10      1.0000 0.29500  0.03200  0.45300  Biso   1.000  O
  O11      1.0000 0.02800  0.30400  0.51060  Biso   1.000  O
  O12      1.0000 0.97200  0.69600  0.48940  Biso   1.000  O
  O13      1.0000 0.75100  0.01600  0.30300  Biso   1.000  O
  O14      1.0000 0.24900  0.98400  0.69700  Biso   1.000  O
  O15      1.0000 0.79900  0.16300  0.50050  Biso   1.000  O
  O16      1.0000 0.20100  0.83700  0.49950  Biso   1.000  O
  O17      1.0000 0.20500  0.16140  0.37500  Biso   1.000  O
  O18      1.0000 0.79500  0.83860  0.62500  Biso   1.000  O
  O19      1.0000 0.10500  0.82980  0.30690  Biso   1.000  O
  O20      1.0000 0.89500  0.17020  0.69310  Biso   1.000  O
  O21      1.0000 0.01700  0.96220  0.23200  Biso   1.000  O
  O22      1.0000 0.98300  0.03780  0.76800  Biso   1.000  O
  O23      1.0000 0.87700  0.68300  0.29440  Biso   1.000  O
  O24      1.0000 0.12300  0.31700  0.70560  Biso   1.000  O
  O25      1.0000 0.19100  0.38100  0.40500  Biso   1.000  O
  O26      1.0000 0.80900  0.61900  0.59500  Biso   1.000  O
  O27      1.0000 0.61950  0.59860  0.20000  Biso   1.000  O
  O28      1.0000 0.38050  0.40140  0.80000  Biso   1.000  O
  O29      1.0000 0.98200  0.15800  0.31390  Biso   1.000  O
  O30      1.0000 0.01800  0.84200  0.68610  Biso   1.000  O
  O31      1.0000 0.55200  0.98650  0.37600  Biso   1.000  O
  O32      1.0000 0.44800  0.01350  0.62400  Biso   1.000  O
  O33      1.0000 0.78800  0.82400  0.21900  Biso   1.000  O
  O34      1.0000 0.21200  0.17600  0.78100  Biso   1.000  O
  O35      1.0000 0.25400  0.98900  0.23230  Biso   1.000  O
  O36      1.0000 0.74600  0.01100  0.76770  Biso   1.000  O
  O37      1.0000 0.80800  0.98700  0.11570  Biso   1.000  O
  O38      1.0000 0.19200  0.01300  0.88430  Biso   1.000  O
  O39      1.0000 0.65800  0.82310  0.34900  Biso   1.000  O
  O40      1.0000 0.34200  0.17690  0.65100  Biso   1.000  O
  O41      1.0000 0.93370  0.39150  0.66490  Biso   1.000  O
  O42      1.0000 0.06630  0.60850  0.33510  Biso   1.000  O
  O43      1.0000 0.25200  0.31400  0.57500  Biso   1.000  O
  O44      1.0000 0.74800  0.68600  0.42500  Biso   1.000  O
  N1       1.0000 0.66100  0.38500  0.07700  Biso   1.000  N
  N2       1.0000 0.33900  0.61500  0.92300  Biso   1.000  N
  N3       1.0000 0.57500  0.37800  0.99300  Biso   1.000  N
  N4       1.0000 0.42500  0.62200  0.00700  Biso   1.000  N
  N5       1.0000 0.52700  0.27600  0.91300  Biso   1.000  N
  N6       1.0000 0.47300  0.72400  0.08700  Biso   1.000  N
  N7       1.0000 0.57600  0.20900  0.95000  Biso   1.000  N
  N8       1.0000 0.42400  0.79100  0.05000  Biso   1.000  N
  N9       1.0000 0.53900  0.46700  0.57200  Biso   1.000  N
  N10      1.0000 0.46100  0.53300  0.42800  Biso   1.000  N
  N11      1.0000 0.58200  0.53400  0.67600  Biso   1.000  N
  N12      1.0000 0.41800  0.46600  0.32400  Biso   1.000  N
  N13      1.0000 0.62200  0.48600  0.73800  Biso   1.000  N
  N14      1.0000 0.37800  0.51400  0.26200  Biso   1.000  N
  N15      1.0000 0.62200  0.38200  0.67200  Biso   1.000  N
  N16      1.0000 0.37800  0.61800  0.32800  Biso   1.000  N
  N17      1.0000 0.75800  0.61800  0.99540  Biso   1.000  N
  N18      1.0000 0.24200  0.38200  0.00460  Biso   1.000  N
  N19      1.0000 0.64000  0.61400  0.97610  Biso   1.000  N
  N20      1.0000 0.36000  0.38600  0.02390  Biso   1.000  N
  N21      1.0000 0.62900  0.69000  0.93100  Biso   1.000  N
  N22      1.0000 0.37100  0.31000  0.06900  Biso   1.000  N
  N23      1.0000 0.74200  0.74800  0.92630  Biso   1.000  N
  N24      1.0000 0.25800  0.25200  0.07370  Biso   1.000  N
  C1       1.0000 0.66200  0.27600  0.05100  Biso   1.000  C
  C2       1.0000 0.33800  0.72400  0.94900  Biso   1.000  C
  C3       1.0000 0.84200  0.33200  0.21600  Biso   1.000  C
  C4       1.0000 0.15800  0.66800  0.78400  Biso   1.000  C
  H1       1.0000 0.91430  0.31750  0.24450  Biso   1.000  H
  H2       1.0000 0.08570  0.68250  0.75550  Biso   1.000  H
  H3       1.0000 0.87320  0.40190  0.19640  Biso   1.000  H
  H4       1.0000 0.12680  0.59810  0.80360  Biso   1.000  H
  C5       1.0000 0.79800  0.36100  0.29300  Biso   1.000  C
  C6       1.0000 0.20200  0.63900  0.70700  Biso   1.000  C
  H5       1.0000 0.78200  0.42930  0.28610  Biso   1.000  H
  H6       1.0000 0.21800  0.57070  0.71390  Biso   1.000  H
  H7       1.0000 0.87170  0.39760  0.35800  Biso   1.000  H
  H8       1.0000 0.12830  0.60240  0.64200  Biso   1.000  H
  C7       1.0000 0.70000  0.30100  0.32500  Biso   1.000  C
  C8       1.0000 0.30000  0.69900  0.67500  Biso   1.000  C
  H9       1.0000 0.62930  0.24790  0.25770  Biso   1.000  H
  H10      1.0000 0.37070  0.75210  0.74230  Biso   1.000  H
  H11      1.0000 0.72560  0.24570  0.35040  Biso   1.000  H
  H12      1.0000 0.27440  0.75430  0.64960  Biso   1.000  H
  C9       1.0000 0.64700  0.34100  0.39300  Biso   1.000  C
  C10      1.0000 0.35300  0.65900  0.60700  Biso   1.000  C
  H13      1.0000 0.59570  0.37320  0.35740  Biso   1.000  H
  H14      1.0000 0.40430  0.62680  0.64260  Biso   1.000  H
  H15      1.0000 0.71590  0.41200  0.45360  Biso   1.000  H
  H16      1.0000 0.28410  0.58800  0.54640  Biso   1.000  H
  C11      1.0000 0.56500  0.36900  0.56400  Biso   1.000  C
  C12      1.0000 0.43500  0.63100  0.43600  Biso   1.000  C
  C13      1.0000 0.52800  0.07100  0.88000  Biso   1.000  C
  C14      1.0000 0.47200  0.92900  0.12000  Biso   1.000  C
  H17      1.0000 0.48030  0.05360  0.80700  Biso   1.000  H
  H18      1.0000 0.51970  0.94640  0.19300  Biso   1.000  H
  H19      1.0000 0.47480  0.02270  0.90920  Biso   1.000  H
  H20      1.0000 0.52520  0.97730  0.09080  Biso   1.000  H
  H21      1.0000 0.59890  0.05250  0.88030  Biso   1.000  H
  H22      1.0000 0.40110  0.94750  0.11970  Biso   1.000  H
  C15      1.0000 0.65800  0.30600  0.70700  Biso   1.000  C
  C16      1.0000 0.34200  0.69400  0.29300  Biso   1.000  C
  H23      1.0000 0.66230  0.32370  0.78070  Biso   1.000  H
  H24      1.0000 0.33770  0.67630  0.21930  Biso   1.000  H
  H25      1.0000 0.74030  0.31830  0.70260  Biso   1.000  H
  H26      1.0000 0.25970  0.68170  0.29740  Biso   1.000  H
  H27      1.0000 0.59820  0.22290  0.66270  Biso   1.000  H
  H28      1.0000 0.40180  0.77710  0.33730  Biso   1.000  H
  C17      1.0000 0.82100  0.70200  0.96600  Biso   1.000  C
  C18      1.0000 0.17900  0.29800  0.03400  Biso   1.000  C
  C19      1.0000 0.02300  0.66700  0.03400  Biso   1.000  C
  C20      1.0000 0.97700  0.33300  0.96600  Biso   1.000  C
  H29      1.0000 0.11470  0.70360  0.06160  Biso   1.000  H
  H30      1.0000 0.88530  0.29640  0.93840  Biso   1.000  H
  H31      1.0000 0.99470  0.67520  0.09550  Biso   1.000  H
  H32      1.0000 0.00530  0.32480  0.90450  Biso   1.000  H
  C21      1.0000 0.97600  0.53000  0.96900  Biso   1.000  C
  C22      1.0000 0.02400  0.47000  0.03100  Biso   1.000  C
  H33      1.0000 0.88450  0.49040  0.94410  Biso   1.000  H
  H34      1.0000 0.11550  0.50960  0.05590  Biso   1.000  H
  H35      1.0000 0.00220  0.51930  0.90620  Biso   1.000  H
  H36      1.0000 0.99780  0.48070  0.09380  Biso   1.000  H
  C23      1.0000 0.76500  0.83500  0.87400  Biso   1.000  C
  C24      1.0000 0.23500  0.16500  0.12600  Biso   1.000  C
  H37      1.0000 0.68970  0.84610  0.85120  Biso   1.000  H
  H38      1.0000 0.31030  0.15390  0.14880  Biso   1.000  H
  H39      1.0000 0.78680  0.80450  0.81170  Biso   1.000  H
  H40      1.0000 0.21320  0.19550  0.18830  Biso   1.000  H
  H41      1.0000 0.83310  0.91280  0.92380  Biso   1.000  H
  H42      1.0000 0.16690  0.08720  0.07620  Biso   1.000  H
