data_image0
_cell_length_a       12.012
_cell_length_b       12.536
_cell_length_c       13.734
_cell_angle_alpha    106.637
_cell_angle_beta     101.958
_cell_angle_gamma    110.13

_symmetry_space_group_name_H-M    "P 1"
_symmetry_int_tables_number       1

loop_
  _symmetry_equiv_pos_as_xyz
  'x, y, z'

loop_
  _atom_site_label
  _atom_site_occupancy
  _atom_site_fract_x
  _atom_site_fract_y
  _atom_site_fract_z
  _atom_site_thermal_displace_type
  _atom_site_B_iso_or_equiv
  _atom_site_type_symbol
  Cu1      1.0000 0.50000  0.00000  0.00000  Biso   1.000  Cu
  Mo1      1.0000 0.74828  0.22394  0.29488  Biso   1.000  Mo
  Mo2      1.0000 0.25172  0.77606  0.70512  Biso   1.000  Mo
  Mo3      1.0000 0.14466  0.75820  0.43569  Biso   1.000  Mo
  Mo4      1.0000 0.85534  0.24180  0.56431  Biso   1.000  Mo
  Mo5      1.0000 0.84023  0.52677  0.69098  Biso   1.000  Mo
  Mo6      1.0000 0.15977  0.47323  0.30902  Biso   1.000  Mo
  Mo7      1.0000 0.86836  0.49656  0.24157  Biso   1.000  Mo
  Mo8      1.0000 0.13164  0.50344  0.75843  Biso   1.000  Mo
  Mo9      1.0000 0.69267  0.48159  0.42163  Biso   1.000  Mo
  Mo10     1.0000 0.30733  0.51841  0.57837  Biso   1.000  Mo
  Mo11     1.0000 0.95138  0.76898  0.59868  Biso   1.000  Mo
  Mo12     1.0000 0.04862  0.23102  0.40132  Biso   1.000  Mo
  P1       1.0000 0.00000  0.50000  0.50000  Biso   1.000  P
  S1       1.0000 0.02640  0.74660  0.03580  Biso   1.000  S
  S2       1.0000 0.97360  0.25340  0.96420  Biso   1.000  S
  S3       1.0000 0.25360  0.28960  0.89770  Biso   1.000  S
  S4       1.0000 0.74640  0.71040  0.10230  Biso   1.000  S
  S5       1.0000 0.45220  0.24840  0.54770  Biso   1.000  S
  S6       1.0000 0.54780  0.75160  0.45230  Biso   1.000  S
  O1       1.0000 0.62680  0.09680  0.20180  Biso   1.000  O
  O2       1.0000 0.37320  0.90320  0.79820  Biso   1.000  O
  O3       1.0000 0.20120  0.87800  0.40070  Biso   1.000  O
  O4       1.0000 0.79880  0.12200  0.59930  Biso   1.000  O
  O5       1.0000 0.76030  0.53270  0.77610  Biso   1.000  O
  O6       1.0000 0.23970  0.46730  0.22390  Biso   1.000  O
  O7       1.0000 0.80460  0.48530  0.11820  Biso   1.000  O
  O8       1.0000 0.19540  0.51470  0.88180  Biso   1.000  O
  O9       1.0000 0.55100  0.47800  0.37980  Biso   1.000  O
  O10      1.0000 0.44900  0.52200  0.62020  Biso   1.000  O
  O11      1.0000 0.92670  0.89190  0.64960  Biso   1.000  O
  O12      1.0000 0.07330  0.10810  0.35040  Biso   1.000  O
  O13      1.0000 0.90510  0.54540  0.53810  Biso   1.000  O
  O14      1.0000 0.09490  0.45460  0.46190  Biso   1.000  O
  O15      1.0000 0.02640  0.53750  0.40710  Biso   1.000  O
  O16      1.0000 0.97360  0.46250  0.59290  Biso   1.000  O
  O17      1.0000 0.88260  0.44960  0.40430  Biso   1.000  O
  O18      1.0000 0.11740  0.55040  0.59570  Biso   1.000  O
  O19      1.0000 0.93520  0.35730  0.45770  Biso   1.000  O
  O20      1.0000 0.06480  0.64270  0.54230  Biso   1.000  O
  O21      1.0000 0.99250  0.54640  0.77320  Biso   1.000  O
  O22      1.0000 0.00750  0.45360  0.22680  Biso   1.000  O
  O23      1.0000 0.70610  0.47430  0.55320  Biso   1.000  O
  O24      1.0000 0.29390  0.52570  0.44680  Biso   1.000  O
  O25      1.0000 0.20370  0.65300  0.36700  Biso   1.000  O
  O26      1.0000 0.79630  0.34700  0.63300  Biso   1.000  O
  O27      1.0000 0.75100  0.51270  0.30430  Biso   1.000  O
  O28      1.0000 0.24900  0.48730  0.69570  Biso   1.000  O
  O29      1.0000 0.74810  0.19030  0.42860  Biso   1.000  O
  O30      1.0000 0.25190  0.80970  0.57140  Biso   1.000  O
  O31      1.0000 0.02690  0.80410  0.50360  Biso   1.000  O
  O32      1.0000 0.97310  0.19590  0.49640  Biso   1.000  O
  O33      1.0000 0.79580  0.65960  0.49660  Biso   1.000  O
  O34      1.0000 0.20420  0.34040  0.50340  Biso   1.000  O
  O35      1.0000 0.79000  0.32060  0.22110  Biso   1.000  O
  O36      1.0000 0.21000  0.67940  0.77890  Biso   1.000  O
  O37      1.0000 0.88040  0.18120  0.29980  Biso   1.000  O
  O38      1.0000 0.11960  0.81880  0.70020  Biso   1.000  O
  O39      1.0000 0.89810  0.68120  0.69230  Biso   1.000  O
  O40      1.0000 0.10190  0.31880  0.30770  Biso   1.000  O
  O41      1.0000 0.98190  0.65680  0.31140  Biso   1.000  O
  O42      1.0000 0.01810  0.34320  0.68860  Biso   1.000  O
  O43      1.0000 0.66050  0.32070  0.35220  Biso   1.000  O
  O44      1.0000 0.33950  0.67930  0.64780  Biso   1.000  O
  N1       1.0000 0.24500  0.88280  0.00730  Biso   1.000  N
  N2       1.0000 0.75500  0.11720  0.99270  Biso   1.000  N
  N3       1.0000 0.35830  0.88380  0.02460  Biso   1.000  N
  N4       1.0000 0.64170  0.11620  0.97540  Biso   1.000  N
  N5       1.0000 0.37210  0.80680  0.06700  Biso   1.000  N
  N6       1.0000 0.62790  0.19320  0.93300  Biso   1.000  N
  N7       1.0000 0.25930  0.75040  0.07450  Biso   1.000  N
  N8       1.0000 0.74070  0.24960  0.92550  Biso   1.000  N
  N9       1.0000 0.33450  0.11660  0.92850  Biso   1.000  N
  N10      1.0000 0.66550  0.88340  0.07150  Biso   1.000  N
  N11      1.0000 0.42530  0.12280  0.01330  Biso   1.000  N
  N12      1.0000 0.57470  0.87720  0.98670  Biso   1.000  N
  N13      1.0000 0.48040  0.22910  0.08950  Biso   1.000  N
  N14      1.0000 0.51960  0.77090  0.91050  Biso   1.000  N
  N15      1.0000 0.42820  0.29880  0.05970  Biso   1.000  N
  N16      1.0000 0.57180  0.70120  0.94030  Biso   1.000  N
  N17      1.0000 0.46240  0.03660  0.42760  Biso   1.000  N
  N18      1.0000 0.53760  0.96340  0.57240  Biso   1.000  N
  N19      1.0000 0.43000  0.97000  0.32140  Biso   1.000  N
  N20      1.0000 0.57000  0.03000  0.67860  Biso   1.000  N
  N21      1.0000 0.38100  0.01600  0.26390  Biso   1.000  N
  N22      1.0000 0.61900  0.98400  0.73610  Biso   1.000  N
  N23      1.0000 0.38130  0.12060  0.33230  Biso   1.000  N
  N24      1.0000 0.61870  0.87940  0.66770  Biso   1.000  N
  C1       1.0000 0.18070  0.79610  0.03670  Biso   1.000  C
  C2       1.0000 0.81930  0.20390  0.96330  Biso   1.000  C
  C3       1.0000 0.97440  0.83320  0.96300  Biso   1.000  C
  C4       1.0000 0.02560  0.16680  0.03700  Biso   1.000  C
  H1       1.0000 0.00200  0.82490  0.90090  Biso   1.000  H
  H2       1.0000 0.99800  0.17510  0.09910  Biso   1.000  H
  H3       1.0000 0.88300  0.79730  0.93670  Biso   1.000  H
  H4       1.0000 0.11700  0.20270  0.06330  Biso   1.000  H
  C5       1.0000 0.02410  0.96650  0.03150  Biso   1.000  C
  C6       1.0000 0.97590  0.03350  0.96850  Biso   1.000  C
  H5       1.0000 0.11550  0.00360  0.05620  Biso   1.000  H
  H6       1.0000 0.88450  0.99640  0.94380  Biso   1.000  H
  H7       1.0000 0.99800  0.97550  0.09450  Biso   1.000  H
  H8       1.0000 0.00200  0.02450  0.90550  Biso   1.000  H
  C7       1.0000 0.23500  0.66230  0.12540  Biso   1.000  C
  C8       1.0000 0.76500  0.33770  0.87460  Biso   1.000  C
  H9       1.0000 0.30750  0.64640  0.14390  Biso   1.000  H
  H10      1.0000 0.69250  0.35360  0.85610  Biso   1.000  H
  H11      1.0000 0.16360  0.58680  0.07630  Biso   1.000  H
  H12      1.0000 0.83640  0.41320  0.92370  Biso   1.000  H
  H13      1.0000 0.21750  0.69530  0.18960  Biso   1.000  H
  H14      1.0000 0.78250  0.30470  0.81040  Biso   1.000  H
  C9       1.0000 0.34070  0.23030  0.96060  Biso   1.000  C
  C10      1.0000 0.65930  0.76970  0.03940  Biso   1.000  C
  C11      1.0000 0.16100  0.16900  0.77700  Biso   1.000  C
  C12      1.0000 0.83900  0.83100  0.22300  Biso   1.000  C
  H15      1.0000 0.11960  0.09800  0.79230  Biso   1.000  H
  H16      1.0000 0.88040  0.90200  0.20770  Biso   1.000  H
  H17      1.0000 0.09570  0.18920  0.74340  Biso   1.000  H
  H18      1.0000 0.90430  0.81080  0.25660  Biso   1.000  H
  C13      1.0000 0.20900  0.13500  0.70500  Biso   1.000  C
  C14      1.0000 0.79100  0.86500  0.29500  Biso   1.000  C
  H19      1.0000 0.13900  0.09190  0.63700  Biso   1.000  H
  H20      1.0000 0.86100  0.90810  0.36300  Biso   1.000  H
  H21      1.0000 0.23090  0.07210  0.71930  Biso   1.000  H
  H22      1.0000 0.76910  0.92790  0.28070  Biso   1.000  H
  C15      1.0000 0.30700  0.20100  0.67900  Biso   1.000  C
  C16      1.0000 0.69300  0.79900  0.32100  Biso   1.000  C
  H23      1.0000 0.38080  0.23340  0.74300  Biso   1.000  H
  H24      1.0000 0.61920  0.76660  0.25700  Biso   1.000  H
  H25      1.0000 0.29280  0.27100  0.67500  Biso   1.000  H
  H26      1.0000 0.70720  0.72900  0.32500  Biso   1.000  H
  C17      1.0000 0.34500  0.16100  0.59300  Biso   1.000  C
  C18      1.0000 0.65500  0.83900  0.40700  Biso   1.000  C
  H27      1.0000 0.26740  0.11380  0.53130  Biso   1.000  H
  H28      1.0000 0.73260  0.88620  0.46870  Biso   1.000  H
  H29      1.0000 0.37480  0.10240  0.60570  Biso   1.000  H
  H30      1.0000 0.62520  0.89760  0.39430  Biso   1.000  H
  C19      1.0000 0.43200  0.13200  0.43120  Biso   1.000  C
  C20      1.0000 0.56800  0.86800  0.56880  Biso   1.000  C
  C21      1.0000 0.46800  0.42870  0.12600  Biso   1.000  C
  C22      1.0000 0.53200  0.57130  0.87400  Biso   1.000  C
  H31      1.0000 0.53150  0.45260  0.19320  Biso   1.000  H
  H32      1.0000 0.46850  0.54740  0.80680  Biso   1.000  H
  H33      1.0000 0.39640  0.43980  0.13990  Biso   1.000  H
  H34      1.0000 0.60360  0.56020  0.86010  Biso   1.000  H
  H35      1.0000 0.50070  0.47890  0.08830  Biso   1.000  H
  H36      1.0000 0.49930  0.52110  0.91170  Biso   1.000  H
  C23      1.0000 0.33900  0.19700  0.29300  Biso   1.000  C
  C24      1.0000 0.66100  0.80300  0.70700  Biso   1.000  C
  H37      1.0000 0.34690  0.26580  0.35230  Biso   1.000  H
  H38      1.0000 0.65310  0.73420  0.64770  Biso   1.000  H
  H39      1.0000 0.25170  0.15080  0.24730  Biso   1.000  H
  H40      1.0000 0.74830  0.84920  0.75270  Biso   1.000  H
  H41      1.0000 0.38820  0.22730  0.25160  Biso   1.000  H
  H42      1.0000 0.61180  0.77270  0.74840  Biso   1.000  H
