data_image0
_cell_length_a       32.419
_cell_length_b       4.516
_cell_length_c       13.126
_cell_angle_alpha    90
_cell_angle_beta     106.75
_cell_angle_gamma    90

_symmetry_space_group_name_H-M    "P 1"
_symmetry_int_tables_number       1

loop_
  _symmetry_equiv_pos_as_xyz
  'x, y, z'

loop_
  _atom_site_label
  _atom_site_occupancy
  _atom_site_fract_x
  _atom_site_fract_y
  _atom_site_fract_z
  _atom_site_thermal_displace_type
  _atom_site_B_iso_or_equiv
  _atom_site_type_symbol
  Br1      1.0000 0.22204  0.09382  0.63056  Biso   1.000  Br
  Br2      1.0000 0.77796  0.09382  0.86944  Biso   1.000  Br
  Br3      1.0000 0.72204  0.59382  0.63056  Biso   1.000  Br
  Br4      1.0000 0.27796  0.59382  0.86944  Biso   1.000  Br
  Br5      1.0000 0.77796  0.90618  0.36944  Biso   1.000  Br
  Br6      1.0000 0.22204  0.90618  0.13056  Biso   1.000  Br
  Br7      1.0000 0.27796  0.40618  0.36944  Biso   1.000  Br
  Br8      1.0000 0.72204  0.40618  0.13056  Biso   1.000  Br
  Br9      1.0000 0.15111  0.38288  0.26708  Biso   1.000  Br
  Br10     1.0000 0.84889  0.38288  0.23292  Biso   1.000  Br
  Br11     1.0000 0.65111  0.88288  0.26708  Biso   1.000  Br
  Br12     1.0000 0.34889  0.88288  0.23292  Biso   1.000  Br
  Br13     1.0000 0.84889  0.61712  0.73292  Biso   1.000  Br
  Br14     1.0000 0.15111  0.61712  0.76708  Biso   1.000  Br
  Br15     1.0000 0.34889  0.11712  0.73292  Biso   1.000  Br
  Br16     1.0000 0.65111  0.11712  0.76708  Biso   1.000  Br
  Cu1      1.0000 0.00000  0.50000  0.50000  Biso   1.000  Cu
  Cu2      1.0000 0.00000  0.50000  0.00000  Biso   1.000  Cu
  Cu3      1.0000 0.50000  0.00000  0.50000  Biso   1.000  Cu
  Cu4      1.0000 0.50000  0.00000  0.00000  Biso   1.000  Cu
  O1       1.0000 0.04991  0.27220  0.49294  Biso   1.000  O
  O2       1.0000 0.95009  0.27220  0.00706  Biso   1.000  O
  O3       1.0000 0.54991  0.77220  0.49294  Biso   1.000  O
  O4       1.0000 0.45009  0.77220  0.00706  Biso   1.000  O
  O5       1.0000 0.95009  0.72780  0.50706  Biso   1.000  O
  O6       1.0000 0.04991  0.72780  0.99294  Biso   1.000  O
  O7       1.0000 0.45009  0.22780  0.50706  Biso   1.000  O
  O8       1.0000 0.54991  0.22780  0.99294  Biso   1.000  O
  O9       1.0000 0.02051  0.90820  0.37939  Biso   1.000  O
  O10      1.0000 0.97949  0.90820  0.12061  Biso   1.000  O
  O11      1.0000 0.52051  0.40820  0.37939  Biso   1.000  O
  O12      1.0000 0.47949  0.40820  0.12061  Biso   1.000  O
  O13      1.0000 0.97949  0.09180  0.62061  Biso   1.000  O
  O14      1.0000 0.02051  0.09180  0.87939  Biso   1.000  O
  O15      1.0000 0.47949  0.59180  0.62061  Biso   1.000  O
  O16      1.0000 0.52051  0.59180  0.87939  Biso   1.000  O
  O17      1.0000 0.03981  0.71350  0.61509  Biso   1.000  O
  O18      1.0000 0.96019  0.71350  0.88491  Biso   1.000  O
  O19      1.0000 0.53981  0.21350  0.61509  Biso   1.000  O
  O20      1.0000 0.46019  0.21350  0.88491  Biso   1.000  O
  O21      1.0000 0.96019  0.28650  0.38491  Biso   1.000  O
  O22      1.0000 0.03981  0.28650  0.11509  Biso   1.000  O
  O23      1.0000 0.46019  0.78650  0.38491  Biso   1.000  O
  O24      1.0000 0.53981  0.78650  0.11509  Biso   1.000  O
  H1       1.0000 0.05520  0.62260  0.66840  Biso   1.000  H
  H2       1.0000 0.94480  0.62260  0.83160  Biso   1.000  H
  H3       1.0000 0.55520  0.12260  0.66840  Biso   1.000  H
  H4       1.0000 0.44480  0.12260  0.83160  Biso   1.000  H
  H5       1.0000 0.94480  0.37740  0.33160  Biso   1.000  H
  H6       1.0000 0.05520  0.37740  0.16840  Biso   1.000  H
  H7       1.0000 0.44480  0.87740  0.33160  Biso   1.000  H
  H8       1.0000 0.55520  0.87740  0.16840  Biso   1.000  H
  H9       1.0000 0.02510  0.84130  0.63540  Biso   1.000  H
  H10      1.0000 0.97490  0.84130  0.86460  Biso   1.000  H
  H11      1.0000 0.52510  0.34130  0.63540  Biso   1.000  H
  H12      1.0000 0.47490  0.34130  0.86460  Biso   1.000  H
  H13      1.0000 0.97490  0.15870  0.36460  Biso   1.000  H
  H14      1.0000 0.02510  0.15870  0.13540  Biso   1.000  H
  H15      1.0000 0.47490  0.65870  0.36460  Biso   1.000  H
  H16      1.0000 0.52510  0.65870  0.13540  Biso   1.000  H
  O25      1.0000 0.06806  0.62320  0.29302  Biso   1.000  O
  O26      1.0000 0.93194  0.62320  0.20698  Biso   1.000  O
  O27      1.0000 0.56806  0.12320  0.29302  Biso   1.000  O
  O28      1.0000 0.43194  0.12320  0.20698  Biso   1.000  O
  O29      1.0000 0.93194  0.37680  0.70698  Biso   1.000  O
  O30      1.0000 0.06806  0.37680  0.79302  Biso   1.000  O
  O31      1.0000 0.43194  0.87680  0.70698  Biso   1.000  O
  O32      1.0000 0.56806  0.87680  0.79302  Biso   1.000  O
  H17      1.0000 0.04510  0.69000  0.30170  Biso   1.000  H
  H18      1.0000 0.95490  0.69000  0.19830  Biso   1.000  H
  H19      1.0000 0.54510  0.19000  0.30170  Biso   1.000  H
  H20      1.0000 0.45490  0.19000  0.19830  Biso   1.000  H
  H21      1.0000 0.95490  0.31000  0.69830  Biso   1.000  H
  H22      1.0000 0.04510  0.31000  0.80170  Biso   1.000  H
  H23      1.0000 0.45490  0.81000  0.69830  Biso   1.000  H
  H24      1.0000 0.54510  0.81000  0.80170  Biso   1.000  H
  C1       1.0000 0.05277  0.04840  0.43820  Biso   1.000  C
  C2       1.0000 0.94723  0.04840  0.06180  Biso   1.000  C
  C3       1.0000 0.55277  0.54840  0.43820  Biso   1.000  C
  C4       1.0000 0.44723  0.54840  0.06180  Biso   1.000  C
  C5       1.0000 0.94723  0.95160  0.56180  Biso   1.000  C
  C6       1.0000 0.05277  0.95160  0.93820  Biso   1.000  C
  C7       1.0000 0.44723  0.45160  0.56180  Biso   1.000  C
  C8       1.0000 0.55277  0.45160  0.93820  Biso   1.000  C
  C9       1.0000 0.09678  0.93990  0.44430  Biso   1.000  C
  C10      1.0000 0.90322  0.93990  0.05570  Biso   1.000  C
  C11      1.0000 0.59678  0.43990  0.44430  Biso   1.000  C
  C12      1.0000 0.40322  0.43990  0.05570  Biso   1.000  C
  C13      1.0000 0.90322  0.06010  0.55570  Biso   1.000  C
  C14      1.0000 0.09678  0.06010  0.94430  Biso   1.000  C
  C15      1.0000 0.40322  0.56010  0.55570  Biso   1.000  C
  C16      1.0000 0.59678  0.56010  0.94430  Biso   1.000  C
  C17      1.0000 0.10204  0.73200  0.36930  Biso   1.000  C
  C18      1.0000 0.89796  0.73200  0.13070  Biso   1.000  C
  C19      1.0000 0.60204  0.23200  0.36930  Biso   1.000  C
  C20      1.0000 0.39796  0.23200  0.13070  Biso   1.000  C
  C21      1.0000 0.89796  0.26800  0.63070  Biso   1.000  C
  C22      1.0000 0.10204  0.26800  0.86930  Biso   1.000  C
  C23      1.0000 0.39796  0.76800  0.63070  Biso   1.000  C
  C24      1.0000 0.60204  0.76800  0.86930  Biso   1.000  C
  C25      1.0000 0.14352  0.64430  0.37310  Biso   1.000  C
  C26      1.0000 0.85648  0.64430  0.12690  Biso   1.000  C
  C27      1.0000 0.64352  0.14430  0.37310  Biso   1.000  C
  C28      1.0000 0.35648  0.14430  0.12690  Biso   1.000  C
  C29      1.0000 0.85648  0.35570  0.62690  Biso   1.000  C
  C30      1.0000 0.14352  0.35570  0.87310  Biso   1.000  C
  C31      1.0000 0.35648  0.85570  0.62690  Biso   1.000  C
  C32      1.0000 0.64352  0.85570  0.87310  Biso   1.000  C
  C33      1.0000 0.17905  0.74870  0.44980  Biso   1.000  C
  C34      1.0000 0.82095  0.74870  0.05020  Biso   1.000  C
  C35      1.0000 0.67905  0.24870  0.44980  Biso   1.000  C
  C36      1.0000 0.32095  0.24870  0.05020  Biso   1.000  C
  C37      1.0000 0.82095  0.25130  0.55020  Biso   1.000  C
  C38      1.0000 0.17905  0.25130  0.94980  Biso   1.000  C
  C39      1.0000 0.32095  0.75130  0.55020  Biso   1.000  C
  C40      1.0000 0.67905  0.75130  0.94980  Biso   1.000  C
  H25      1.0000 0.20720  0.68560  0.45140  Biso   1.000  H
  H26      1.0000 0.79280  0.68560  0.04860  Biso   1.000  H
  H27      1.0000 0.70720  0.18560  0.45140  Biso   1.000  H
  H28      1.0000 0.29280  0.18560  0.04860  Biso   1.000  H
  H29      1.0000 0.79280  0.31440  0.54860  Biso   1.000  H
  H30      1.0000 0.20720  0.31440  0.95140  Biso   1.000  H
  H31      1.0000 0.29280  0.81440  0.54860  Biso   1.000  H
  H32      1.0000 0.70720  0.81440  0.95140  Biso   1.000  H
  C41      1.0000 0.17306  0.94820  0.52490  Biso   1.000  C
  C42      1.0000 0.82694  0.94820  0.97510  Biso   1.000  C
  C43      1.0000 0.67306  0.44820  0.52490  Biso   1.000  C
  C44      1.0000 0.32694  0.44820  0.97510  Biso   1.000  C
  C45      1.0000 0.82694  0.05180  0.47510  Biso   1.000  C
  C46      1.0000 0.17306  0.05180  0.02490  Biso   1.000  C
  C47      1.0000 0.32694  0.55180  0.47510  Biso   1.000  C
  C48      1.0000 0.67306  0.55180  0.02490  Biso   1.000  C
  C49      1.0000 0.13259  0.04610  0.52190  Biso   1.000  C
  C50      1.0000 0.86741  0.04610  0.97810  Biso   1.000  C
  C51      1.0000 0.63259  0.54610  0.52190  Biso   1.000  C
  C52      1.0000 0.36741  0.54610  0.97810  Biso   1.000  C
  C53      1.0000 0.86741  0.95390  0.47810  Biso   1.000  C
  C54      1.0000 0.13259  0.95390  0.02190  Biso   1.000  C
  C55      1.0000 0.36741  0.45390  0.47810  Biso   1.000  C
  C56      1.0000 0.63259  0.45390  0.02190  Biso   1.000  C
  H33      1.0000 0.12910  0.18600  0.57280  Biso   1.000  H
  H34      1.0000 0.87090  0.18600  0.92720  Biso   1.000  H
  H35      1.0000 0.62910  0.68600  0.57280  Biso   1.000  H
  H36      1.0000 0.37090  0.68600  0.92720  Biso   1.000  H
  H37      1.0000 0.87090  0.81400  0.42720  Biso   1.000  H
  H38      1.0000 0.12910  0.81400  0.07280  Biso   1.000  H
  H39      1.0000 0.37090  0.31400  0.42720  Biso   1.000  H
  H40      1.0000 0.62910  0.31400  0.07280  Biso   1.000  H
