data_image0
_cell_length_a       14.633
_cell_length_b       3.729
_cell_length_c       14.788
_cell_angle_alpha    90
_cell_angle_beta     96.575
_cell_angle_gamma    90

_symmetry_space_group_name_H-M    "P 1"
_symmetry_int_tables_number       1

loop_
  _symmetry_equiv_pos_as_xyz
  'x, y, z'

loop_
  _atom_site_label
  _atom_site_occupancy
  _atom_site_fract_x
  _atom_site_fract_y
  _atom_site_fract_z
  _atom_site_thermal_displace_type
  _atom_site_B_iso_or_equiv
  _atom_site_type_symbol
  Cu1      1.0000 0.00000  0.00000  0.00000  Biso   1.000  Cu
  Cu2      1.0000 0.00000  0.50000  0.50000  Biso   1.000  Cu
  O1       1.0000 0.08500  0.01510  0.10939  Biso   1.000  O
  O2       1.0000 0.91500  0.51510  0.39061  Biso   1.000  O
  O3       1.0000 0.91500  0.98490  0.89061  Biso   1.000  O
  O4       1.0000 0.08500  0.48490  0.60939  Biso   1.000  O
  O5       1.0000 0.19548  0.72840  0.04556  Biso   1.000  O
  O6       1.0000 0.80452  0.22840  0.45444  Biso   1.000  O
  O7       1.0000 0.80452  0.27160  0.95444  Biso   1.000  O
  O8       1.0000 0.19548  0.77160  0.54556  Biso   1.000  O
  O9       1.0000 0.93243  0.61780  0.05701  Biso   1.000  O
  O10      1.0000 0.06757  0.11780  0.44299  Biso   1.000  O
  O11      1.0000 0.06757  0.38220  0.94299  Biso   1.000  O
  O12      1.0000 0.93243  0.88220  0.55701  Biso   1.000  O
  H1       1.0000 0.88730  0.52330  0.02570  Biso   1.000  H
  H2       1.0000 0.11270  0.02330  0.47430  Biso   1.000  H
  H3       1.0000 0.11270  0.47670  0.97430  Biso   1.000  H
  H4       1.0000 0.88730  0.97670  0.52570  Biso   1.000  H
  H5       1.0000 0.92080  0.62690  0.11130  Biso   1.000  H
  H6       1.0000 0.07920  0.12690  0.38870  Biso   1.000  H
  H7       1.0000 0.07920  0.37310  0.88870  Biso   1.000  H
  H8       1.0000 0.92080  0.87310  0.61130  Biso   1.000  H
  O13      1.0000 0.11412  0.25230  0.27207  Biso   1.000  O
  O14      1.0000 0.88588  0.75230  0.22793  Biso   1.000  O
  O15      1.0000 0.88588  0.74770  0.72793  Biso   1.000  O
  O16      1.0000 0.11412  0.24770  0.77207  Biso   1.000  O
  H9       1.0000 0.08390  0.21860  0.22100  Biso   1.000  H
  H10      1.0000 0.91610  0.71860  0.27900  Biso   1.000  H
  H11      1.0000 0.91610  0.78140  0.77900  Biso   1.000  H
  H12      1.0000 0.08390  0.28140  0.72100  Biso   1.000  H
  O17      1.0000 0.42050  0.16890  0.41989  Biso   1.000  O
  O18      1.0000 0.57950  0.66890  0.08011  Biso   1.000  O
  O19      1.0000 0.57950  0.83110  0.58011  Biso   1.000  O
  O20      1.0000 0.42050  0.33110  0.91989  Biso   1.000  O
  C1       1.0000 0.16865  0.89620  0.11009  Biso   1.000  C
  C2       1.0000 0.83135  0.39620  0.38991  Biso   1.000  C
  C3       1.0000 0.83135  0.10380  0.88991  Biso   1.000  C
  C4       1.0000 0.16865  0.60380  0.61009  Biso   1.000  C
  C5       1.0000 0.23217  0.97520  0.19337  Biso   1.000  C
  C6       1.0000 0.76783  0.47520  0.30663  Biso   1.000  C
  C7       1.0000 0.76783  0.02480  0.80663  Biso   1.000  C
  C8       1.0000 0.23217  0.52480  0.69337  Biso   1.000  C
  C9       1.0000 0.20333  0.14750  0.26908  Biso   1.000  C
  C10      1.0000 0.79667  0.64750  0.23092  Biso   1.000  C
  C11      1.0000 0.79667  0.85250  0.73092  Biso   1.000  C
  C12      1.0000 0.20333  0.35250  0.76908  Biso   1.000  C
  C13      1.0000 0.26421  0.21690  0.34616  Biso   1.000  C
  C14      1.0000 0.73579  0.71690  0.15384  Biso   1.000  C
  C15      1.0000 0.73579  0.78310  0.65384  Biso   1.000  C
  C16      1.0000 0.26421  0.28310  0.84616  Biso   1.000  C
  H13      1.0000 0.24350  0.33290  0.39730  Biso   1.000  H
  H14      1.0000 0.75650  0.83290  0.10270  Biso   1.000  H
  H15      1.0000 0.75650  0.66710  0.60270  Biso   1.000  H
  H16      1.0000 0.24350  0.16710  0.89730  Biso   1.000  H
  C17      1.0000 0.35507  0.11600  0.34786  Biso   1.000  C
  C18      1.0000 0.64493  0.61600  0.15214  Biso   1.000  C
  C19      1.0000 0.64493  0.88400  0.65214  Biso   1.000  C
  C20      1.0000 0.35507  0.38400  0.84786  Biso   1.000  C
  C21      1.0000 0.38618  0.94300  0.27301  Biso   1.000  C
  C22      1.0000 0.61382  0.44300  0.22699  Biso   1.000  C
  C23      1.0000 0.61382  0.05700  0.72699  Biso   1.000  C
  C24      1.0000 0.38618  0.55700  0.77301  Biso   1.000  C
  H17      1.0000 0.44880  0.87350  0.27440  Biso   1.000  H
  H18      1.0000 0.55120  0.37350  0.22560  Biso   1.000  H
  H19      1.0000 0.55120  0.12650  0.72560  Biso   1.000  H
  H20      1.0000 0.44880  0.62650  0.77440  Biso   1.000  H
  C25      1.0000 0.32453  0.87560  0.19756  Biso   1.000  C
  C26      1.0000 0.67547  0.37560  0.30244  Biso   1.000  C
  C27      1.0000 0.67547  0.12440  0.80244  Biso   1.000  C
  C28      1.0000 0.32453  0.62440  0.69756  Biso   1.000  C
  H21      1.0000 0.34540  0.75780  0.14680  Biso   1.000  H
  H22      1.0000 0.65460  0.25780  0.35320  Biso   1.000  H
  H23      1.0000 0.65460  0.24220  0.85320  Biso   1.000  H
  H24      1.0000 0.34540  0.74220  0.64680  Biso   1.000  H
  C29      1.0000 0.39038  0.32060  0.50070  Biso   1.000  C
  C30      1.0000 0.60962  0.82060  0.99930  Biso   1.000  C
  C31      1.0000 0.60962  0.67940  0.49930  Biso   1.000  C
  C32      1.0000 0.39038  0.17940  0.00070  Biso   1.000  C
  H25      1.0000 0.36840  0.56570  0.48800  Biso   1.000  H
  H26      1.0000 0.63160  0.06570  0.01200  Biso   1.000  H
  H27      1.0000 0.63160  0.43430  0.51200  Biso   1.000  H
  H28      1.0000 0.36840  0.93430  0.98800  Biso   1.000  H
  H29      1.0000 0.44190  0.32480  0.54930  Biso   1.000  H
  H30      1.0000 0.55810  0.82480  0.95070  Biso   1.000  H
  H31      1.0000 0.55810  0.67520  0.45070  Biso   1.000  H
  H32      1.0000 0.44190  0.17520  0.04930  Biso   1.000  H
  H33      1.0000 0.34030  0.17470  0.51990  Biso   1.000  H
  H34      1.0000 0.65970  0.67470  0.98010  Biso   1.000  H
  H35      1.0000 0.65970  0.82530  0.48010  Biso   1.000  H
  H36      1.0000 0.34030  0.32530  0.01990  Biso   1.000  H
