data_image0
_cell_length_a       17.0833
_cell_length_b       11.1127
_cell_length_c       12.1044
_cell_angle_alpha    90
_cell_angle_beta     104.857
_cell_angle_gamma    90

_symmetry_space_group_name_H-M    "P 1"
_symmetry_int_tables_number       1

loop_
  _symmetry_equiv_pos_as_xyz
  'x, y, z'

loop_
  _atom_site_label
  _atom_site_occupancy
  _atom_site_fract_x
  _atom_site_fract_y
  _atom_site_fract_z
  _atom_site_thermal_displace_type
  _atom_site_B_iso_or_equiv
  _atom_site_type_symbol
  Cu1      1.0000 0.00000  0.37435  0.25000  Biso   1.000  Cu
  Cu2      1.0000 0.50000  0.87435  0.25000  Biso   1.000  Cu
  Cu3      1.0000 0.00000  0.62565  0.75000  Biso   1.000  Cu
  Cu4      1.0000 0.50000  0.12565  0.75000  Biso   1.000  Cu
  N1       1.0000 0.00000  0.19319  0.25000  Biso   1.000  N
  N2       1.0000 0.50000  0.69319  0.25000  Biso   1.000  N
  N3       1.0000 0.00000  0.80681  0.75000  Biso   1.000  N
  N4       1.0000 0.50000  0.30681  0.75000  Biso   1.000  N
  N5       1.0000 0.00000  0.55626  0.25000  Biso   1.000  N
  N6       1.0000 0.50000  0.05626  0.25000  Biso   1.000  N
  N7       1.0000 0.00000  0.44374  0.75000  Biso   1.000  N
  N8       1.0000 0.50000  0.94374  0.75000  Biso   1.000  N
  C1       1.0000 0.04111  0.13085  0.18875  Biso   1.000  C
  C2       1.0000 0.95889  0.13085  0.31125  Biso   1.000  C
  C3       1.0000 0.54111  0.63085  0.18875  Biso   1.000  C
  C4       1.0000 0.45889  0.63085  0.31125  Biso   1.000  C
  C5       1.0000 0.95889  0.86915  0.81125  Biso   1.000  C
  C6       1.0000 0.04111  0.86915  0.68875  Biso   1.000  C
  C7       1.0000 0.45889  0.36915  0.81125  Biso   1.000  C
  C8       1.0000 0.54111  0.36915  0.68875  Biso   1.000  C
  H1       1.0000 0.06970  0.17310  0.14540  Biso   1.000  H
  H2       1.0000 0.93030  0.17310  0.35460  Biso   1.000  H
  H3       1.0000 0.56970  0.67310  0.14540  Biso   1.000  H
  H4       1.0000 0.43030  0.67310  0.35460  Biso   1.000  H
  H5       1.0000 0.93030  0.82690  0.85460  Biso   1.000  H
  H6       1.0000 0.06970  0.82690  0.64540  Biso   1.000  H
  H7       1.0000 0.43030  0.32690  0.85460  Biso   1.000  H
  H8       1.0000 0.56970  0.32690  0.64540  Biso   1.000  H
  C9       1.0000 0.04307  0.00672  0.18698  Biso   1.000  C
  C10      1.0000 0.95693  0.00672  0.31302  Biso   1.000  C
  C11      1.0000 0.54307  0.50672  0.18698  Biso   1.000  C
  C12      1.0000 0.45693  0.50672  0.31302  Biso   1.000  C
  C13      1.0000 0.95693  0.99328  0.81302  Biso   1.000  C
  C14      1.0000 0.04307  0.99328  0.68698  Biso   1.000  C
  C15      1.0000 0.45693  0.49328  0.81302  Biso   1.000  C
  C16      1.0000 0.54307  0.49328  0.68698  Biso   1.000  C
  H9       1.0000 0.07300  0.96700  0.14390  Biso   1.000  H
  H10      1.0000 0.92700  0.96700  0.35610  Biso   1.000  H
  H11      1.0000 0.57300  0.46700  0.14390  Biso   1.000  H
  H12      1.0000 0.42700  0.46700  0.35610  Biso   1.000  H
  H13      1.0000 0.92700  0.03300  0.85610  Biso   1.000  H
  H14      1.0000 0.07300  0.03300  0.64390  Biso   1.000  H
  H15      1.0000 0.42700  0.53300  0.85610  Biso   1.000  H
  H16      1.0000 0.57300  0.53300  0.64390  Biso   1.000  H
  C17      1.0000 0.00000  0.94133  0.25000  Biso   1.000  C
  C18      1.0000 0.50000  0.44133  0.25000  Biso   1.000  C
  C19      1.0000 0.00000  0.05867  0.75000  Biso   1.000  C
  C20      1.0000 0.50000  0.55867  0.75000  Biso   1.000  C
  C21      1.0000 0.00000  0.80804  0.25000  Biso   1.000  C
  C22      1.0000 0.50000  0.30804  0.25000  Biso   1.000  C
  C23      1.0000 0.00000  0.19196  0.75000  Biso   1.000  C
  C24      1.0000 0.50000  0.69196  0.75000  Biso   1.000  C
  C25      1.0000 0.98432  0.74282  0.33995  Biso   1.000  C
  C26      1.0000 0.01568  0.74282  0.16005  Biso   1.000  C
  C27      1.0000 0.48432  0.24282  0.33995  Biso   1.000  C
  C28      1.0000 0.51568  0.24282  0.16005  Biso   1.000  C
  C29      1.0000 0.01568  0.25718  0.66005  Biso   1.000  C
  C30      1.0000 0.98432  0.25718  0.83995  Biso   1.000  C
  C31      1.0000 0.51568  0.75718  0.66005  Biso   1.000  C
  C32      1.0000 0.48432  0.75718  0.83995  Biso   1.000  C
  H17      1.0000 0.97360  0.78270  0.40200  Biso   1.000  H
  H18      1.0000 0.02640  0.78270  0.09800  Biso   1.000  H
  H19      1.0000 0.47360  0.28270  0.40200  Biso   1.000  H
  H20      1.0000 0.52640  0.28270  0.09800  Biso   1.000  H
  H21      1.0000 0.02640  0.21730  0.59800  Biso   1.000  H
  H22      1.0000 0.97360  0.21730  0.90200  Biso   1.000  H
  H23      1.0000 0.52640  0.71730  0.59800  Biso   1.000  H
  H24      1.0000 0.47360  0.71730  0.90200  Biso   1.000  H
  C33      1.0000 0.98475  0.61856  0.33684  Biso   1.000  C
  C34      1.0000 0.01525  0.61856  0.16316  Biso   1.000  C
  C35      1.0000 0.48475  0.11856  0.33684  Biso   1.000  C
  C36      1.0000 0.51525  0.11856  0.16316  Biso   1.000  C
  C37      1.0000 0.01525  0.38144  0.66316  Biso   1.000  C
  C38      1.0000 0.98475  0.38144  0.83684  Biso   1.000  C
  C39      1.0000 0.51525  0.88144  0.66316  Biso   1.000  C
  C40      1.0000 0.48475  0.88144  0.83684  Biso   1.000  C
  H25      1.0000 0.97400  0.57640  0.39770  Biso   1.000  H
  H26      1.0000 0.02600  0.57640  0.10230  Biso   1.000  H
  H27      1.0000 0.47400  0.07640  0.39770  Biso   1.000  H
  H28      1.0000 0.52600  0.07640  0.10230  Biso   1.000  H
  H29      1.0000 0.02600  0.42360  0.60230  Biso   1.000  H
  H30      1.0000 0.97400  0.42360  0.89770  Biso   1.000  H
  H31      1.0000 0.52600  0.92360  0.60230  Biso   1.000  H
  H32      1.0000 0.47400  0.92360  0.89770  Biso   1.000  H
  C41      1.0000 0.29277  0.08956  0.05915  Biso   1.000  C
  C42      1.0000 0.70723  0.08956  0.44085  Biso   1.000  C
  C43      1.0000 0.79277  0.58956  0.05915  Biso   1.000  C
  C44      1.0000 0.20723  0.58956  0.44085  Biso   1.000  C
  C45      1.0000 0.70723  0.91044  0.94085  Biso   1.000  C
  C46      1.0000 0.29277  0.91044  0.55915  Biso   1.000  C
  C47      1.0000 0.20723  0.41044  0.94085  Biso   1.000  C
  C48      1.0000 0.79277  0.41044  0.55915  Biso   1.000  C
  F1       1.0000 0.20714  0.16030  0.88130  Biso   1.000  F
  F2       1.0000 0.79286  0.16030  0.61870  Biso   1.000  F
  F3       1.0000 0.70714  0.66030  0.88130  Biso   1.000  F
  F4       1.0000 0.29286  0.66030  0.61870  Biso   1.000  F
  F5       1.0000 0.79286  0.83970  0.11870  Biso   1.000  F
  F6       1.0000 0.20714  0.83970  0.38130  Biso   1.000  F
  F7       1.0000 0.29286  0.33970  0.11870  Biso   1.000  F
  F8       1.0000 0.70714  0.33970  0.38130  Biso   1.000  F
  F9       1.0000 0.16486  0.18941  0.03396  Biso   1.000  F
  F10      1.0000 0.83514  0.18941  0.46604  Biso   1.000  F
  F11      1.0000 0.66486  0.68941  0.03396  Biso   1.000  F
  F12      1.0000 0.33514  0.68941  0.46604  Biso   1.000  F
  F13      1.0000 0.83514  0.81059  0.96604  Biso   1.000  F
  F14      1.0000 0.16486  0.81059  0.53396  Biso   1.000  F
  F15      1.0000 0.33514  0.31059  0.96604  Biso   1.000  F
  F16      1.0000 0.66486  0.31059  0.53396  Biso   1.000  F
  O1       1.0000 0.29081  0.06836  0.15794  Biso   1.000  O
  O2       1.0000 0.70919  0.06836  0.34206  Biso   1.000  O
  O3       1.0000 0.79081  0.56836  0.15794  Biso   1.000  O
  O4       1.0000 0.20919  0.56836  0.34206  Biso   1.000  O
  O5       1.0000 0.70919  0.93164  0.84206  Biso   1.000  O
  O6       1.0000 0.29081  0.93164  0.65794  Biso   1.000  O
  O7       1.0000 0.20919  0.43164  0.84206  Biso   1.000  O
  O8       1.0000 0.79081  0.43164  0.65794  Biso   1.000  O
  O9       1.0000 0.33787  0.04583  0.00375  Biso   1.000  O
  O10      1.0000 0.66213  0.04583  0.49625  Biso   1.000  O
  O11      1.0000 0.83787  0.54583  0.00375  Biso   1.000  O
  O12      1.0000 0.16213  0.54583  0.49625  Biso   1.000  O
  O13      1.0000 0.66213  0.95417  0.99625  Biso   1.000  O
  O14      1.0000 0.33787  0.95417  0.50375  Biso   1.000  O
  O15      1.0000 0.16213  0.45417  0.99625  Biso   1.000  O
  O16      1.0000 0.83787  0.45417  0.50375  Biso   1.000  O
  C49      1.0000 0.23239  0.18666  0.99452  Biso   1.000  C
  C50      1.0000 0.76761  0.18666  0.50548  Biso   1.000  C
  C51      1.0000 0.73239  0.68666  0.99452  Biso   1.000  C
  C52      1.0000 0.26761  0.68666  0.50548  Biso   1.000  C
  C53      1.0000 0.76761  0.81334  0.00548  Biso   1.000  C
  C54      1.0000 0.23239  0.81334  0.49452  Biso   1.000  C
  C55      1.0000 0.26761  0.31334  0.00548  Biso   1.000  C
  C56      1.0000 0.73239  0.31334  0.49452  Biso   1.000  C
  O17      1.0000 0.14891  0.17534  0.49402  Biso   1.000  O
  O18      1.0000 0.85109  0.17534  0.00598  Biso   1.000  O
  O19      1.0000 0.64891  0.67534  0.49402  Biso   1.000  O
  O20      1.0000 0.35109  0.67534  0.00598  Biso   1.000  O
  O21      1.0000 0.85109  0.82466  0.50598  Biso   1.000  O
  O22      1.0000 0.14891  0.82466  0.99402  Biso   1.000  O
  O23      1.0000 0.35109  0.32466  0.50598  Biso   1.000  O
  O24      1.0000 0.64891  0.32466  0.99402  Biso   1.000  O
  O25      1.0000 0.23898  0.20754  0.32588  Biso   1.000  O
  O26      1.0000 0.76102  0.20754  0.17412  Biso   1.000  O
  O27      1.0000 0.73898  0.70754  0.32588  Biso   1.000  O
  O28      1.0000 0.26102  0.70754  0.17412  Biso   1.000  O
  O29      1.0000 0.76102  0.79246  0.67412  Biso   1.000  O
  O30      1.0000 0.23898  0.79246  0.82588  Biso   1.000  O
  O31      1.0000 0.26102  0.29246  0.67412  Biso   1.000  O
  O32      1.0000 0.73898  0.29246  0.82588  Biso   1.000  O
  O33      1.0000 0.13333  0.38602  0.20637  Biso   1.000  O
  O34      1.0000 0.86667  0.38602  0.29363  Biso   1.000  O
  O35      1.0000 0.63333  0.88602  0.20637  Biso   1.000  O
  O36      1.0000 0.36667  0.88602  0.29363  Biso   1.000  O
  O37      1.0000 0.86667  0.61398  0.79363  Biso   1.000  O
  O38      1.0000 0.13333  0.61398  0.70637  Biso   1.000  O
  O39      1.0000 0.36667  0.11398  0.79363  Biso   1.000  O
  O40      1.0000 0.63333  0.11398  0.70637  Biso   1.000  O
  O41      1.0000 0.93937  0.37146  0.08751  Biso   1.000  O
  O42      1.0000 0.06063  0.37146  0.41249  Biso   1.000  O
  O43      1.0000 0.43937  0.87146  0.08751  Biso   1.000  O
  O44      1.0000 0.56063  0.87146  0.41249  Biso   1.000  O
  O45      1.0000 0.06063  0.62854  0.91249  Biso   1.000  O
  O46      1.0000 0.93937  0.62854  0.58751  Biso   1.000  O
  O47      1.0000 0.56063  0.12854  0.91249  Biso   1.000  O
  O48      1.0000 0.43937  0.12854  0.58751  Biso   1.000  O
  H33      1.0000 0.14410  0.40100  0.13980  Biso   1.000  H
  H34      1.0000 0.85590  0.40100  0.36020  Biso   1.000  H
  H35      1.0000 0.64410  0.90100  0.13980  Biso   1.000  H
  H36      1.0000 0.35590  0.90100  0.36020  Biso   1.000  H
  H37      1.0000 0.85590  0.59900  0.86020  Biso   1.000  H
  H38      1.0000 0.14410  0.59900  0.63980  Biso   1.000  H
  H39      1.0000 0.35590  0.09900  0.86020  Biso   1.000  H
  H40      1.0000 0.64410  0.09900  0.63980  Biso   1.000  H
  H41      1.0000 0.90190  0.42720  0.06080  Biso   1.000  H
  H42      1.0000 0.09810  0.42720  0.43920  Biso   1.000  H
  H43      1.0000 0.40190  0.92720  0.06080  Biso   1.000  H
  H44      1.0000 0.59810  0.92720  0.43920  Biso   1.000  H
  H45      1.0000 0.09810  0.57280  0.93920  Biso   1.000  H
  H46      1.0000 0.90190  0.57280  0.56080  Biso   1.000  H
  H47      1.0000 0.59810  0.07280  0.93920  Biso   1.000  H
  H48      1.0000 0.40190  0.07280  0.56080  Biso   1.000  H
  H49      1.0000 0.91180  0.30420  0.06390  Biso   1.000  H
  H50      1.0000 0.08820  0.30420  0.43610  Biso   1.000  H
  H51      1.0000 0.41180  0.80420  0.06390  Biso   1.000  H
  H52      1.0000 0.58820  0.80420  0.43610  Biso   1.000  H
  H53      1.0000 0.08820  0.69580  0.93610  Biso   1.000  H
  H54      1.0000 0.91180  0.69580  0.56390  Biso   1.000  H
  H55      1.0000 0.58820  0.19580  0.93610  Biso   1.000  H
  H56      1.0000 0.41180  0.19580  0.56390  Biso   1.000  H
  H57      1.0000 0.15680  0.44670  0.25150  Biso   1.000  H
  H58      1.0000 0.84320  0.44670  0.24850  Biso   1.000  H
  H59      1.0000 0.65680  0.94670  0.25150  Biso   1.000  H
  H60      1.0000 0.34320  0.94670  0.24850  Biso   1.000  H
  H61      1.0000 0.84320  0.55330  0.74850  Biso   1.000  H
  H62      1.0000 0.15680  0.55330  0.75150  Biso   1.000  H
  H63      1.0000 0.34320  0.05330  0.74850  Biso   1.000  H
  H64      1.0000 0.65680  0.05330  0.75150  Biso   1.000  H
  H65      1.0000 0.20590  0.26170  0.28320  Biso   1.000  H
  H66      1.0000 0.79410  0.26170  0.21680  Biso   1.000  H
  H67      1.0000 0.70590  0.76170  0.28320  Biso   1.000  H
  H68      1.0000 0.29410  0.76170  0.21680  Biso   1.000  H
  H69      1.0000 0.79410  0.73830  0.71680  Biso   1.000  H
  H70      1.0000 0.20590  0.73830  0.78320  Biso   1.000  H
  H71      1.0000 0.29410  0.23830  0.71680  Biso   1.000  H
  H72      1.0000 0.70590  0.23830  0.78320  Biso   1.000  H
  H73      1.0000 0.17900  0.16410  0.44440  Biso   1.000  H
  H74      1.0000 0.82100  0.16410  0.05560  Biso   1.000  H
  H75      1.0000 0.67900  0.66410  0.44440  Biso   1.000  H
  H76      1.0000 0.32100  0.66410  0.05560  Biso   1.000  H
  H77      1.0000 0.82100  0.83590  0.55560  Biso   1.000  H
  H78      1.0000 0.17900  0.83590  0.94440  Biso   1.000  H
  H79      1.0000 0.32100  0.33590  0.55560  Biso   1.000  H
  H80      1.0000 0.67900  0.33590  0.94440  Biso   1.000  H
  H81      1.0000 0.18870  0.20050  0.55290  Biso   1.000  H
  H82      1.0000 0.81130  0.20050  0.94710  Biso   1.000  H
  H83      1.0000 0.68870  0.70050  0.55290  Biso   1.000  H
  H84      1.0000 0.31130  0.70050  0.94710  Biso   1.000  H
  H85      1.0000 0.81130  0.79950  0.44710  Biso   1.000  H
  H86      1.0000 0.18870  0.79950  0.05290  Biso   1.000  H
  H87      1.0000 0.31130  0.29950  0.44710  Biso   1.000  H
  H88      1.0000 0.68870  0.29950  0.05290  Biso   1.000  H
  H89      1.0000 0.26180  0.16060  0.27290  Biso   1.000  H
  H90      1.0000 0.73820  0.16060  0.22710  Biso   1.000  H
  H91      1.0000 0.76180  0.66060  0.27290  Biso   1.000  H
  H92      1.0000 0.23820  0.66060  0.22710  Biso   1.000  H
  H93      1.0000 0.73820  0.83940  0.72710  Biso   1.000  H
  H94      1.0000 0.26180  0.83940  0.77290  Biso   1.000  H
  H95      1.0000 0.23820  0.33940  0.72710  Biso   1.000  H
  H96      1.0000 0.76180  0.33940  0.77290  Biso   1.000  H
