data_image0
_cell_length_a       17.112
_cell_length_b       11.135
_cell_length_c       12.126
_cell_angle_alpha    90
_cell_angle_beta     104.85
_cell_angle_gamma    90

_symmetry_space_group_name_H-M    "P 1"
_symmetry_int_tables_number       1

loop_
  _symmetry_equiv_pos_as_xyz
  'x, y, z'

loop_
  _atom_site_label
  _atom_site_occupancy
  _atom_site_fract_x
  _atom_site_fract_y
  _atom_site_fract_z
  _atom_site_thermal_displace_type
  _atom_site_B_iso_or_equiv
  _atom_site_type_symbol
  Cu1      1.0000 0.50000  0.87438  0.75000  Biso   1.000  Cu
  Cu2      1.0000 0.00000  0.37438  0.75000  Biso   1.000  Cu
  Cu3      1.0000 0.50000  0.12562  0.25000  Biso   1.000  Cu
  Cu4      1.0000 0.00000  0.62562  0.25000  Biso   1.000  Cu
  F1       1.0000 0.33513  0.31057  0.46607  Biso   1.000  F
  F2       1.0000 0.66487  0.31057  0.03393  Biso   1.000  F
  F3       1.0000 0.83513  0.81057  0.46607  Biso   1.000  F
  F4       1.0000 0.16487  0.81057  0.03393  Biso   1.000  F
  F5       1.0000 0.66487  0.68943  0.53393  Biso   1.000  F
  F6       1.0000 0.33513  0.68943  0.96607  Biso   1.000  F
  F7       1.0000 0.16487  0.18943  0.53393  Biso   1.000  F
  F8       1.0000 0.83513  0.18943  0.96607  Biso   1.000  F
  F9       1.0000 0.29291  0.33959  0.61875  Biso   1.000  F
  F10      1.0000 0.70709  0.33959  0.88125  Biso   1.000  F
  F11      1.0000 0.79291  0.83959  0.61875  Biso   1.000  F
  F12      1.0000 0.20709  0.83959  0.88125  Biso   1.000  F
  F13      1.0000 0.70709  0.66041  0.38125  Biso   1.000  F
  F14      1.0000 0.29291  0.66041  0.11875  Biso   1.000  F
  F15      1.0000 0.20709  0.16041  0.38125  Biso   1.000  F
  F16      1.0000 0.79291  0.16041  0.11875  Biso   1.000  F
  O1       1.0000 0.43960  0.87146  0.58758  Biso   1.000  O
  O2       1.0000 0.56040  0.87146  0.91242  Biso   1.000  O
  O3       1.0000 0.93960  0.37146  0.58758  Biso   1.000  O
  O4       1.0000 0.06040  0.37146  0.91242  Biso   1.000  O
  O5       1.0000 0.56040  0.12854  0.41242  Biso   1.000  O
  O6       1.0000 0.43960  0.12854  0.08758  Biso   1.000  O
  O7       1.0000 0.06040  0.62854  0.41242  Biso   1.000  O
  O8       1.0000 0.93960  0.62854  0.08758  Biso   1.000  O
  H1       1.0000 0.41540  0.80890  0.56640  Biso   1.000  H
  H2       1.0000 0.58460  0.80890  0.93360  Biso   1.000  H
  H3       1.0000 0.91540  0.30890  0.56640  Biso   1.000  H
  H4       1.0000 0.08460  0.30890  0.93360  Biso   1.000  H
  H5       1.0000 0.58460  0.19110  0.43360  Biso   1.000  H
  H6       1.0000 0.41540  0.19110  0.06640  Biso   1.000  H
  H7       1.0000 0.08460  0.69110  0.43360  Biso   1.000  H
  H8       1.0000 0.91540  0.69110  0.06640  Biso   1.000  H
  H9       1.0000 0.40870  0.92850  0.56800  Biso   1.000  H
  H10      1.0000 0.59130  0.92850  0.93200  Biso   1.000  H
  H11      1.0000 0.90870  0.42850  0.56800  Biso   1.000  H
  H12      1.0000 0.09130  0.42850  0.93200  Biso   1.000  H
  H13      1.0000 0.59130  0.07150  0.43200  Biso   1.000  H
  H14      1.0000 0.40870  0.07150  0.06800  Biso   1.000  H
  H15      1.0000 0.09130  0.57150  0.43200  Biso   1.000  H
  H16      1.0000 0.90870  0.57150  0.06800  Biso   1.000  H
  O9       1.0000 0.16201  0.45430  0.49626  Biso   1.000  O
  O10      1.0000 0.83799  0.45430  0.00374  Biso   1.000  O
  O11      1.0000 0.66201  0.95430  0.49626  Biso   1.000  O
  O12      1.0000 0.33799  0.95430  0.00374  Biso   1.000  O
  O13      1.0000 0.83799  0.54570  0.50374  Biso   1.000  O
  O14      1.0000 0.16201  0.54570  0.99626  Biso   1.000  O
  O15      1.0000 0.33799  0.04570  0.50374  Biso   1.000  O
  O16      1.0000 0.66201  0.04570  0.99626  Biso   1.000  O
  O17      1.0000 0.20898  0.43170  0.34192  Biso   1.000  O
  O18      1.0000 0.79102  0.43170  0.15808  Biso   1.000  O
  O19      1.0000 0.70898  0.93170  0.34192  Biso   1.000  O
  O20      1.0000 0.29102  0.93170  0.15808  Biso   1.000  O
  O21      1.0000 0.79102  0.56830  0.65808  Biso   1.000  O
  O22      1.0000 0.20898  0.56830  0.84192  Biso   1.000  O
  O23      1.0000 0.29102  0.06830  0.65808  Biso   1.000  O
  O24      1.0000 0.70898  0.06830  0.84192  Biso   1.000  O
  O25      1.0000 0.36711  0.88591  0.79355  Biso   1.000  O
  O26      1.0000 0.63289  0.88591  0.70645  Biso   1.000  O
  O27      1.0000 0.86711  0.38591  0.79355  Biso   1.000  O
  O28      1.0000 0.13289  0.38591  0.70645  Biso   1.000  O
  O29      1.0000 0.63289  0.11409  0.20645  Biso   1.000  O
  O30      1.0000 0.36711  0.11409  0.29355  Biso   1.000  O
  O31      1.0000 0.13289  0.61409  0.20645  Biso   1.000  O
  O32      1.0000 0.86711  0.61409  0.29355  Biso   1.000  O
  H17      1.0000 0.35790  0.89680  0.85610  Biso   1.000  H
  H18      1.0000 0.64210  0.89680  0.64390  Biso   1.000  H
  H19      1.0000 0.85790  0.39680  0.85610  Biso   1.000  H
  H20      1.0000 0.14210  0.39680  0.64390  Biso   1.000  H
  H21      1.0000 0.64210  0.10320  0.14390  Biso   1.000  H
  H22      1.0000 0.35790  0.10320  0.35610  Biso   1.000  H
  H23      1.0000 0.14210  0.60320  0.14390  Biso   1.000  H
  H24      1.0000 0.85790  0.60320  0.35610  Biso   1.000  H
  H25      1.0000 0.34480  0.93990  0.75030  Biso   1.000  H
  H26      1.0000 0.65520  0.93990  0.74970  Biso   1.000  H
  H27      1.0000 0.84480  0.43990  0.75030  Biso   1.000  H
  H28      1.0000 0.15520  0.43990  0.74970  Biso   1.000  H
  H29      1.0000 0.65520  0.06010  0.24970  Biso   1.000  H
  H30      1.0000 0.34480  0.06010  0.25030  Biso   1.000  H
  H31      1.0000 0.15520  0.56010  0.24970  Biso   1.000  H
  H32      1.0000 0.84480  0.56010  0.25030  Biso   1.000  H
  O33      1.0000 0.35115  0.67520  0.50620  Biso   1.000  O
  O34      1.0000 0.64885  0.67520  0.99380  Biso   1.000  O
  O35      1.0000 0.85115  0.17520  0.50620  Biso   1.000  O
  O36      1.0000 0.14885  0.17520  0.99380  Biso   1.000  O
  O37      1.0000 0.64885  0.32480  0.49380  Biso   1.000  O
  O38      1.0000 0.35115  0.32480  0.00620  Biso   1.000  O
  O39      1.0000 0.14885  0.82480  0.49380  Biso   1.000  O
  O40      1.0000 0.85115  0.82480  0.00620  Biso   1.000  O
  H33      1.0000 0.32620  0.66100  0.55420  Biso   1.000  H
  H34      1.0000 0.67380  0.66100  0.94580  Biso   1.000  H
  H35      1.0000 0.82620  0.16100  0.55420  Biso   1.000  H
  H36      1.0000 0.17380  0.16100  0.94580  Biso   1.000  H
  H37      1.0000 0.67380  0.33900  0.44580  Biso   1.000  H
  H38      1.0000 0.32620  0.33900  0.05420  Biso   1.000  H
  H39      1.0000 0.17380  0.83900  0.44580  Biso   1.000  H
  H40      1.0000 0.82620  0.83900  0.05420  Biso   1.000  H
  H41      1.0000 0.31970  0.70050  0.44790  Biso   1.000  H
  H42      1.0000 0.68030  0.70050  0.05210  Biso   1.000  H
  H43      1.0000 0.81970  0.20050  0.44790  Biso   1.000  H
  H44      1.0000 0.18030  0.20050  0.05210  Biso   1.000  H
  H45      1.0000 0.68030  0.29950  0.55210  Biso   1.000  H
  H46      1.0000 0.31970  0.29950  0.94790  Biso   1.000  H
  H47      1.0000 0.18030  0.79950  0.55210  Biso   1.000  H
  H48      1.0000 0.81970  0.79950  0.94790  Biso   1.000  H
  O41      1.0000 0.23890  0.79230  0.32616  Biso   1.000  O
  O42      1.0000 0.76110  0.79230  0.17384  Biso   1.000  O
  O43      1.0000 0.73890  0.29230  0.32616  Biso   1.000  O
  O44      1.0000 0.26110  0.29230  0.17384  Biso   1.000  O
  O45      1.0000 0.76110  0.20770  0.67384  Biso   1.000  O
  O46      1.0000 0.23890  0.20770  0.82616  Biso   1.000  O
  O47      1.0000 0.26110  0.70770  0.67384  Biso   1.000  O
  O48      1.0000 0.73890  0.70770  0.82616  Biso   1.000  O
  H49      1.0000 0.25300  0.84070  0.28430  Biso   1.000  H
  H50      1.0000 0.74700  0.84070  0.21570  Biso   1.000  H
  H51      1.0000 0.75300  0.34070  0.28430  Biso   1.000  H
  H52      1.0000 0.24700  0.34070  0.21570  Biso   1.000  H
  H53      1.0000 0.74700  0.15930  0.71570  Biso   1.000  H
  H54      1.0000 0.25300  0.15930  0.78430  Biso   1.000  H
  H55      1.0000 0.24700  0.65930  0.71570  Biso   1.000  H
  H56      1.0000 0.75300  0.65930  0.78430  Biso   1.000  H
  H57      1.0000 0.21130  0.73970  0.28740  Biso   1.000  H
  H58      1.0000 0.78870  0.73970  0.21260  Biso   1.000  H
  H59      1.0000 0.71130  0.23970  0.28740  Biso   1.000  H
  H60      1.0000 0.28870  0.23970  0.21260  Biso   1.000  H
  H61      1.0000 0.78870  0.26030  0.71260  Biso   1.000  H
  H62      1.0000 0.21130  0.26030  0.78740  Biso   1.000  H
  H63      1.0000 0.28870  0.76030  0.71260  Biso   1.000  H
  H64      1.0000 0.71130  0.76030  0.78740  Biso   1.000  H
  N1       1.0000 0.50000  0.69310  0.75000  Biso   1.000  N
  N2       1.0000 0.00000  0.19310  0.75000  Biso   1.000  N
  N3       1.0000 0.50000  0.30690  0.25000  Biso   1.000  N
  N4       1.0000 0.00000  0.80690  0.25000  Biso   1.000  N
  N5       1.0000 0.50000  0.05630  0.75000  Biso   1.000  N
  N6       1.0000 0.00000  0.55630  0.75000  Biso   1.000  N
  N7       1.0000 0.50000  0.94370  0.25000  Biso   1.000  N
  N8       1.0000 0.00000  0.44370  0.25000  Biso   1.000  N
  C1       1.0000 0.45882  0.63110  0.81110  Biso   1.000  C
  C2       1.0000 0.54118  0.63110  0.68890  Biso   1.000  C
  C3       1.0000 0.95882  0.13110  0.81110  Biso   1.000  C
  C4       1.0000 0.04118  0.13110  0.68890  Biso   1.000  C
  C5       1.0000 0.54118  0.36890  0.18890  Biso   1.000  C
  C6       1.0000 0.45882  0.36890  0.31110  Biso   1.000  C
  C7       1.0000 0.04118  0.86890  0.18890  Biso   1.000  C
  C8       1.0000 0.95882  0.86890  0.31110  Biso   1.000  C
  H65      1.0000 0.43010  0.67310  0.85410  Biso   1.000  H
  H66      1.0000 0.56990  0.67310  0.64590  Biso   1.000  H
  H67      1.0000 0.93010  0.17310  0.85410  Biso   1.000  H
  H68      1.0000 0.06990  0.17310  0.64590  Biso   1.000  H
  H69      1.0000 0.56990  0.32690  0.14590  Biso   1.000  H
  H70      1.0000 0.43010  0.32690  0.35410  Biso   1.000  H
  H71      1.0000 0.06990  0.82690  0.14590  Biso   1.000  H
  H72      1.0000 0.93010  0.82690  0.35410  Biso   1.000  H
  C9       1.0000 0.45722  0.50670  0.81290  Biso   1.000  C
  C10      1.0000 0.54278  0.50670  0.68710  Biso   1.000  C
  C11      1.0000 0.95722  0.00670  0.81290  Biso   1.000  C
  C12      1.0000 0.04278  0.00670  0.68710  Biso   1.000  C
  C13      1.0000 0.54278  0.49330  0.18710  Biso   1.000  C
  C14      1.0000 0.45722  0.49330  0.31290  Biso   1.000  C
  C15      1.0000 0.04278  0.99330  0.18710  Biso   1.000  C
  C16      1.0000 0.95722  0.99330  0.31290  Biso   1.000  C
  H73      1.0000 0.42760  0.46680  0.85610  Biso   1.000  H
  H74      1.0000 0.57240  0.46680  0.64390  Biso   1.000  H
  H75      1.0000 0.92760  0.96680  0.85610  Biso   1.000  H
  H76      1.0000 0.07240  0.96680  0.64390  Biso   1.000  H
  H77      1.0000 0.57240  0.53320  0.14390  Biso   1.000  H
  H78      1.0000 0.42760  0.53320  0.35610  Biso   1.000  H
  H79      1.0000 0.07240  0.03320  0.14390  Biso   1.000  H
  H80      1.0000 0.92760  0.03320  0.35610  Biso   1.000  H
  C17      1.0000 0.50000  0.44170  0.75000  Biso   1.000  C
  C18      1.0000 0.00000  0.94170  0.75000  Biso   1.000  C
  C19      1.0000 0.50000  0.55830  0.25000  Biso   1.000  C
  C20      1.0000 0.00000  0.05830  0.25000  Biso   1.000  C
  C21      1.0000 0.50000  0.30760  0.75000  Biso   1.000  C
  C22      1.0000 0.00000  0.80760  0.75000  Biso   1.000  C
  C23      1.0000 0.50000  0.69240  0.25000  Biso   1.000  C
  C24      1.0000 0.00000  0.19240  0.25000  Biso   1.000  C
  C25      1.0000 0.48432  0.24270  0.83990  Biso   1.000  C
  C26      1.0000 0.51568  0.24270  0.66010  Biso   1.000  C
  C27      1.0000 0.98432  0.74270  0.83990  Biso   1.000  C
  C28      1.0000 0.01568  0.74270  0.66010  Biso   1.000  C
  C29      1.0000 0.51568  0.75730  0.16010  Biso   1.000  C
  C30      1.0000 0.48432  0.75730  0.33990  Biso   1.000  C
  C31      1.0000 0.01568  0.25730  0.16010  Biso   1.000  C
  C32      1.0000 0.98432  0.25730  0.33990  Biso   1.000  C
  H81      1.0000 0.47370  0.28270  0.90190  Biso   1.000  H
  H82      1.0000 0.52630  0.28270  0.59810  Biso   1.000  H
  H83      1.0000 0.97370  0.78270  0.90190  Biso   1.000  H
  H84      1.0000 0.02630  0.78270  0.59810  Biso   1.000  H
  H85      1.0000 0.52630  0.71730  0.09810  Biso   1.000  H
  H86      1.0000 0.47370  0.71730  0.40190  Biso   1.000  H
  H87      1.0000 0.02630  0.21730  0.09810  Biso   1.000  H
  H88      1.0000 0.97370  0.21730  0.40190  Biso   1.000  H
  C33      1.0000 0.48451  0.11870  0.83690  Biso   1.000  C
  C34      1.0000 0.51549  0.11870  0.66310  Biso   1.000  C
  C35      1.0000 0.98451  0.61870  0.83690  Biso   1.000  C
  C36      1.0000 0.01549  0.61870  0.66310  Biso   1.000  C
  C37      1.0000 0.51549  0.88130  0.16310  Biso   1.000  C
  C38      1.0000 0.48451  0.88130  0.33690  Biso   1.000  C
  C39      1.0000 0.01549  0.38130  0.16310  Biso   1.000  C
  C40      1.0000 0.98451  0.38130  0.33690  Biso   1.000  C
  H89      1.0000 0.47350  0.07660  0.89750  Biso   1.000  H
  H90      1.0000 0.52650  0.07660  0.60250  Biso   1.000  H
  H91      1.0000 0.97350  0.57660  0.89750  Biso   1.000  H
  H92      1.0000 0.02650  0.57660  0.60250  Biso   1.000  H
  H93      1.0000 0.52650  0.92340  0.10250  Biso   1.000  H
  H94      1.0000 0.47350  0.92340  0.39750  Biso   1.000  H
  H95      1.0000 0.02650  0.42340  0.10250  Biso   1.000  H
  H96      1.0000 0.97350  0.42340  0.39750  Biso   1.000  H
  C41      1.0000 0.26765  0.31330  0.50560  Biso   1.000  C
  C42      1.0000 0.73235  0.31330  0.99440  Biso   1.000  C
  C43      1.0000 0.76765  0.81330  0.50560  Biso   1.000  C
  C44      1.0000 0.23235  0.81330  0.99440  Biso   1.000  C
  C45      1.0000 0.73235  0.68670  0.49440  Biso   1.000  C
  C46      1.0000 0.26765  0.68670  0.00560  Biso   1.000  C
  C47      1.0000 0.23235  0.18670  0.49440  Biso   1.000  C
  C48      1.0000 0.76765  0.18670  0.00560  Biso   1.000  C
  C49      1.0000 0.20728  0.41030  0.44090  Biso   1.000  C
  C50      1.0000 0.79272  0.41030  0.05910  Biso   1.000  C
  C51      1.0000 0.70728  0.91030  0.44090  Biso   1.000  C
  C52      1.0000 0.29272  0.91030  0.05910  Biso   1.000  C
  C53      1.0000 0.79272  0.58970  0.55910  Biso   1.000  C
  C54      1.0000 0.20728  0.58970  0.94090  Biso   1.000  C
  C55      1.0000 0.29272  0.08970  0.55910  Biso   1.000  C
  C56      1.0000 0.70728  0.08970  0.94090  Biso   1.000  C
