data_image0
_cell_length_a       17.2573
_cell_length_b       13.7983
_cell_length_c       23.6297
_cell_angle_alpha    90
_cell_angle_beta     90
_cell_angle_gamma    90

_symmetry_space_group_name_H-M    "P 1"
_symmetry_int_tables_number       1

loop_
  _symmetry_equiv_pos_as_xyz
  'x, y, z'

loop_
  _atom_site_label
  _atom_site_occupancy
  _atom_site_fract_x
  _atom_site_fract_y
  _atom_site_fract_z
  _atom_site_thermal_displace_type
  _atom_site_B_iso_or_equiv
  _atom_site_type_symbol
  Cu1      1.0000 0.56126  0.85957  0.33465  Biso   1.000  Cu
  Cu2      1.0000 0.93874  0.14043  0.83465  Biso   1.000  Cu
  Cu3      1.0000 0.06126  0.64043  0.66535  Biso   1.000  Cu
  Cu4      1.0000 0.43874  0.35957  0.16535  Biso   1.000  Cu
  Cu5      1.0000 0.43874  0.14043  0.66535  Biso   1.000  Cu
  Cu6      1.0000 0.06126  0.85957  0.16535  Biso   1.000  Cu
  Cu7      1.0000 0.93874  0.35957  0.33465  Biso   1.000  Cu
  Cu8      1.0000 0.56126  0.64043  0.83465  Biso   1.000  Cu
  Na1      1.0000 0.64777  0.05523  0.28462  Biso   1.000  Na
  Na2      1.0000 0.85223  0.94477  0.78462  Biso   1.000  Na
  Na3      1.0000 0.14777  0.44477  0.71538  Biso   1.000  Na
  Na4      1.0000 0.35223  0.55523  0.21538  Biso   1.000  Na
  Na5      1.0000 0.35223  0.94477  0.71538  Biso   1.000  Na
  Na6      1.0000 0.14777  0.05523  0.21538  Biso   1.000  Na
  Na7      1.0000 0.85223  0.55523  0.28462  Biso   1.000  Na
  Na8      1.0000 0.64777  0.44477  0.78462  Biso   1.000  Na
  O1       1.0000 0.58723  0.90710  0.26249  Biso   1.000  O
  O2       1.0000 0.91277  0.09290  0.76249  Biso   1.000  O
  O3       1.0000 0.08723  0.59290  0.73751  Biso   1.000  O
  O4       1.0000 0.41277  0.40710  0.23751  Biso   1.000  O
  O5       1.0000 0.41277  0.09290  0.73751  Biso   1.000  O
  O6       1.0000 0.08723  0.90710  0.23751  Biso   1.000  O
  O7       1.0000 0.91277  0.40710  0.26249  Biso   1.000  O
  O8       1.0000 0.58723  0.59290  0.76249  Biso   1.000  O
  O9       1.0000 0.61403  0.97050  0.36343  Biso   1.000  O
  O10      1.0000 0.88597  0.02950  0.86343  Biso   1.000  O
  O11      1.0000 0.11403  0.52950  0.63657  Biso   1.000  O
  O12      1.0000 0.38597  0.47050  0.13657  Biso   1.000  O
  O13      1.0000 0.38597  0.02950  0.63657  Biso   1.000  O
  O14      1.0000 0.11403  0.97050  0.13657  Biso   1.000  O
  O15      1.0000 0.88597  0.47050  0.36343  Biso   1.000  O
  O16      1.0000 0.61403  0.52950  0.86343  Biso   1.000  O
  O17      1.0000 0.44042  0.65720  0.24492  Biso   1.000  O
  O18      1.0000 0.05958  0.34280  0.74492  Biso   1.000  O
  O19      1.0000 0.94042  0.84280  0.75508  Biso   1.000  O
  O20      1.0000 0.55958  0.15720  0.25508  Biso   1.000  O
  O21      1.0000 0.55958  0.34280  0.75508  Biso   1.000  O
  O22      1.0000 0.94042  0.65720  0.25508  Biso   1.000  O
  O23      1.0000 0.05958  0.15720  0.24492  Biso   1.000  O
  O24      1.0000 0.44042  0.84280  0.74492  Biso   1.000  O
  O25      1.0000 0.67793  0.13800  0.37864  Biso   1.000  O
  O26      1.0000 0.82207  0.86200  0.87864  Biso   1.000  O
  O27      1.0000 0.17793  0.36200  0.62136  Biso   1.000  O
  O28      1.0000 0.32207  0.63800  0.12136  Biso   1.000  O
  O29      1.0000 0.32207  0.86200  0.62136  Biso   1.000  O
  O30      1.0000 0.17793  0.13800  0.12136  Biso   1.000  O
  O31      1.0000 0.82207  0.63800  0.37864  Biso   1.000  O
  O32      1.0000 0.67793  0.36200  0.87864  Biso   1.000  O
  N1       1.0000 0.49717  0.75740  0.30929  Biso   1.000  N
  N2       1.0000 0.00283  0.24260  0.80929  Biso   1.000  N
  N3       1.0000 0.99717  0.74260  0.69071  Biso   1.000  N
  N4       1.0000 0.50283  0.25740  0.19071  Biso   1.000  N
  N5       1.0000 0.50283  0.24260  0.69071  Biso   1.000  N
  N6       1.0000 0.99717  0.75740  0.19071  Biso   1.000  N
  N7       1.0000 0.00283  0.25740  0.30929  Biso   1.000  N
  N8       1.0000 0.49717  0.74260  0.80929  Biso   1.000  N
  N9       1.0000 0.54400  0.80840  0.40924  Biso   1.000  N
  N10      1.0000 0.95600  0.19160  0.90924  Biso   1.000  N
  N11      1.0000 0.04400  0.69160  0.59076  Biso   1.000  N
  N12      1.0000 0.45600  0.30840  0.09076  Biso   1.000  N
  N13      1.0000 0.45600  0.19160  0.59076  Biso   1.000  N
  N14      1.0000 0.04400  0.80840  0.09076  Biso   1.000  N
  N15      1.0000 0.95600  0.30840  0.40924  Biso   1.000  N
  N16      1.0000 0.54400  0.69160  0.90924  Biso   1.000  N
  N17      1.0000 0.77120  0.04370  0.23672  Biso   1.000  N
  N18      1.0000 0.72880  0.95630  0.73672  Biso   1.000  N
  N19      1.0000 0.27120  0.45630  0.76328  Biso   1.000  N
  N20      1.0000 0.22880  0.54370  0.26328  Biso   1.000  N
  N21      1.0000 0.22880  0.95630  0.76328  Biso   1.000  N
  N22      1.0000 0.27120  0.04370  0.26328  Biso   1.000  N
  N23      1.0000 0.72880  0.54370  0.23672  Biso   1.000  N
  N24      1.0000 0.77120  0.45630  0.73672  Biso   1.000  N
  C1       1.0000 0.55600  0.87570  0.21421  Biso   1.000  C
  C2       1.0000 0.94400  0.12430  0.71421  Biso   1.000  C
  C3       1.0000 0.05600  0.62430  0.78579  Biso   1.000  C
  C4       1.0000 0.44400  0.37570  0.28579  Biso   1.000  C
  C5       1.0000 0.44400  0.12430  0.78579  Biso   1.000  C
  C6       1.0000 0.05600  0.87570  0.28579  Biso   1.000  C
  C7       1.0000 0.94400  0.37570  0.21421  Biso   1.000  C
  C8       1.0000 0.55600  0.62430  0.71421  Biso   1.000  C
  C9       1.0000 0.57140  0.93060  0.16490  Biso   1.000  C
  C10      1.0000 0.92860  0.06940  0.66490  Biso   1.000  C
  C11      1.0000 0.07140  0.56940  0.83510  Biso   1.000  C
  C12      1.0000 0.42860  0.43060  0.33510  Biso   1.000  C
  C13      1.0000 0.42860  0.06940  0.83510  Biso   1.000  C
  C14      1.0000 0.07140  0.93060  0.33510  Biso   1.000  C
  C15      1.0000 0.92860  0.43060  0.16490  Biso   1.000  C
  C16      1.0000 0.57140  0.56940  0.66490  Biso   1.000  C
  C17      1.0000 0.54140  0.90680  0.11329  Biso   1.000  C
  C18      1.0000 0.95860  0.09320  0.61329  Biso   1.000  C
  C19      1.0000 0.04140  0.59320  0.88671  Biso   1.000  C
  C20      1.0000 0.45860  0.40680  0.38671  Biso   1.000  C
  C21      1.0000 0.45860  0.09320  0.88671  Biso   1.000  C
  C22      1.0000 0.04140  0.90680  0.38671  Biso   1.000  C
  C23      1.0000 0.95860  0.40680  0.11329  Biso   1.000  C
  C24      1.0000 0.54140  0.59320  0.61329  Biso   1.000  C
  C25      1.0000 0.49590  0.82610  0.10761  Biso   1.000  C
  C26      1.0000 0.00410  0.17390  0.60761  Biso   1.000  C
  C27      1.0000 0.99590  0.67390  0.89239  Biso   1.000  C
  C28      1.0000 0.50410  0.32610  0.39239  Biso   1.000  C
  C29      1.0000 0.50410  0.17390  0.89239  Biso   1.000  C
  C30      1.0000 0.99590  0.82610  0.39239  Biso   1.000  C
  C31      1.0000 0.00410  0.32610  0.10761  Biso   1.000  C
  C32      1.0000 0.49590  0.67390  0.60761  Biso   1.000  C
  C33      1.0000 0.48050  0.77000  0.15430  Biso   1.000  C
  C34      1.0000 0.01950  0.23000  0.65430  Biso   1.000  C
  C35      1.0000 0.98050  0.73000  0.84570  Biso   1.000  C
  C36      1.0000 0.51950  0.27000  0.34570  Biso   1.000  C
  C37      1.0000 0.51950  0.23000  0.84570  Biso   1.000  C
  C38      1.0000 0.98050  0.77000  0.34570  Biso   1.000  C
  C39      1.0000 0.01950  0.27000  0.15430  Biso   1.000  C
  C40      1.0000 0.48050  0.73000  0.65430  Biso   1.000  C
  C41      1.0000 0.50790  0.79390  0.20876  Biso   1.000  C
  C42      1.0000 0.99210  0.20610  0.70876  Biso   1.000  C
  C43      1.0000 0.00790  0.70610  0.79124  Biso   1.000  C
  C44      1.0000 0.49210  0.29390  0.29124  Biso   1.000  C
  C45      1.0000 0.49210  0.20610  0.79124  Biso   1.000  C
  C46      1.0000 0.00790  0.79390  0.29124  Biso   1.000  C
  C47      1.0000 0.99210  0.29390  0.20876  Biso   1.000  C
  C48      1.0000 0.50790  0.70610  0.70876  Biso   1.000  C
  C49      1.0000 0.48060  0.73030  0.25632  Biso   1.000  C
  C50      1.0000 0.01940  0.26970  0.75632  Biso   1.000  C
  C51      1.0000 0.98060  0.76970  0.74368  Biso   1.000  C
  C52      1.0000 0.51940  0.23030  0.24368  Biso   1.000  C
  C53      1.0000 0.51940  0.26970  0.74368  Biso   1.000  C
  C54      1.0000 0.98060  0.73030  0.24368  Biso   1.000  C
  C55      1.0000 0.01940  0.23030  0.25632  Biso   1.000  C
  C56      1.0000 0.48060  0.76970  0.75632  Biso   1.000  C
  C57      1.0000 0.46110  0.69840  0.35434  Biso   1.000  C
  C58      1.0000 0.03890  0.30160  0.85434  Biso   1.000  C
  C59      1.0000 0.96110  0.80160  0.64566  Biso   1.000  C
  C60      1.0000 0.53890  0.19840  0.14566  Biso   1.000  C
  C61      1.0000 0.53890  0.30160  0.64566  Biso   1.000  C
  C62      1.0000 0.96110  0.69840  0.14566  Biso   1.000  C
  C63      1.0000 0.03890  0.19840  0.35434  Biso   1.000  C
  C64      1.0000 0.46110  0.80160  0.85434  Biso   1.000  C
  C65      1.0000 0.37520  0.72200  0.36442  Biso   1.000  C
  C66      1.0000 0.12480  0.27800  0.86442  Biso   1.000  C
  C67      1.0000 0.87520  0.77800  0.63558  Biso   1.000  C
  C68      1.0000 0.62480  0.22200  0.13558  Biso   1.000  C
  C69      1.0000 0.62480  0.27800  0.63558  Biso   1.000  C
  C70      1.0000 0.87520  0.72200  0.13558  Biso   1.000  C
  C71      1.0000 0.12480  0.22200  0.36442  Biso   1.000  C
  C72      1.0000 0.37520  0.77800  0.86442  Biso   1.000  C
  C73      1.0000 0.33460  0.78890  0.33300  Biso   1.000  C
  C74      1.0000 0.16540  0.21110  0.83300  Biso   1.000  C
  C75      1.0000 0.83460  0.71110  0.66700  Biso   1.000  C
  C76      1.0000 0.66540  0.28890  0.16700  Biso   1.000  C
  C77      1.0000 0.66540  0.21110  0.66700  Biso   1.000  C
  C78      1.0000 0.83460  0.78890  0.16700  Biso   1.000  C
  C79      1.0000 0.16540  0.28890  0.33300  Biso   1.000  C
  C80      1.0000 0.33460  0.71110  0.83300  Biso   1.000  C
  C81      1.0000 0.25620  0.80550  0.34160  Biso   1.000  C
  C82      1.0000 0.24380  0.19450  0.84160  Biso   1.000  C
  C83      1.0000 0.75620  0.69450  0.65840  Biso   1.000  C
  C84      1.0000 0.74380  0.30550  0.15840  Biso   1.000  C
  C85      1.0000 0.74380  0.19450  0.65840  Biso   1.000  C
  C86      1.0000 0.75620  0.80550  0.15840  Biso   1.000  C
  C87      1.0000 0.24380  0.30550  0.34160  Biso   1.000  C
  C88      1.0000 0.25620  0.69450  0.84160  Biso   1.000  C
  C89      1.0000 0.21750  0.75300  0.38230  Biso   1.000  C
  C90      1.0000 0.28250  0.24700  0.88230  Biso   1.000  C
  C91      1.0000 0.71750  0.74700  0.61770  Biso   1.000  C
  C92      1.0000 0.78250  0.25300  0.11770  Biso   1.000  C
  C93      1.0000 0.78250  0.24700  0.61770  Biso   1.000  C
  C94      1.0000 0.71750  0.75300  0.11770  Biso   1.000  C
  C95      1.0000 0.28250  0.25300  0.38230  Biso   1.000  C
  C96      1.0000 0.21750  0.74700  0.88230  Biso   1.000  C
  C97      1.0000 0.25590  0.68560  0.41430  Biso   1.000  C
  C98      1.0000 0.24410  0.31440  0.91430  Biso   1.000  C
  C99      1.0000 0.75590  0.81440  0.58570  Biso   1.000  C
  C100     1.0000 0.74410  0.18560  0.08570  Biso   1.000  C
  C101     1.0000 0.74410  0.31440  0.58570  Biso   1.000  C
  C102     1.0000 0.75590  0.68560  0.08570  Biso   1.000  C
  C103     1.0000 0.24410  0.18560  0.41430  Biso   1.000  C
  C104     1.0000 0.25590  0.81440  0.91430  Biso   1.000  C
  C105     1.0000 0.33480  0.66980  0.40520  Biso   1.000  C
  C106     1.0000 0.16520  0.33020  0.90520  Biso   1.000  C
  C107     1.0000 0.83480  0.83020  0.59480  Biso   1.000  C
  C108     1.0000 0.66520  0.16980  0.09480  Biso   1.000  C
  C109     1.0000 0.66520  0.33020  0.59480  Biso   1.000  C
  C110     1.0000 0.83480  0.66980  0.09480  Biso   1.000  C
  C111     1.0000 0.16520  0.16980  0.40520  Biso   1.000  C
  C112     1.0000 0.33480  0.83020  0.90520  Biso   1.000  C
  C113     1.0000 0.50890  0.71040  0.40879  Biso   1.000  C
  C114     1.0000 0.99110  0.28960  0.90879  Biso   1.000  C
  C115     1.0000 0.00890  0.78960  0.59121  Biso   1.000  C
  C116     1.0000 0.49110  0.21040  0.09121  Biso   1.000  C
  C117     1.0000 0.49110  0.28960  0.59121  Biso   1.000  C
  C118     1.0000 0.00890  0.71040  0.09121  Biso   1.000  C
  C119     1.0000 0.99110  0.21040  0.40879  Biso   1.000  C
  C120     1.0000 0.50890  0.78960  0.90879  Biso   1.000  C
  C121     1.0000 0.57280  0.63310  0.41559  Biso   1.000  C
  C122     1.0000 0.92720  0.36690  0.91559  Biso   1.000  C
  C123     1.0000 0.07280  0.86690  0.58441  Biso   1.000  C
  C124     1.0000 0.42720  0.13310  0.08441  Biso   1.000  C
  C125     1.0000 0.42720  0.36690  0.58441  Biso   1.000  C
  C126     1.0000 0.07280  0.63310  0.08441  Biso   1.000  C
  C127     1.0000 0.92720  0.13310  0.41559  Biso   1.000  C
  C128     1.0000 0.57280  0.86690  0.91559  Biso   1.000  C
  C129     1.0000 0.60350  0.58220  0.37000  Biso   1.000  C
  C130     1.0000 0.89650  0.41780  0.87000  Biso   1.000  C
  C131     1.0000 0.10350  0.91780  0.63000  Biso   1.000  C
  C132     1.0000 0.39650  0.08220  0.13000  Biso   1.000  C
  C133     1.0000 0.39650  0.41780  0.63000  Biso   1.000  C
  C134     1.0000 0.10350  0.58220  0.13000  Biso   1.000  C
  C135     1.0000 0.89650  0.08220  0.37000  Biso   1.000  C
  C136     1.0000 0.60350  0.91780  0.87000  Biso   1.000  C
  C137     1.0000 0.65920  0.51000  0.37900  Biso   1.000  C
  C138     1.0000 0.84080  0.49000  0.87900  Biso   1.000  C
  C139     1.0000 0.15920  0.99000  0.62100  Biso   1.000  C
  C140     1.0000 0.34080  0.01000  0.12100  Biso   1.000  C
  C141     1.0000 0.34080  0.49000  0.62100  Biso   1.000  C
  C142     1.0000 0.15920  0.51000  0.12100  Biso   1.000  C
  C143     1.0000 0.84080  0.01000  0.37900  Biso   1.000  C
  C144     1.0000 0.65920  0.99000  0.87900  Biso   1.000  C
  C145     1.0000 0.68320  0.48960  0.43270  Biso   1.000  C
  C146     1.0000 0.81680  0.51040  0.93270  Biso   1.000  C
  C147     1.0000 0.18320  0.01040  0.56730  Biso   1.000  C
  C148     1.0000 0.31680  0.98960  0.06730  Biso   1.000  C
  C149     1.0000 0.31680  0.51040  0.56730  Biso   1.000  C
  C150     1.0000 0.18320  0.48960  0.06730  Biso   1.000  C
  C151     1.0000 0.81680  0.98960  0.43270  Biso   1.000  C
  C152     1.0000 0.68320  0.01040  0.93270  Biso   1.000  C
  C153     1.0000 0.65440  0.54230  0.47770  Biso   1.000  C
  C154     1.0000 0.84560  0.45770  0.97770  Biso   1.000  C
  C155     1.0000 0.15440  0.95770  0.52230  Biso   1.000  C
  C156     1.0000 0.34560  0.04230  0.02230  Biso   1.000  C
  C157     1.0000 0.34560  0.45770  0.52230  Biso   1.000  C
  C158     1.0000 0.15440  0.54230  0.02230  Biso   1.000  C
  C159     1.0000 0.84560  0.04230  0.47770  Biso   1.000  C
  C160     1.0000 0.65440  0.95770  0.97770  Biso   1.000  C
  C161     1.0000 0.59900  0.61260  0.46880  Biso   1.000  C
  C162     1.0000 0.90100  0.38740  0.96880  Biso   1.000  C
  C163     1.0000 0.09900  0.88740  0.53120  Biso   1.000  C
  C164     1.0000 0.40100  0.11260  0.03120  Biso   1.000  C
  C165     1.0000 0.40100  0.38740  0.53120  Biso   1.000  C
  C166     1.0000 0.09900  0.61260  0.03120  Biso   1.000  C
  C167     1.0000 0.90100  0.11260  0.46880  Biso   1.000  C
  C168     1.0000 0.59900  0.88740  0.96880  Biso   1.000  C
  C169     1.0000 0.55470  0.85400  0.45627  Biso   1.000  C
  C170     1.0000 0.94530  0.14600  0.95627  Biso   1.000  C
  C171     1.0000 0.05470  0.64600  0.54373  Biso   1.000  C
  C172     1.0000 0.44530  0.35400  0.04373  Biso   1.000  C
  C173     1.0000 0.44530  0.14600  0.54373  Biso   1.000  C
  C174     1.0000 0.05470  0.85400  0.04373  Biso   1.000  C
  C175     1.0000 0.94530  0.35400  0.45627  Biso   1.000  C
  C176     1.0000 0.55470  0.64600  0.95627  Biso   1.000  C
  C177     1.0000 0.59040  0.94670  0.46289  Biso   1.000  C
  C178     1.0000 0.90960  0.05330  0.96289  Biso   1.000  C
  C179     1.0000 0.09040  0.55330  0.53711  Biso   1.000  C
  C180     1.0000 0.40960  0.44670  0.03711  Biso   1.000  C
  C181     1.0000 0.40960  0.05330  0.53711  Biso   1.000  C
  C182     1.0000 0.09040  0.94670  0.03711  Biso   1.000  C
  C183     1.0000 0.90960  0.44670  0.46289  Biso   1.000  C
  C184     1.0000 0.59040  0.55330  0.96289  Biso   1.000  C
  C185     1.0000 0.59900  0.98550  0.51821  Biso   1.000  C
  C186     1.0000 0.90100  0.01450  0.01821  Biso   1.000  C
  C187     1.0000 0.09900  0.51450  0.48179  Biso   1.000  C
  C188     1.0000 0.40100  0.48550  0.98179  Biso   1.000  C
  C189     1.0000 0.40100  0.01450  0.48179  Biso   1.000  C
  C190     1.0000 0.09900  0.98550  0.98179  Biso   1.000  C
  C191     1.0000 0.90100  0.48550  0.51821  Biso   1.000  C
  C192     1.0000 0.59900  0.51450  0.01821  Biso   1.000  C
  C193     1.0000 0.63200  0.07420  0.52680  Biso   1.000  C
  C194     1.0000 0.86800  0.92580  0.02680  Biso   1.000  C
  C195     1.0000 0.13200  0.42580  0.47320  Biso   1.000  C
  C196     1.0000 0.36800  0.57420  0.97320  Biso   1.000  C
  C197     1.0000 0.36800  0.92580  0.47320  Biso   1.000  C
  C198     1.0000 0.13200  0.07420  0.97320  Biso   1.000  C
  C199     1.0000 0.86800  0.57420  0.52680  Biso   1.000  C
  C200     1.0000 0.63200  0.42580  0.02680  Biso   1.000  C
  C201     1.0000 0.65790  0.12850  0.48060  Biso   1.000  C
  C202     1.0000 0.84210  0.87150  0.98060  Biso   1.000  C
  C203     1.0000 0.15790  0.37150  0.51940  Biso   1.000  C
  C204     1.0000 0.34210  0.62850  0.01940  Biso   1.000  C
  C205     1.0000 0.34210  0.87150  0.51940  Biso   1.000  C
  C206     1.0000 0.15790  0.12850  0.01940  Biso   1.000  C
  C207     1.0000 0.84210  0.62850  0.48060  Biso   1.000  C
  C208     1.0000 0.65790  0.37150  0.98060  Biso   1.000  C
  C209     1.0000 0.65230  0.09300  0.42670  Biso   1.000  C
  C210     1.0000 0.84770  0.90700  0.92670  Biso   1.000  C
  C211     1.0000 0.15230  0.40700  0.57330  Biso   1.000  C
  C212     1.0000 0.34770  0.59300  0.07330  Biso   1.000  C
  C213     1.0000 0.34770  0.90700  0.57330  Biso   1.000  C
  C214     1.0000 0.15230  0.09300  0.07330  Biso   1.000  C
  C215     1.0000 0.84770  0.59300  0.42670  Biso   1.000  C
  C216     1.0000 0.65230  0.40700  0.92670  Biso   1.000  C
  C217     1.0000 0.61770  0.00090  0.41599  Biso   1.000  C
  C218     1.0000 0.88230  0.99910  0.91599  Biso   1.000  C
  C219     1.0000 0.11770  0.49910  0.58401  Biso   1.000  C
  C220     1.0000 0.38230  0.50090  0.08401  Biso   1.000  C
  C221     1.0000 0.38230  0.99910  0.58401  Biso   1.000  C
  C222     1.0000 0.11770  0.00090  0.08401  Biso   1.000  C
  C223     1.0000 0.88230  0.50090  0.41599  Biso   1.000  C
  C224     1.0000 0.61770  0.49910  0.91599  Biso   1.000  C
  C225     1.0000 0.71780  0.22880  0.38560  Biso   1.000  C
  C226     1.0000 0.78220  0.77120  0.88560  Biso   1.000  C
  C227     1.0000 0.21780  0.27120  0.61440  Biso   1.000  C
  C228     1.0000 0.28220  0.72880  0.11440  Biso   1.000  C
  C229     1.0000 0.28220  0.77120  0.61440  Biso   1.000  C
  C230     1.0000 0.21780  0.22880  0.11440  Biso   1.000  C
  C231     1.0000 0.78220  0.72880  0.38560  Biso   1.000  C
  C232     1.0000 0.71780  0.27120  0.88560  Biso   1.000  C
  C233     1.0000 0.74110  0.26370  0.32780  Biso   1.000  C
  C234     1.0000 0.75890  0.73630  0.82780  Biso   1.000  C
  C235     1.0000 0.24110  0.23630  0.67220  Biso   1.000  C
  C236     1.0000 0.25890  0.76370  0.17220  Biso   1.000  C
  C237     1.0000 0.25890  0.73630  0.67220  Biso   1.000  C
  C238     1.0000 0.24110  0.26370  0.17220  Biso   1.000  C
  C239     1.0000 0.75890  0.76370  0.32780  Biso   1.000  C
  C240     1.0000 0.74110  0.23630  0.82780  Biso   1.000  C
  C241     1.0000 0.82970  0.04450  0.21470  Biso   1.000  C
  C242     1.0000 0.67030  0.95550  0.71470  Biso   1.000  C
  C243     1.0000 0.32970  0.45550  0.78530  Biso   1.000  C
  C244     1.0000 0.17030  0.54450  0.28530  Biso   1.000  C
  C245     1.0000 0.17030  0.95550  0.78530  Biso   1.000  C
  C246     1.0000 0.32970  0.04450  0.28530  Biso   1.000  C
  C247     1.0000 0.67030  0.54450  0.21470  Biso   1.000  C
  C248     1.0000 0.82970  0.45550  0.71470  Biso   1.000  C
  C249     1.0000 0.90510  0.04550  0.18690  Biso   1.000  C
  C250     1.0000 0.59490  0.95450  0.68690  Biso   1.000  C
  C251     1.0000 0.40510  0.45450  0.81310  Biso   1.000  C
  C252     1.0000 0.09490  0.54550  0.31310  Biso   1.000  C
  C253     1.0000 0.09490  0.95450  0.81310  Biso   1.000  C
  C254     1.0000 0.40510  0.04550  0.31310  Biso   1.000  C
  C255     1.0000 0.59490  0.54550  0.18690  Biso   1.000  C
  C256     1.0000 0.90510  0.45450  0.68690  Biso   1.000  C
  H1       1.0000 0.60250  0.98540  0.16850  Biso   1.000  H
  H2       1.0000 0.89750  0.01460  0.66850  Biso   1.000  H
  H3       1.0000 0.10250  0.51460  0.83150  Biso   1.000  H
  H4       1.0000 0.39750  0.48540  0.33150  Biso   1.000  H
  H5       1.0000 0.39750  0.01460  0.83150  Biso   1.000  H
  H6       1.0000 0.10250  0.98540  0.33150  Biso   1.000  H
  H7       1.0000 0.89750  0.48540  0.16850  Biso   1.000  H
  H8       1.0000 0.60250  0.51460  0.66850  Biso   1.000  H
  H9       1.0000 0.55250  0.94520  0.08200  Biso   1.000  H
  H10      1.0000 0.94750  0.05480  0.58200  Biso   1.000  H
  H11      1.0000 0.05250  0.55480  0.91800  Biso   1.000  H
  H12      1.0000 0.44750  0.44520  0.41800  Biso   1.000  H
  H13      1.0000 0.44750  0.05480  0.91800  Biso   1.000  H
  H14      1.0000 0.05250  0.94520  0.41800  Biso   1.000  H
  H15      1.0000 0.94750  0.44520  0.08200  Biso   1.000  H
  H16      1.0000 0.55250  0.55480  0.58200  Biso   1.000  H
  H17      1.0000 0.47570  0.80920  0.07250  Biso   1.000  H
  H18      1.0000 0.02430  0.19080  0.57250  Biso   1.000  H
  H19      1.0000 0.97570  0.69080  0.92750  Biso   1.000  H
  H20      1.0000 0.52430  0.30920  0.42750  Biso   1.000  H
  H21      1.0000 0.52430  0.19080  0.92750  Biso   1.000  H
  H22      1.0000 0.97570  0.80920  0.42750  Biso   1.000  H
  H23      1.0000 0.02430  0.30920  0.07250  Biso   1.000  H
  H24      1.0000 0.47570  0.69080  0.57250  Biso   1.000  H
  H25      1.0000 0.45090  0.71410  0.15020  Biso   1.000  H
  H26      1.0000 0.04910  0.28590  0.65020  Biso   1.000  H
  H27      1.0000 0.95090  0.78590  0.84980  Biso   1.000  H
  H28      1.0000 0.54910  0.21410  0.34980  Biso   1.000  H
  H29      1.0000 0.54910  0.28590  0.84980  Biso   1.000  H
  H30      1.0000 0.95090  0.71410  0.34980  Biso   1.000  H
  H31      1.0000 0.04910  0.21410  0.15020  Biso   1.000  H
  H32      1.0000 0.45090  0.78590  0.65020  Biso   1.000  H
  H33      1.0000 0.46440  0.63040  0.34270  Biso   1.000  H
  H34      1.0000 0.03560  0.36960  0.84270  Biso   1.000  H
  H35      1.0000 0.96440  0.86960  0.65730  Biso   1.000  H
  H36      1.0000 0.53560  0.13040  0.15730  Biso   1.000  H
  H37      1.0000 0.53560  0.36960  0.65730  Biso   1.000  H
  H38      1.0000 0.96440  0.63040  0.15730  Biso   1.000  H
  H39      1.0000 0.03560  0.13040  0.34270  Biso   1.000  H
  H40      1.0000 0.46440  0.86960  0.84270  Biso   1.000  H
  H41      1.0000 0.36070  0.82400  0.30530  Biso   1.000  H
  H42      1.0000 0.13930  0.17600  0.80530  Biso   1.000  H
  H43      1.0000 0.86070  0.67600  0.69470  Biso   1.000  H
  H44      1.0000 0.63930  0.32400  0.19470  Biso   1.000  H
  H45      1.0000 0.63930  0.17600  0.69470  Biso   1.000  H
  H46      1.0000 0.86070  0.82400  0.19470  Biso   1.000  H
  H47      1.0000 0.13930  0.32400  0.30530  Biso   1.000  H
  H48      1.0000 0.36070  0.67600  0.80530  Biso   1.000  H
  H49      1.0000 0.22980  0.85120  0.32000  Biso   1.000  H
  H50      1.0000 0.27020  0.14880  0.82000  Biso   1.000  H
  H51      1.0000 0.72980  0.64880  0.68000  Biso   1.000  H
  H52      1.0000 0.77020  0.35120  0.18000  Biso   1.000  H
  H53      1.0000 0.77020  0.14880  0.68000  Biso   1.000  H
  H54      1.0000 0.72980  0.85120  0.18000  Biso   1.000  H
  H55      1.0000 0.27020  0.35120  0.32000  Biso   1.000  H
  H56      1.0000 0.22980  0.64880  0.82000  Biso   1.000  H
  H57      1.0000 0.16490  0.76370  0.38810  Biso   1.000  H
  H58      1.0000 0.33510  0.23630  0.88810  Biso   1.000  H
  H59      1.0000 0.66490  0.73630  0.61190  Biso   1.000  H
  H60      1.0000 0.83510  0.26370  0.11190  Biso   1.000  H
  H61      1.0000 0.83510  0.23630  0.61190  Biso   1.000  H
  H62      1.0000 0.66490  0.76370  0.11190  Biso   1.000  H
  H63      1.0000 0.33510  0.26370  0.38810  Biso   1.000  H
  H64      1.0000 0.16490  0.73630  0.88810  Biso   1.000  H
  H65      1.0000 0.22930  0.65080  0.44190  Biso   1.000  H
  H66      1.0000 0.27070  0.34920  0.94190  Biso   1.000  H
  H67      1.0000 0.72930  0.84920  0.55810  Biso   1.000  H
  H68      1.0000 0.77070  0.15080  0.05810  Biso   1.000  H
  H69      1.0000 0.77070  0.34920  0.55810  Biso   1.000  H
  H70      1.0000 0.72930  0.65080  0.05810  Biso   1.000  H
  H71      1.0000 0.27070  0.15080  0.44190  Biso   1.000  H
  H72      1.0000 0.22930  0.84920  0.94190  Biso   1.000  H
  H73      1.0000 0.36140  0.62480  0.42700  Biso   1.000  H
  H74      1.0000 0.13860  0.37520  0.92700  Biso   1.000  H
  H75      1.0000 0.86140  0.87520  0.57300  Biso   1.000  H
  H76      1.0000 0.63860  0.12480  0.07300  Biso   1.000  H
  H77      1.0000 0.63860  0.37520  0.57300  Biso   1.000  H
  H78      1.0000 0.86140  0.62480  0.07300  Biso   1.000  H
  H79      1.0000 0.13860  0.12480  0.42700  Biso   1.000  H
  H80      1.0000 0.36140  0.87520  0.92700  Biso   1.000  H
  H81      1.0000 0.47380  0.70480  0.44120  Biso   1.000  H
  H82      1.0000 0.02620  0.29520  0.94120  Biso   1.000  H
  H83      1.0000 0.97380  0.79520  0.55880  Biso   1.000  H
  H84      1.0000 0.52620  0.20480  0.05880  Biso   1.000  H
  H85      1.0000 0.52620  0.29520  0.55880  Biso   1.000  H
  H86      1.0000 0.97380  0.70480  0.05880  Biso   1.000  H
  H87      1.0000 0.02620  0.20480  0.44120  Biso   1.000  H
  H88      1.0000 0.47380  0.79520  0.94120  Biso   1.000  H
  H89      1.0000 0.58730  0.59700  0.33350  Biso   1.000  H
  H90      1.0000 0.91270  0.40300  0.83350  Biso   1.000  H
  H91      1.0000 0.08730  0.90300  0.66650  Biso   1.000  H
  H92      1.0000 0.41270  0.09700  0.16650  Biso   1.000  H
  H93      1.0000 0.41270  0.40300  0.66650  Biso   1.000  H
  H94      1.0000 0.08730  0.59700  0.16650  Biso   1.000  H
  H95      1.0000 0.91270  0.09700  0.33350  Biso   1.000  H
  H96      1.0000 0.58730  0.90300  0.83350  Biso   1.000  H
  H97      1.0000 0.67940  0.47570  0.34850  Biso   1.000  H
  H98      1.0000 0.82060  0.52430  0.84850  Biso   1.000  H
  H99      1.0000 0.17940  0.02430  0.65150  Biso   1.000  H
  H100     1.0000 0.32060  0.97570  0.15150  Biso   1.000  H
  H101     1.0000 0.32060  0.52430  0.65150  Biso   1.000  H
  H102     1.0000 0.17940  0.47570  0.15150  Biso   1.000  H
  H103     1.0000 0.82060  0.97570  0.34850  Biso   1.000  H
  H104     1.0000 0.67940  0.02430  0.84850  Biso   1.000  H
  H105     1.0000 0.71900  0.44020  0.43870  Biso   1.000  H
  H106     1.0000 0.78100  0.55980  0.93870  Biso   1.000  H
  H107     1.0000 0.21900  0.05980  0.56130  Biso   1.000  H
  H108     1.0000 0.28100  0.94020  0.06130  Biso   1.000  H
  H109     1.0000 0.28100  0.55980  0.56130  Biso   1.000  H
  H110     1.0000 0.21900  0.44020  0.06130  Biso   1.000  H
  H111     1.0000 0.78100  0.94020  0.43870  Biso   1.000  H
  H112     1.0000 0.71900  0.05980  0.93870  Biso   1.000  H
  H113     1.0000 0.67260  0.52990  0.51400  Biso   1.000  H
  H114     1.0000 0.82740  0.47010  0.01400  Biso   1.000  H
  H115     1.0000 0.17260  0.97010  0.48600  Biso   1.000  H
  H116     1.0000 0.32740  0.02990  0.98600  Biso   1.000  H
  H117     1.0000 0.32740  0.47010  0.48600  Biso   1.000  H
  H118     1.0000 0.17260  0.52990  0.98600  Biso   1.000  H
  H119     1.0000 0.82740  0.02990  0.51400  Biso   1.000  H
  H120     1.0000 0.67260  0.97010  0.01400  Biso   1.000  H
  H121     1.0000 0.57880  0.64670  0.49930  Biso   1.000  H
  H122     1.0000 0.92120  0.35330  0.99930  Biso   1.000  H
  H123     1.0000 0.07880  0.85330  0.50070  Biso   1.000  H
  H124     1.0000 0.42120  0.14670  0.00070  Biso   1.000  H
  H125     1.0000 0.42120  0.35330  0.50070  Biso   1.000  H
  H126     1.0000 0.07880  0.64670  0.00070  Biso   1.000  H
  H127     1.0000 0.92120  0.14670  0.49930  Biso   1.000  H
  H128     1.0000 0.57880  0.85330  0.99930  Biso   1.000  H
  H129     1.0000 0.53750  0.82350  0.48900  Biso   1.000  H
  H130     1.0000 0.96250  0.17650  0.98900  Biso   1.000  H
  H131     1.0000 0.03750  0.67650  0.51100  Biso   1.000  H
  H132     1.0000 0.46250  0.32350  0.01100  Biso   1.000  H
  H133     1.0000 0.46250  0.17650  0.51100  Biso   1.000  H
  H134     1.0000 0.03750  0.82350  0.01100  Biso   1.000  H
  H135     1.0000 0.96250  0.32350  0.48900  Biso   1.000  H
  H136     1.0000 0.53750  0.67650  0.98900  Biso   1.000  H
  H137     1.0000 0.58100  0.94970  0.54890  Biso   1.000  H
  H138     1.0000 0.91900  0.05030  0.04890  Biso   1.000  H
  H139     1.0000 0.08100  0.55030  0.45110  Biso   1.000  H
  H140     1.0000 0.41900  0.44970  0.95110  Biso   1.000  H
  H141     1.0000 0.41900  0.05030  0.45110  Biso   1.000  H
  H142     1.0000 0.08100  0.94970  0.95110  Biso   1.000  H
  H143     1.0000 0.91900  0.44970  0.54890  Biso   1.000  H
  H144     1.0000 0.58100  0.55030  0.04890  Biso   1.000  H
  H145     1.0000 0.63760  0.09800  0.56340  Biso   1.000  H
  H146     1.0000 0.86240  0.90200  0.06340  Biso   1.000  H
  H147     1.0000 0.13760  0.40200  0.43660  Biso   1.000  H
  H148     1.0000 0.36240  0.59800  0.93660  Biso   1.000  H
  H149     1.0000 0.36240  0.90200  0.43660  Biso   1.000  H
  H150     1.0000 0.13760  0.09800  0.93660  Biso   1.000  H
  H151     1.0000 0.86240  0.59800  0.56340  Biso   1.000  H
  H152     1.0000 0.63760  0.40200  0.06340  Biso   1.000  H
  H153     1.0000 0.67870  0.18980  0.48630  Biso   1.000  H
  H154     1.0000 0.82130  0.81020  0.98630  Biso   1.000  H
  H155     1.0000 0.17870  0.31020  0.51370  Biso   1.000  H
  H156     1.0000 0.32130  0.68980  0.01370  Biso   1.000  H
  H157     1.0000 0.32130  0.81020  0.51370  Biso   1.000  H
  H158     1.0000 0.17870  0.18980  0.01370  Biso   1.000  H
  H159     1.0000 0.82130  0.68980  0.48630  Biso   1.000  H
  H160     1.0000 0.67870  0.31020  0.98630  Biso   1.000  H
  H161     1.0000 0.68290  0.27350  0.40440  Biso   1.000  H
  H162     1.0000 0.81710  0.72650  0.90440  Biso   1.000  H
  H163     1.0000 0.18290  0.22650  0.59560  Biso   1.000  H
  H164     1.0000 0.31710  0.77350  0.09560  Biso   1.000  H
  H165     1.0000 0.31710  0.72650  0.59560  Biso   1.000  H
  H166     1.0000 0.18290  0.27350  0.09560  Biso   1.000  H
  H167     1.0000 0.81710  0.77350  0.40440  Biso   1.000  H
  H168     1.0000 0.68290  0.22650  0.90440  Biso   1.000  H
  H169     1.0000 0.76250  0.21720  0.40960  Biso   1.000  H
  H170     1.0000 0.73750  0.78280  0.90960  Biso   1.000  H
  H171     1.0000 0.26250  0.28280  0.59040  Biso   1.000  H
  H172     1.0000 0.23750  0.71720  0.09040  Biso   1.000  H
  H173     1.0000 0.23750  0.78280  0.59040  Biso   1.000  H
  H174     1.0000 0.26250  0.21720  0.09040  Biso   1.000  H
  H175     1.0000 0.73750  0.71720  0.40960  Biso   1.000  H
  H176     1.0000 0.76250  0.28280  0.90960  Biso   1.000  H
  H177     1.0000 0.77400  0.21620  0.31040  Biso   1.000  H
  H178     1.0000 0.72600  0.78380  0.81040  Biso   1.000  H
  H179     1.0000 0.27400  0.28380  0.68960  Biso   1.000  H
  H180     1.0000 0.22600  0.71620  0.18960  Biso   1.000  H
  H181     1.0000 0.22600  0.78380  0.68960  Biso   1.000  H
  H182     1.0000 0.27400  0.21620  0.18960  Biso   1.000  H
  H183     1.0000 0.72600  0.71620  0.31040  Biso   1.000  H
  H184     1.0000 0.77400  0.28380  0.81040  Biso   1.000  H
  H185     1.0000 0.69520  0.27200  0.30530  Biso   1.000  H
  H186     1.0000 0.80480  0.72800  0.80530  Biso   1.000  H
  H187     1.0000 0.19520  0.22800  0.69470  Biso   1.000  H
  H188     1.0000 0.30480  0.77200  0.19470  Biso   1.000  H
  H189     1.0000 0.30480  0.72800  0.69470  Biso   1.000  H
  H190     1.0000 0.19520  0.27200  0.19470  Biso   1.000  H
  H191     1.0000 0.80480  0.77200  0.30530  Biso   1.000  H
  H192     1.0000 0.69520  0.22800  0.80530  Biso   1.000  H
  H193     1.0000 0.76820  0.32430  0.33030  Biso   1.000  H
  H194     1.0000 0.73180  0.67570  0.83030  Biso   1.000  H
  H195     1.0000 0.26820  0.17570  0.66970  Biso   1.000  H
  H196     1.0000 0.23180  0.82430  0.16970  Biso   1.000  H
  H197     1.0000 0.23180  0.67570  0.66970  Biso   1.000  H
  H198     1.0000 0.26820  0.32430  0.16970  Biso   1.000  H
  H199     1.0000 0.73180  0.82430  0.33030  Biso   1.000  H
  H200     1.0000 0.76820  0.17570  0.83030  Biso   1.000  H
  H201     1.0000 0.94510  0.03780  0.21480  Biso   1.000  H
  H202     1.0000 0.55490  0.96220  0.71480  Biso   1.000  H
  H203     1.0000 0.44510  0.46220  0.78520  Biso   1.000  H
  H204     1.0000 0.05490  0.53780  0.28520  Biso   1.000  H
  H205     1.0000 0.05490  0.96220  0.78520  Biso   1.000  H
  H206     1.0000 0.44510  0.03780  0.28520  Biso   1.000  H
  H207     1.0000 0.55490  0.53780  0.21480  Biso   1.000  H
  H208     1.0000 0.94510  0.46220  0.71480  Biso   1.000  H
  H209     1.0000 0.90800  0.99350  0.16000  Biso   1.000  H
  H210     1.0000 0.59200  0.00650  0.66000  Biso   1.000  H
  H211     1.0000 0.40800  0.50650  0.84000  Biso   1.000  H
  H212     1.0000 0.09200  0.49350  0.34000  Biso   1.000  H
  H213     1.0000 0.09200  0.00650  0.84000  Biso   1.000  H
  H214     1.0000 0.40800  0.99350  0.34000  Biso   1.000  H
  H215     1.0000 0.59200  0.49350  0.16000  Biso   1.000  H
  H216     1.0000 0.90800  0.50650  0.66000  Biso   1.000  H
  H217     1.0000 0.91190  0.10630  0.16770  Biso   1.000  H
  H218     1.0000 0.58810  0.89370  0.66770  Biso   1.000  H
  H219     1.0000 0.41190  0.39370  0.83230  Biso   1.000  H
  H220     1.0000 0.08810  0.60630  0.33230  Biso   1.000  H
  H221     1.0000 0.08810  0.89370  0.83230  Biso   1.000  H
  H222     1.0000 0.41190  0.10630  0.33230  Biso   1.000  H
  H223     1.0000 0.58810  0.60630  0.16770  Biso   1.000  H
  H224     1.0000 0.91190  0.39370  0.66770  Biso   1.000  H
