data_image0
_cell_length_a       10.5113
_cell_length_b       14.3575
_cell_length_c       21.2636
_cell_angle_alpha    90
_cell_angle_beta     90
_cell_angle_gamma    90

_symmetry_space_group_name_H-M    "P 1"
_symmetry_int_tables_number       1

loop_
  _symmetry_equiv_pos_as_xyz
  'x, y, z'

loop_
  _atom_site_label
  _atom_site_occupancy
  _atom_site_fract_x
  _atom_site_fract_y
  _atom_site_fract_z
  _atom_site_thermal_displace_type
  _atom_site_B_iso_or_equiv
  _atom_site_type_symbol
  Cu1      1.0000 0.46921  0.69307  0.35960  Biso   1.000  Cu
  Cu2      1.0000 0.96921  0.80693  0.64040  Biso   1.000  Cu
  Cu3      1.0000 0.53079  0.19307  0.14040  Biso   1.000  Cu
  Cu4      1.0000 0.03079  0.30693  0.85960  Biso   1.000  Cu
  Na1      1.0000 0.62108  0.89293  0.34494  Biso   1.000  Na
  Na2      1.0000 0.12108  0.60707  0.65506  Biso   1.000  Na
  Na3      1.0000 0.37892  0.39293  0.15506  Biso   1.000  Na
  Na4      1.0000 0.87892  0.10707  0.84494  Biso   1.000  Na
  O1       1.0000 0.58876  0.74454  0.30323  Biso   1.000  O
  O2       1.0000 0.08876  0.75546  0.69677  Biso   1.000  O
  O3       1.0000 0.41124  0.24454  0.19677  Biso   1.000  O
  O4       1.0000 0.91124  0.25546  0.80323  Biso   1.000  O
  O5       1.0000 0.49200  0.80453  0.40783  Biso   1.000  O
  O6       1.0000 0.99200  0.69547  0.59217  Biso   1.000  O
  O7       1.0000 0.50800  0.30453  0.09217  Biso   1.000  O
  O8       1.0000 0.00800  0.19547  0.90783  Biso   1.000  O
  O9       1.0000 0.44857  0.48652  0.22802  Biso   1.000  O
  O10      1.0000 0.94857  0.01348  0.77198  Biso   1.000  O
  O11      1.0000 0.55143  0.98652  0.27198  Biso   1.000  O
  O12      1.0000 0.05143  0.51348  0.72802  Biso   1.000  O
  O13      1.0000 0.55170  0.96584  0.44981  Biso   1.000  O
  O14      1.0000 0.05170  0.53416  0.55019  Biso   1.000  O
  O15      1.0000 0.44830  0.46584  0.05019  Biso   1.000  O
  O16      1.0000 0.94830  0.03416  0.94981  Biso   1.000  O
  N1       1.0000 0.43454  0.58401  0.31168  Biso   1.000  N
  N2       1.0000 0.93454  0.91599  0.68832  Biso   1.000  N
  N3       1.0000 0.56546  0.08401  0.18832  Biso   1.000  N
  N4       1.0000 0.06546  0.41599  0.81168  Biso   1.000  N
  N5       1.0000 0.35427  0.64054  0.42143  Biso   1.000  N
  N6       1.0000 0.85427  0.85946  0.57857  Biso   1.000  N
  N7       1.0000 0.64573  0.14054  0.07857  Biso   1.000  N
  N8       1.0000 0.14573  0.35946  0.92143  Biso   1.000  N
  N9       1.0000 0.84640  0.89639  0.36097  Biso   1.000  N
  N10      1.0000 0.34640  0.60361  0.63903  Biso   1.000  N
  N11      1.0000 0.15360  0.39639  0.13903  Biso   1.000  N
  N12      1.0000 0.65360  0.10361  0.86097  Biso   1.000  N
  C1       1.0000 0.62798  0.70521  0.25092  Biso   1.000  C
  C2       1.0000 0.12798  0.79479  0.74908  Biso   1.000  C
  C3       1.0000 0.37202  0.20521  0.24908  Biso   1.000  C
  C4       1.0000 0.87202  0.29479  0.75092  Biso   1.000  C
  C5       1.0000 0.72000  0.75452  0.21588  Biso   1.000  C
  C6       1.0000 0.22000  0.74548  0.78412  Biso   1.000  C
  C7       1.0000 0.28000  0.25452  0.28412  Biso   1.000  C
  C8       1.0000 0.78000  0.24548  0.71588  Biso   1.000  C
  C9       1.0000 0.76740  0.72060  0.16025  Biso   1.000  C
  C10      1.0000 0.26740  0.77940  0.83975  Biso   1.000  C
  C11      1.0000 0.23260  0.22060  0.33975  Biso   1.000  C
  C12      1.0000 0.73260  0.27940  0.66025  Biso   1.000  C
  C13      1.0000 0.72510  0.63532  0.13710  Biso   1.000  C
  C14      1.0000 0.22510  0.86468  0.86290  Biso   1.000  C
  C15      1.0000 0.27490  0.13532  0.36290  Biso   1.000  C
  C16      1.0000 0.77490  0.36468  0.63710  Biso   1.000  C
  C17      1.0000 0.63620  0.58582  0.17052  Biso   1.000  C
  C18      1.0000 0.13620  0.91418  0.82948  Biso   1.000  C
  C19      1.0000 0.36380  0.08582  0.32948  Biso   1.000  C
  C20      1.0000 0.86380  0.41418  0.67052  Biso   1.000  C
  C21      1.0000 0.58467  0.61836  0.22718  Biso   1.000  C
  C22      1.0000 0.08467  0.88164  0.77282  Biso   1.000  C
  C23      1.0000 0.41533  0.11836  0.27282  Biso   1.000  C
  C24      1.0000 0.91533  0.38164  0.72718  Biso   1.000  C
  C25      1.0000 0.48360  0.55862  0.25676  Biso   1.000  C
  C26      1.0000 0.98360  0.94138  0.74324  Biso   1.000  C
  C27      1.0000 0.51640  0.05862  0.24324  Biso   1.000  C
  C28      1.0000 0.01640  0.44138  0.75676  Biso   1.000  C
  C29      1.0000 0.32870  0.52798  0.33545  Biso   1.000  C
  C30      1.0000 0.82870  0.97202  0.66455  Biso   1.000  C
  C31      1.0000 0.67130  0.02798  0.16455  Biso   1.000  C
  C32      1.0000 0.17130  0.47202  0.83545  Biso   1.000  C
  C33      1.0000 0.20250  0.54883  0.30396  Biso   1.000  C
  C34      1.0000 0.70250  0.95117  0.69604  Biso   1.000  C
  C35      1.0000 0.79750  0.04883  0.19604  Biso   1.000  C
  C36      1.0000 0.29750  0.45117  0.80396  Biso   1.000  C
  C37      1.0000 0.18430  0.62350  0.26415  Biso   1.000  C
  C38      1.0000 0.68430  0.87650  0.73585  Biso   1.000  C
  C39      1.0000 0.81570  0.12350  0.23585  Biso   1.000  C
  C40      1.0000 0.31570  0.37650  0.76415  Biso   1.000  C
  C41      1.0000 0.06660  0.63940  0.23720  Biso   1.000  C
  C42      1.0000 0.56660  0.86060  0.76280  Biso   1.000  C
  C43      1.0000 0.93340  0.13940  0.26280  Biso   1.000  C
  C44      1.0000 0.43340  0.36060  0.73720  Biso   1.000  C
  C45      1.0000 0.96600  0.58030  0.24960  Biso   1.000  C
  C46      1.0000 0.46600  0.91970  0.75040  Biso   1.000  C
  C47      1.0000 0.03400  0.08030  0.25040  Biso   1.000  C
  C48      1.0000 0.53400  0.41970  0.74960  Biso   1.000  C
  C49      1.0000 0.98260  0.50547  0.28749  Biso   1.000  C
  C50      1.0000 0.48260  0.99453  0.71251  Biso   1.000  C
  C51      1.0000 0.01740  0.00547  0.21251  Biso   1.000  C
  C52      1.0000 0.51740  0.49453  0.78749  Biso   1.000  C
  C53      1.0000 0.10080  0.48870  0.31319  Biso   1.000  C
  C54      1.0000 0.60080  0.01130  0.68681  Biso   1.000  C
  C55      1.0000 0.89920  0.98870  0.18681  Biso   1.000  C
  C56      1.0000 0.39920  0.51130  0.81319  Biso   1.000  C
  C57      1.0000 0.32090  0.54278  0.40811  Biso   1.000  C
  C58      1.0000 0.82090  0.95722  0.59189  Biso   1.000  C
  C59      1.0000 0.67910  0.04278  0.09189  Biso   1.000  C
  C60      1.0000 0.17910  0.45722  0.90811  Biso   1.000  C
  C61      1.0000 0.40850  0.47542  0.44237  Biso   1.000  C
  C62      1.0000 0.90850  0.02458  0.55763  Biso   1.000  C
  C63      1.0000 0.59150  0.97542  0.05763  Biso   1.000  C
  C64      1.0000 0.09150  0.52458  0.94237  Biso   1.000  C
  C65      1.0000 0.52920  0.49862  0.46281  Biso   1.000  C
  C66      1.0000 0.02920  0.00138  0.53719  Biso   1.000  C
  C67      1.0000 0.47080  0.99862  0.03719  Biso   1.000  C
  C68      1.0000 0.97080  0.50138  0.96281  Biso   1.000  C
  C69      1.0000 0.60860  0.43190  0.49030  Biso   1.000  C
  C70      1.0000 0.10860  0.06810  0.50970  Biso   1.000  C
  C71      1.0000 0.39140  0.93190  0.00970  Biso   1.000  C
  C72      1.0000 0.89140  0.56810  0.99030  Biso   1.000  C
  C73      1.0000 0.56360  0.34285  0.50025  Biso   1.000  C
  C74      1.0000 0.06360  0.15715  0.49975  Biso   1.000  C
  C75      1.0000 0.43640  0.84285  0.99975  Biso   1.000  C
  C76      1.0000 0.93640  0.65715  0.00025  Biso   1.000  C
  C77      1.0000 0.44440  0.31854  0.48047  Biso   1.000  C
  C78      1.0000 0.94440  0.18146  0.51953  Biso   1.000  C
  C79      1.0000 0.55560  0.81854  0.01953  Biso   1.000  C
  C80      1.0000 0.05560  0.68146  0.98047  Biso   1.000  C
  C81      1.0000 0.36750  0.38400  0.44953  Biso   1.000  C
  C82      1.0000 0.86750  0.11600  0.55047  Biso   1.000  C
  C83      1.0000 0.63250  0.88400  0.05047  Biso   1.000  C
  C84      1.0000 0.13250  0.61600  0.94953  Biso   1.000  C
  C85      1.0000 0.30930  0.68052  0.47058  Biso   1.000  C
  C86      1.0000 0.80930  0.81948  0.52942  Biso   1.000  C
  C87      1.0000 0.69070  0.18052  0.02942  Biso   1.000  C
  C88      1.0000 0.19070  0.31948  0.97058  Biso   1.000  C
  C89      1.0000 0.34390  0.77266  0.49180  Biso   1.000  C
  C90      1.0000 0.84390  0.72734  0.50820  Biso   1.000  C
  C91      1.0000 0.65610  0.27266  0.00820  Biso   1.000  C
  C92      1.0000 0.15610  0.22734  0.99180  Biso   1.000  C
  C93      1.0000 0.28970  0.80553  0.54840  Biso   1.000  C
  C94      1.0000 0.78970  0.69447  0.45160  Biso   1.000  C
  C95      1.0000 0.71030  0.30553  0.95160  Biso   1.000  C
  C96      1.0000 0.21030  0.19447  0.04840  Biso   1.000  C
  C97      1.0000 0.32360  0.89107  0.57215  Biso   1.000  C
  C98      1.0000 0.82360  0.60893  0.42785  Biso   1.000  C
  C99      1.0000 0.67640  0.39107  0.92785  Biso   1.000  C
  C100     1.0000 0.17640  0.10893  0.07215  Biso   1.000  C
  C101     1.0000 0.40910  0.94753  0.54006  Biso   1.000  C
  C102     1.0000 0.90910  0.55247  0.45994  Biso   1.000  C
  C103     1.0000 0.59090  0.44753  0.95994  Biso   1.000  C
  C104     1.0000 0.09090  0.05247  0.04006  Biso   1.000  C
  C105     1.0000 0.46330  0.91761  0.48490  Biso   1.000  C
  C106     1.0000 0.96330  0.58239  0.51510  Biso   1.000  C
  C107     1.0000 0.53670  0.41761  0.01510  Biso   1.000  C
  C108     1.0000 0.03670  0.08239  0.98490  Biso   1.000  C
  C109     1.0000 0.43400  0.82795  0.45943  Biso   1.000  C
  C110     1.0000 0.93400  0.67205  0.54057  Biso   1.000  C
  C111     1.0000 0.56600  0.32795  0.04057  Biso   1.000  C
  C112     1.0000 0.06600  0.17205  0.95943  Biso   1.000  C
  C113     1.0000 0.56870  0.06320  0.46521  Biso   1.000  C
  C114     1.0000 0.06870  0.43680  0.53479  Biso   1.000  C
  C115     1.0000 0.43130  0.56320  0.03479  Biso   1.000  C
  C116     1.0000 0.93130  0.93680  0.96521  Biso   1.000  C
  C117     1.0000 0.66510  0.10109  0.41856  Biso   1.000  C
  C118     1.0000 0.16510  0.39891  0.58144  Biso   1.000  C
  C119     1.0000 0.33490  0.60109  0.08144  Biso   1.000  C
  C120     1.0000 0.83490  0.89891  0.91856  Biso   1.000  C
  C121     1.0000 0.94900  0.87740  0.36880  Biso   1.000  C
  C122     1.0000 0.44900  0.62260  0.63120  Biso   1.000  C
  C123     1.0000 0.05100  0.37740  0.13120  Biso   1.000  C
  C124     1.0000 0.55100  0.12260  0.86880  Biso   1.000  C
  C125     1.0000 0.08240  0.85020  0.37330  Biso   1.000  C
  C126     1.0000 0.58240  0.64980  0.62670  Biso   1.000  C
  C127     1.0000 0.91760  0.35020  0.12670  Biso   1.000  C
  C128     1.0000 0.41760  0.14980  0.87330  Biso   1.000  C
  H1       1.0000 0.74850  0.81160  0.23100  Biso   1.000  H
  H2       1.0000 0.24850  0.68840  0.76900  Biso   1.000  H
  H3       1.0000 0.25150  0.31160  0.26900  Biso   1.000  H
  H4       1.0000 0.75150  0.18840  0.73100  Biso   1.000  H
  H5       1.0000 0.82830  0.75440  0.13820  Biso   1.000  H
  H6       1.0000 0.32830  0.74560  0.86180  Biso   1.000  H
  H7       1.0000 0.17170  0.25440  0.36180  Biso   1.000  H
  H8       1.0000 0.67170  0.24560  0.63820  Biso   1.000  H
  H9       1.0000 0.75640  0.61210  0.09930  Biso   1.000  H
  H10      1.0000 0.25640  0.88790  0.90070  Biso   1.000  H
  H11      1.0000 0.24360  0.11210  0.40070  Biso   1.000  H
  H12      1.0000 0.74360  0.38790  0.59930  Biso   1.000  H
  H13      1.0000 0.60840  0.52880  0.15500  Biso   1.000  H
  H14      1.0000 0.10840  0.97120  0.84500  Biso   1.000  H
  H15      1.0000 0.39160  0.02880  0.34500  Biso   1.000  H
  H16      1.0000 0.89160  0.47120  0.65500  Biso   1.000  H
  H17      1.0000 0.34190  0.45440  0.33150  Biso   1.000  H
  H18      1.0000 0.84190  0.04560  0.66850  Biso   1.000  H
  H19      1.0000 0.65810  0.95440  0.16850  Biso   1.000  H
  H20      1.0000 0.15810  0.54560  0.83150  Biso   1.000  H
  H21      1.0000 0.25210  0.66310  0.25540  Biso   1.000  H
  H22      1.0000 0.75210  0.83690  0.74460  Biso   1.000  H
  H23      1.0000 0.74790  0.16310  0.24460  Biso   1.000  H
  H24      1.0000 0.24790  0.33690  0.75540  Biso   1.000  H
  H25      1.0000 0.05470  0.69000  0.21050  Biso   1.000  H
  H26      1.0000 0.55470  0.81000  0.78950  Biso   1.000  H
  H27      1.0000 0.94530  0.19000  0.28950  Biso   1.000  H
  H28      1.0000 0.44530  0.31000  0.71050  Biso   1.000  H
  H29      1.0000 0.88620  0.59290  0.23280  Biso   1.000  H
  H30      1.0000 0.38620  0.90710  0.76720  Biso   1.000  H
  H31      1.0000 0.11380  0.09290  0.26720  Biso   1.000  H
  H32      1.0000 0.61380  0.40710  0.73280  Biso   1.000  H
  H33      1.0000 0.91530  0.46510  0.29540  Biso   1.000  H
  H34      1.0000 0.41530  0.03490  0.70460  Biso   1.000  H
  H35      1.0000 0.08470  0.96510  0.20460  Biso   1.000  H
  H36      1.0000 0.58470  0.53490  0.79540  Biso   1.000  H
  H37      1.0000 0.11330  0.43580  0.33760  Biso   1.000  H
  H38      1.0000 0.61330  0.06420  0.66240  Biso   1.000  H
  H39      1.0000 0.88670  0.93580  0.16240  Biso   1.000  H
  H40      1.0000 0.38670  0.56420  0.83760  Biso   1.000  H
  H41      1.0000 0.23300  0.53040  0.42530  Biso   1.000  H
  H42      1.0000 0.73300  0.96960  0.57470  Biso   1.000  H
  H43      1.0000 0.76700  0.03040  0.07470  Biso   1.000  H
  H44      1.0000 0.26700  0.46960  0.92530  Biso   1.000  H
  H45      1.0000 0.55720  0.55970  0.45850  Biso   1.000  H
  H46      1.0000 0.05720  0.94030  0.54150  Biso   1.000  H
  H47      1.0000 0.44280  0.05970  0.04150  Biso   1.000  H
  H48      1.0000 0.94280  0.44030  0.95850  Biso   1.000  H
  H49      1.0000 0.69140  0.44760  0.50140  Biso   1.000  H
  H50      1.0000 0.19140  0.05240  0.49860  Biso   1.000  H
  H51      1.0000 0.30860  0.94760  0.99860  Biso   1.000  H
  H52      1.0000 0.80860  0.55240  0.00140  Biso   1.000  H
  H53      1.0000 0.61410  0.29900  0.52060  Biso   1.000  H
  H54      1.0000 0.11410  0.20100  0.47940  Biso   1.000  H
  H55      1.0000 0.38590  0.79900  0.97940  Biso   1.000  H
  H56      1.0000 0.88590  0.70100  0.02060  Biso   1.000  H
  H57      1.0000 0.41400  0.25850  0.48720  Biso   1.000  H
  H58      1.0000 0.91400  0.24150  0.51280  Biso   1.000  H
  H59      1.0000 0.58600  0.75850  0.01280  Biso   1.000  H
  H60      1.0000 0.08600  0.74150  0.98720  Biso   1.000  H
  H61      1.0000 0.28880  0.36630  0.43350  Biso   1.000  H
  H62      1.0000 0.78880  0.13370  0.56650  Biso   1.000  H
  H63      1.0000 0.71120  0.86630  0.06650  Biso   1.000  H
  H64      1.0000 0.21120  0.63370  0.93350  Biso   1.000  H
  H65      1.0000 0.25100  0.64720  0.49460  Biso   1.000  H
  H66      1.0000 0.75100  0.85280  0.50540  Biso   1.000  H
  H67      1.0000 0.74900  0.14720  0.00540  Biso   1.000  H
  H68      1.0000 0.24900  0.35280  0.99460  Biso   1.000  H
  H69      1.0000 0.22990  0.76910  0.56930  Biso   1.000  H
  H70      1.0000 0.72990  0.73090  0.43070  Biso   1.000  H
  H71      1.0000 0.77010  0.26910  0.93070  Biso   1.000  H
  H72      1.0000 0.27010  0.23090  0.06930  Biso   1.000  H
  H73      1.0000 0.28830  0.91140  0.60980  Biso   1.000  H
  H74      1.0000 0.78830  0.58860  0.39020  Biso   1.000  H
  H75      1.0000 0.71170  0.41140  0.89020  Biso   1.000  H
  H76      1.0000 0.21170  0.08860  0.10980  Biso   1.000  H
  H77      1.0000 0.43120  0.00540  0.55630  Biso   1.000  H
  H78      1.0000 0.93120  0.49460  0.44370  Biso   1.000  H
  H79      1.0000 0.56880  0.50540  0.94370  Biso   1.000  H
  H80      1.0000 0.06880  0.99460  0.05630  Biso   1.000  H
  H81      1.0000 0.48720  0.09430  0.46130  Biso   1.000  H
  H82      1.0000 0.98720  0.40570  0.53870  Biso   1.000  H
  H83      1.0000 0.51280  0.59430  0.03870  Biso   1.000  H
  H84      1.0000 0.01280  0.90570  0.96130  Biso   1.000  H
  H85      1.0000 0.59800  0.06780  0.50840  Biso   1.000  H
  H86      1.0000 0.09800  0.43220  0.49160  Biso   1.000  H
  H87      1.0000 0.40200  0.56780  0.99160  Biso   1.000  H
  H88      1.0000 0.90200  0.93220  0.00840  Biso   1.000  H
  H89      1.0000 0.68400  0.16500  0.42800  Biso   1.000  H
  H90      1.0000 0.18400  0.33500  0.57200  Biso   1.000  H
  H91      1.0000 0.31600  0.66500  0.07200  Biso   1.000  H
  H92      1.0000 0.81600  0.83500  0.92800  Biso   1.000  H
  H93      1.0000 0.74160  0.06480  0.42150  Biso   1.000  H
  H94      1.0000 0.24160  0.43520  0.57850  Biso   1.000  H
  H95      1.0000 0.25840  0.56480  0.07850  Biso   1.000  H
  H96      1.0000 0.75840  0.93520  0.92150  Biso   1.000  H
  H97      1.0000 0.63150  0.09660  0.37670  Biso   1.000  H
  H98      1.0000 0.13150  0.40340  0.62330  Biso   1.000  H
  H99      1.0000 0.36850  0.59660  0.12330  Biso   1.000  H
  H100     1.0000 0.86850  0.90340  0.87670  Biso   1.000  H
  H101     1.0000 0.12460  0.90700  0.38490  Biso   1.000  H
  H102     1.0000 0.62460  0.59300  0.61510  Biso   1.000  H
  H103     1.0000 0.87540  0.40700  0.11510  Biso   1.000  H
  H104     1.0000 0.37540  0.09300  0.88490  Biso   1.000  H
  H105     1.0000 0.10060  0.80310  0.40410  Biso   1.000  H
  H106     1.0000 0.60060  0.69690  0.59590  Biso   1.000  H
  H107     1.0000 0.89940  0.30310  0.09590  Biso   1.000  H
  H108     1.0000 0.39940  0.19690  0.90410  Biso   1.000  H
  H109     1.0000 0.11240  0.83020  0.33290  Biso   1.000  H
  H110     1.0000 0.61240  0.66980  0.66710  Biso   1.000  H
  H111     1.0000 0.88760  0.33020  0.16710  Biso   1.000  H
  H112     1.0000 0.38760  0.16980  0.83290  Biso   1.000  H
  N13      1.0000 0.15360  0.82865  0.12053  Biso   1.000  N
  N14      1.0000 0.65360  0.67135  0.87947  Biso   1.000  N
  N15      1.0000 0.84640  0.32865  0.37947  Biso   1.000  N
  N16      1.0000 0.34640  0.17135  0.62053  Biso   1.000  N
  C129     1.0000 0.25110  0.83491  0.14476  Biso   1.000  C
  C130     1.0000 0.75110  0.66509  0.85524  Biso   1.000  C
  C131     1.0000 0.74890  0.33491  0.35524  Biso   1.000  C
  C132     1.0000 0.24890  0.16509  0.64476  Biso   1.000  C
  C133     1.0000 0.37500  0.84310  0.17473  Biso   1.000  C
  C134     1.0000 0.87500  0.65690  0.82527  Biso   1.000  C
  C135     1.0000 0.62500  0.34310  0.32527  Biso   1.000  C
  C136     1.0000 0.12500  0.15690  0.67473  Biso   1.000  C
  H113     1.0000 0.38760  0.79170  0.20290  Biso   1.000  H
  H114     1.0000 0.88760  0.70830  0.79710  Biso   1.000  H
  H115     1.0000 0.61240  0.29170  0.29710  Biso   1.000  H
  H116     1.0000 0.11240  0.20830  0.70290  Biso   1.000  H
  H117     1.0000 0.44060  0.84290  0.14330  Biso   1.000  H
  H118     1.0000 0.94060  0.65710  0.85670  Biso   1.000  H
  H119     1.0000 0.55940  0.34290  0.35670  Biso   1.000  H
  H120     1.0000 0.05940  0.15710  0.64330  Biso   1.000  H
  H121     1.0000 0.37850  0.90040  0.19790  Biso   1.000  H
  H122     1.0000 0.87850  0.59960  0.80210  Biso   1.000  H
  H123     1.0000 0.62150  0.40040  0.30210  Biso   1.000  H
  H124     1.0000 0.12150  0.09960  0.69790  Biso   1.000  H
