data_image0
_cell_length_a       13.478
_cell_length_b       15.682
_cell_length_c       15.861
_cell_angle_alpha    90
_cell_angle_beta     90
_cell_angle_gamma    90

_symmetry_space_group_name_H-M    "P 1"
_symmetry_int_tables_number       1

loop_
  _symmetry_equiv_pos_as_xyz
  'x, y, z'

loop_
  _atom_site_label
  _atom_site_occupancy
  _atom_site_fract_x
  _atom_site_fract_y
  _atom_site_fract_z
  _atom_site_thermal_displace_type
  _atom_site_B_iso_or_equiv
  _atom_site_type_symbol
  Tb1      1.0000 0.52948  0.59596  0.13200  Biso   1.000  Tb
  Tb2      1.0000 0.02948  0.90404  0.86800  Biso   1.000  Tb
  Tb3      1.0000 0.47052  0.09596  0.36800  Biso   1.000  Tb
  Tb4      1.0000 0.97052  0.40404  0.63200  Biso   1.000  Tb
  O1       1.0000 0.54930  0.74750  0.15810  Biso   1.000  O
  O2       1.0000 0.04930  0.75250  0.84190  Biso   1.000  O
  O3       1.0000 0.45070  0.24750  0.34190  Biso   1.000  O
  O4       1.0000 0.95070  0.25250  0.65810  Biso   1.000  O
  O5       1.0000 0.66220  0.63070  0.21620  Biso   1.000  O
  O6       1.0000 0.16220  0.86930  0.78380  Biso   1.000  O
  O7       1.0000 0.33780  0.13070  0.28380  Biso   1.000  O
  O8       1.0000 0.83780  0.36930  0.71620  Biso   1.000  O
  O9       1.0000 0.69280  0.50040  0.12480  Biso   1.000  O
  O10      1.0000 0.19280  0.99960  0.87520  Biso   1.000  O
  O11      1.0000 0.30720  0.00040  0.37520  Biso   1.000  O
  O12      1.0000 0.80720  0.49960  0.62480  Biso   1.000  O
  O13      1.0000 0.46360  0.63510  0.27650  Biso   1.000  O
  O14      1.0000 0.96360  0.86490  0.72350  Biso   1.000  O
  O15      1.0000 0.53640  0.13510  0.22350  Biso   1.000  O
  O16      1.0000 0.03640  0.36490  0.77650  Biso   1.000  O
  O17      1.0000 0.36570  0.64310  0.16960  Biso   1.000  O
  O18      1.0000 0.86570  0.85690  0.83040  Biso   1.000  O
  O19      1.0000 0.63430  0.14310  0.33040  Biso   1.000  O
  O20      1.0000 0.13430  0.35690  0.66960  Biso   1.000  O
  O21      1.0000 0.42280  0.61360  0.00990  Biso   1.000  O
  O22      1.0000 0.92280  0.88640  0.99010  Biso   1.000  O
  O23      1.0000 0.57720  0.11360  0.49010  Biso   1.000  O
  O24      1.0000 0.07720  0.38640  0.50990  Biso   1.000  O
  O25      1.0000 0.50710  0.49670  0.01150  Biso   1.000  O
  O26      1.0000 0.00710  0.00330  0.98850  Biso   1.000  O
  O27      1.0000 0.49290  0.99670  0.48850  Biso   1.000  O
  O28      1.0000 0.99290  0.50330  0.51150  Biso   1.000  O
  N1       1.0000 0.63470  0.64820  0.00790  Biso   1.000  N
  N2       1.0000 0.13470  0.85180  0.99210  Biso   1.000  N
  N3       1.0000 0.36530  0.14820  0.49210  Biso   1.000  N
  N4       1.0000 0.86530  0.35180  0.50790  Biso   1.000  N
  O29      1.0000 0.51490  0.97510  0.30620  Biso   1.000  O
  O30      1.0000 0.01490  0.52490  0.69380  Biso   1.000  O
  O31      1.0000 0.48510  0.47510  0.19380  Biso   1.000  O
  O32      1.0000 0.98510  0.02490  0.80620  Biso   1.000  O
  Cu1      1.0000 0.62827  0.74175  0.25753  Biso   1.000  Cu
  Cu2      1.0000 0.12827  0.75825  0.74247  Biso   1.000  Cu
  Cu3      1.0000 0.37173  0.24175  0.24247  Biso   1.000  Cu
  Cu4      1.0000 0.87173  0.25825  0.75753  Biso   1.000  Cu
  C1       1.0000 0.50160  0.81810  0.13300  Biso   1.000  C
  C2       1.0000 0.00160  0.68190  0.86700  Biso   1.000  C
  C3       1.0000 0.49840  0.31810  0.36700  Biso   1.000  C
  C4       1.0000 0.99840  0.18190  0.63300  Biso   1.000  C
  C5       1.0000 0.74160  0.58530  0.23710  Biso   1.000  C
  C6       1.0000 0.24160  0.91470  0.76290  Biso   1.000  C
  C7       1.0000 0.25840  0.08530  0.26290  Biso   1.000  C
  C8       1.0000 0.75840  0.41470  0.73710  Biso   1.000  C
  C9       1.0000 0.76070  0.51230  0.18900  Biso   1.000  C
  C10      1.0000 0.26070  0.98770  0.81100  Biso   1.000  C
  C11      1.0000 0.23930  0.01230  0.31100  Biso   1.000  C
  C12      1.0000 0.73930  0.48770  0.68900  Biso   1.000  C
  C13      1.0000 0.70640  0.42730  0.06970  Biso   1.000  C
  C14      1.0000 0.20640  0.07270  0.93030  Biso   1.000  C
  C15      1.0000 0.29360  0.92730  0.43030  Biso   1.000  C
  C16      1.0000 0.79360  0.57270  0.56970  Biso   1.000  C
  N5       1.0000 0.37750  0.65140  0.24890  Biso   1.000  N
  N6       1.0000 0.87750  0.84860  0.75110  Biso   1.000  N
  N7       1.0000 0.62250  0.15140  0.25110  Biso   1.000  N
  N8       1.0000 0.12250  0.34860  0.74890  Biso   1.000  N
  N9       1.0000 0.44400  0.54350  0.97380  Biso   1.000  N
  N10      1.0000 0.94400  0.95650  0.02620  Biso   1.000  N
  N11      1.0000 0.55600  0.04350  0.52620  Biso   1.000  N
  N12      1.0000 0.05600  0.45650  0.47380  Biso   1.000  N
  C17      1.0000 0.66650  0.67200  0.94560  Biso   1.000  C
  C18      1.0000 0.16650  0.82800  0.05440  Biso   1.000  C
  C19      1.0000 0.33350  0.17200  0.55440  Biso   1.000  C
  C20      1.0000 0.83350  0.32800  0.44560  Biso   1.000  C
  N13      1.0000 0.60100  0.85200  0.29950  Biso   1.000  N
  N14      1.0000 0.10100  0.64800  0.70050  Biso   1.000  N
  N15      1.0000 0.39900  0.35200  0.20050  Biso   1.000  N
  N16      1.0000 0.89900  0.14800  0.79950  Biso   1.000  N
  N17      1.0000 0.71390  0.72990  0.35370  Biso   1.000  N
  N18      1.0000 0.21390  0.77010  0.64630  Biso   1.000  N
  N19      1.0000 0.28610  0.22990  0.14630  Biso   1.000  N
  N20      1.0000 0.78610  0.27010  0.85370  Biso   1.000  N
  C21      1.0000 0.46070  0.81740  0.05150  Biso   1.000  C
  C22      1.0000 0.96070  0.68260  0.94850  Biso   1.000  C
  C23      1.0000 0.53930  0.31740  0.44850  Biso   1.000  C
  C24      1.0000 0.03930  0.18260  0.55150  Biso   1.000  C
  C25      1.0000 0.49140  0.89190  0.18320  Biso   1.000  C
  C26      1.0000 0.99140  0.60810  0.81680  Biso   1.000  C
  C27      1.0000 0.50860  0.39190  0.31680  Biso   1.000  C
  C28      1.0000 0.00860  0.10810  0.68320  Biso   1.000  C
  C29      1.0000 0.80420  0.60560  0.30500  Biso   1.000  C
  C30      1.0000 0.30420  0.89440  0.69500  Biso   1.000  C
  C31      1.0000 0.19580  0.10560  0.19500  Biso   1.000  C
  C32      1.0000 0.69580  0.39440  0.80500  Biso   1.000  C
  C33      1.0000 0.84110  0.46170  0.20570  Biso   1.000  C
  C34      1.0000 0.34110  0.03830  0.79430  Biso   1.000  C
  C35      1.0000 0.15890  0.96170  0.29430  Biso   1.000  C
  C36      1.0000 0.65890  0.53830  0.70570  Biso   1.000  C
  C37      1.0000 0.66020  0.34900  0.10510  Biso   1.000  C
  C38      1.0000 0.16020  0.15100  0.89490  Biso   1.000  C
  C39      1.0000 0.33980  0.84900  0.39490  Biso   1.000  C
  C40      1.0000 0.83980  0.65100  0.60510  Biso   1.000  C
  H1       1.0000 0.77823  0.41731  0.06128  Biso   1.000  H
  H2       1.0000 0.27823  0.08269  0.93872  Biso   1.000  H
  H3       1.0000 0.22177  0.91731  0.43872  Biso   1.000  H
  H4       1.0000 0.72177  0.58269  0.56128  Biso   1.000  H
  H5       1.0000 0.67657  0.43978  0.01401  Biso   1.000  H
  H6       1.0000 0.17657  0.06022  0.98599  Biso   1.000  H
  H7       1.0000 0.32343  0.93978  0.48599  Biso   1.000  H
  H8       1.0000 0.82343  0.56022  0.51401  Biso   1.000  H
  O33      1.0000 0.31020  0.67430  0.29440  Biso   1.000  O
  O34      1.0000 0.81020  0.82570  0.70560  Biso   1.000  O
  O35      1.0000 0.68980  0.17430  0.20560  Biso   1.000  O
  O36      1.0000 0.18980  0.32570  0.79440  Biso   1.000  O
  O37      1.0000 0.40510  0.52230  0.90750  Biso   1.000  O
  O38      1.0000 0.90510  0.97770  0.09250  Biso   1.000  O
  O39      1.0000 0.59490  0.02230  0.59250  Biso   1.000  O
  O40      1.0000 0.09490  0.47770  0.40750  Biso   1.000  O
  C41      1.0000 0.70560  0.70460  0.86710  Biso   1.000  C
  C42      1.0000 0.20560  0.79540  0.13290  Biso   1.000  C
  C43      1.0000 0.29440  0.20460  0.63290  Biso   1.000  C
  C44      1.0000 0.79440  0.29540  0.36710  Biso   1.000  C
  C45      1.0000 0.53700  0.90660  0.26760  Biso   1.000  C
  C46      1.0000 0.03700  0.59340  0.73240  Biso   1.000  C
  C47      1.0000 0.46300  0.40660  0.23240  Biso   1.000  C
  C48      1.0000 0.96300  0.09340  0.76760  Biso   1.000  C
  C49      1.0000 0.65110  0.87510  0.37860  Biso   1.000  C
  C50      1.0000 0.15110  0.62490  0.62140  Biso   1.000  C
  C51      1.0000 0.34890  0.37510  0.12140  Biso   1.000  C
  C52      1.0000 0.84890  0.12490  0.87860  Biso   1.000  C
  C53      1.0000 0.69280  0.79220  0.42000  Biso   1.000  C
  C54      1.0000 0.19280  0.70780  0.58000  Biso   1.000  C
  C55      1.0000 0.30720  0.29220  0.08000  Biso   1.000  C
  C56      1.0000 0.80720  0.20780  0.92000  Biso   1.000  C
  C57      1.0000 0.78510  0.67580  0.36110  Biso   1.000  C
  C58      1.0000 0.28510  0.82420  0.63890  Biso   1.000  C
  C59      1.0000 0.21490  0.17580  0.13890  Biso   1.000  C
  C60      1.0000 0.71490  0.32420  0.86110  Biso   1.000  C
  C61      1.0000 0.40830  0.88630  0.02010  Biso   1.000  C
  C62      1.0000 0.90830  0.61370  0.97990  Biso   1.000  C
  C63      1.0000 0.59170  0.38630  0.47990  Biso   1.000  C
  C64      1.0000 0.09170  0.11370  0.52010  Biso   1.000  C
  H9       1.0000 0.46929  0.76834  0.01708  Biso   1.000  H
  H10      1.0000 0.96929  0.73166  0.98292  Biso   1.000  H
  H11      1.0000 0.53071  0.26834  0.48292  Biso   1.000  H
  H12      1.0000 0.03071  0.23166  0.51708  Biso   1.000  H
  C65      1.0000 0.43640  0.95990  0.14950  Biso   1.000  C
  C66      1.0000 0.93640  0.54010  0.85050  Biso   1.000  C
  C67      1.0000 0.56360  0.45990  0.35050  Biso   1.000  C
  C68      1.0000 0.06360  0.04010  0.64950  Biso   1.000  C
  C69      1.0000 0.88650  0.55310  0.32090  Biso   1.000  C
  C70      1.0000 0.38650  0.94690  0.67910  Biso   1.000  C
  C71      1.0000 0.11350  0.05310  0.17910  Biso   1.000  C
  C72      1.0000 0.61350  0.44690  0.82090  Biso   1.000  C
  C73      1.0000 0.90460  0.48330  0.27230  Biso   1.000  C
  C74      1.0000 0.40460  0.01670  0.72770  Biso   1.000  C
  C75      1.0000 0.09540  0.98330  0.22770  Biso   1.000  C
  C76      1.0000 0.59540  0.51670  0.77230  Biso   1.000  C
  H13      1.0000 0.85371  0.41248  0.17242  Biso   1.000  H
  H14      1.0000 0.35371  0.08752  0.82758  Biso   1.000  H
  H15      1.0000 0.14629  0.91248  0.32758  Biso   1.000  H
  H16      1.0000 0.64629  0.58752  0.67242  Biso   1.000  H
  H17      1.0000 0.58788  0.35553  0.10555  Biso   1.000  H
  H18      1.0000 0.08788  0.14447  0.89445  Biso   1.000  H
  H19      1.0000 0.41212  0.85553  0.39445  Biso   1.000  H
  H20      1.0000 0.91212  0.64447  0.60555  Biso   1.000  H
  H21      1.0000 0.68400  0.34008  0.16278  Biso   1.000  H
  H22      1.0000 0.18400  0.15992  0.83722  Biso   1.000  H
  H23      1.0000 0.31600  0.84008  0.33722  Biso   1.000  H
  H24      1.0000 0.81600  0.65992  0.66278  Biso   1.000  H
  H25      1.0000 0.67825  0.29982  0.07019  Biso   1.000  H
  H26      1.0000 0.17825  0.20018  0.92981  Biso   1.000  H
  H27      1.0000 0.32175  0.79982  0.42981  Biso   1.000  H
  H28      1.0000 0.82175  0.70018  0.57019  Biso   1.000  H
  H29      1.0000 0.73763  0.75977  0.87713  Biso   1.000  H
  H30      1.0000 0.23763  0.74023  0.12287  Biso   1.000  H
  H31      1.0000 0.26237  0.25977  0.62287  Biso   1.000  H
  H32      1.0000 0.76237  0.24023  0.37713  Biso   1.000  H
  H33      1.0000 0.65135  0.71178  0.82660  Biso   1.000  H
  H34      1.0000 0.15135  0.78822  0.17340  Biso   1.000  H
  H35      1.0000 0.34865  0.21178  0.67340  Biso   1.000  H
  H36      1.0000 0.84865  0.28822  0.32660  Biso   1.000  H
  H37      1.0000 0.75436  0.66432  0.84438  Biso   1.000  H
  H38      1.0000 0.25436  0.83568  0.15562  Biso   1.000  H
  H39      1.0000 0.24564  0.16432  0.65562  Biso   1.000  H
  H40      1.0000 0.74564  0.33568  0.34438  Biso   1.000  H
  C77      1.0000 0.73230  0.94200  0.36740  Biso   1.000  C
  C78      1.0000 0.23230  0.55800  0.63260  Biso   1.000  C
  C79      1.0000 0.26770  0.44200  0.13260  Biso   1.000  C
  C80      1.0000 0.76770  0.05800  0.86740  Biso   1.000  C
  H41      1.0000 0.60003  0.89935  0.41752  Biso   1.000  H
  H42      1.0000 0.10003  0.60065  0.58248  Biso   1.000  H
  H43      1.0000 0.39997  0.39935  0.08248  Biso   1.000  H
  H44      1.0000 0.89997  0.10065  0.91752  Biso   1.000  H
  C81      1.0000 0.62160  0.75510  0.48400  Biso   1.000  C
  C82      1.0000 0.12160  0.74490  0.51600  Biso   1.000  C
  C83      1.0000 0.37840  0.25510  0.01600  Biso   1.000  C
  C84      1.0000 0.87840  0.24490  0.98400  Biso   1.000  C
  H45      1.0000 0.75631  0.80649  0.44935  Biso   1.000  H
  H46      1.0000 0.25631  0.69351  0.55065  Biso   1.000  H
  H47      1.0000 0.24369  0.30649  0.05065  Biso   1.000  H
  H48      1.0000 0.74369  0.19351  0.94935  Biso   1.000  H
  H49      1.0000 0.82882  0.68278  0.40761  Biso   1.000  H
  H50      1.0000 0.32882  0.81722  0.59239  Biso   1.000  H
  H51      1.0000 0.17118  0.18278  0.09239  Biso   1.000  H
  H52      1.0000 0.67118  0.31722  0.90761  Biso   1.000  H
  C85      1.0000 0.39540  0.95780  0.06990  Biso   1.000  C
  C86      1.0000 0.89540  0.54220  0.93010  Biso   1.000  C
  C87      1.0000 0.60460  0.45780  0.43010  Biso   1.000  C
  C88      1.0000 0.10460  0.04220  0.56990  Biso   1.000  C
  H53      1.0000 0.38130  0.88443  0.96478  Biso   1.000  H
  H54      1.0000 0.88130  0.61557  0.03522  Biso   1.000  H
  H55      1.0000 0.61870  0.38443  0.53522  Biso   1.000  H
  H56      1.0000 0.11870  0.11557  0.46478  Biso   1.000  H
  H57      1.0000 0.42711  0.00951  0.18296  Biso   1.000  H
  H58      1.0000 0.92711  0.49049  0.81704  Biso   1.000  H
  H59      1.0000 0.57289  0.50951  0.31704  Biso   1.000  H
  H60      1.0000 0.07289  0.99049  0.68296  Biso   1.000  H
  H61      1.0000 0.93013  0.56646  0.36610  Biso   1.000  H
  H62      1.0000 0.43013  0.93354  0.63390  Biso   1.000  H
  H63      1.0000 0.06987  0.06646  0.13390  Biso   1.000  H
  H64      1.0000 0.56987  0.43354  0.86610  Biso   1.000  H
  H65      1.0000 0.96097  0.44883  0.28366  Biso   1.000  H
  H66      1.0000 0.46097  0.05117  0.71634  Biso   1.000  H
  H67      1.0000 0.03903  0.94883  0.21634  Biso   1.000  H
  H68      1.0000 0.53903  0.55117  0.78366  Biso   1.000  H
  C89      1.0000 0.76860  0.96700  0.29070  Biso   1.000  C
  C90      1.0000 0.26860  0.53300  0.70930  Biso   1.000  C
  C91      1.0000 0.23140  0.46700  0.20930  Biso   1.000  C
  C92      1.0000 0.73140  0.03300  0.79070  Biso   1.000  C
  C93      1.0000 0.77070  0.97890  0.44060  Biso   1.000  C
  C94      1.0000 0.27070  0.52110  0.55940  Biso   1.000  C
  C95      1.0000 0.22930  0.47890  0.05940  Biso   1.000  C
  C96      1.0000 0.72930  0.02110  0.94060  Biso   1.000  C
  C97      1.0000 0.55410  0.69250  0.46530  Biso   1.000  C
  C98      1.0000 0.05410  0.80750  0.53470  Biso   1.000  C
  C99      1.0000 0.44590  0.19250  0.03470  Biso   1.000  C
  C100     1.0000 0.94590  0.30750  0.96530  Biso   1.000  C
  C101     1.0000 0.62250  0.78790  0.56570  Biso   1.000  C
  C102     1.0000 0.12250  0.71210  0.43430  Biso   1.000  C
  C103     1.0000 0.37750  0.28790  0.93430  Biso   1.000  C
  C104     1.0000 0.87750  0.21210  0.06570  Biso   1.000  C
  H69      1.0000 0.35863  0.00516  0.04944  Biso   1.000  H
  H70      1.0000 0.85863  0.49484  0.95056  Biso   1.000  H
  H71      1.0000 0.64137  0.50516  0.45056  Biso   1.000  H
  H72      1.0000 0.14137  0.99484  0.54944  Biso   1.000  H
  C105     1.0000 0.84370  0.02760  0.28620  Biso   1.000  C
  C106     1.0000 0.34370  0.47240  0.71380  Biso   1.000  C
  C107     1.0000 0.15630  0.52760  0.21380  Biso   1.000  C
  C108     1.0000 0.65630  0.97240  0.78620  Biso   1.000  C
  H73      1.0000 0.74247  0.94296  0.24041  Biso   1.000  H
  H74      1.0000 0.24247  0.55704  0.75959  Biso   1.000  H
  H75      1.0000 0.25753  0.44296  0.25959  Biso   1.000  H
  H76      1.0000 0.75753  0.05704  0.74041  Biso   1.000  H
  C109     1.0000 0.84570  0.03950  0.43590  Biso   1.000  C
  C110     1.0000 0.34570  0.46050  0.56410  Biso   1.000  C
  C111     1.0000 0.15430  0.53950  0.06410  Biso   1.000  C
  C112     1.0000 0.65430  0.96050  0.93590  Biso   1.000  C
  H77      1.0000 0.74528  0.96245  0.49403  Biso   1.000  H
  H78      1.0000 0.24528  0.53755  0.50597  Biso   1.000  H
  H79      1.0000 0.25472  0.46245  0.00597  Biso   1.000  H
  H80      1.0000 0.75472  0.03755  0.99403  Biso   1.000  H
  C113     1.0000 0.48910  0.66140  0.52580  Biso   1.000  C
  C114     1.0000 0.98910  0.83860  0.47420  Biso   1.000  C
  C115     1.0000 0.51090  0.16140  0.97420  Biso   1.000  C
  C116     1.0000 0.01090  0.33860  0.02580  Biso   1.000  C
  H81      1.0000 0.55178  0.66998  0.40976  Biso   1.000  H
  H82      1.0000 0.05178  0.83002  0.59024  Biso   1.000  H
  H83      1.0000 0.44822  0.16998  0.09024  Biso   1.000  H
  H84      1.0000 0.94822  0.33002  0.90976  Biso   1.000  H
  C117     1.0000 0.55850  0.75770  0.62690  Biso   1.000  C
  C118     1.0000 0.05850  0.74230  0.37310  Biso   1.000  C
  C119     1.0000 0.44150  0.25770  0.87310  Biso   1.000  C
  C120     1.0000 0.94150  0.24230  0.12690  Biso   1.000  C
  H85      1.0000 0.66803  0.83195  0.57962  Biso   1.000  H
  H86      1.0000 0.16803  0.66805  0.42038  Biso   1.000  H
  H87      1.0000 0.33197  0.33195  0.92038  Biso   1.000  H
  H88      1.0000 0.83197  0.16805  0.07962  Biso   1.000  H
  C121     1.0000 0.88260  0.06360  0.35820  Biso   1.000  C
  C122     1.0000 0.38260  0.43640  0.64180  Biso   1.000  C
  C123     1.0000 0.11740  0.56360  0.14180  Biso   1.000  C
  C124     1.0000 0.61740  0.93640  0.85820  Biso   1.000  C
  H89      1.0000 0.86852  0.04444  0.23265  Biso   1.000  H
  H90      1.0000 0.36852  0.45556  0.76735  Biso   1.000  H
  H91      1.0000 0.13148  0.54444  0.26735  Biso   1.000  H
  H92      1.0000 0.63148  0.95556  0.73265  Biso   1.000  H
  H93      1.0000 0.87157  0.06420  0.48595  Biso   1.000  H
  H94      1.0000 0.37157  0.43580  0.51405  Biso   1.000  H
  H95      1.0000 0.12843  0.56420  0.01405  Biso   1.000  H
  H96      1.0000 0.62843  0.93580  0.98595  Biso   1.000  H
  C125     1.0000 0.49140  0.69370  0.60700  Biso   1.000  C
  C126     1.0000 0.99140  0.80630  0.39300  Biso   1.000  C
  C127     1.0000 0.50860  0.19370  0.89300  Biso   1.000  C
  C128     1.0000 0.00860  0.30630  0.10700  Biso   1.000  C
  H97      1.0000 0.44304  0.61785  0.51151  Biso   1.000  H
  H98      1.0000 0.94304  0.88215  0.48849  Biso   1.000  H
  H99      1.0000 0.55696  0.11785  0.98849  Biso   1.000  H
  H100     1.0000 0.05696  0.38215  0.01151  Biso   1.000  H
  H101     1.0000 0.56045  0.78056  0.68236  Biso   1.000  H
  H102     1.0000 0.06045  0.71944  0.31764  Biso   1.000  H
  H103     1.0000 0.43955  0.28056  0.81764  Biso   1.000  H
  H104     1.0000 0.93955  0.21944  0.18236  Biso   1.000  H
  H105     1.0000 0.93429  0.10454  0.35440  Biso   1.000  H
  H106     1.0000 0.43429  0.39546  0.64560  Biso   1.000  H
  H107     1.0000 0.06571  0.60454  0.14560  Biso   1.000  H
  H108     1.0000 0.56571  0.89546  0.85440  Biso   1.000  H
  H109     1.0000 0.44731  0.67234  0.64873  Biso   1.000  H
  H110     1.0000 0.94731  0.82766  0.35127  Biso   1.000  H
  H111     1.0000 0.55269  0.17234  0.85127  Biso   1.000  H
  H112     1.0000 0.05269  0.32766  0.14873  Biso   1.000  H
  N21      1.0000 0.95700  0.76740  0.17720  Biso   1.000  N
  N22      1.0000 0.45700  0.73260  0.82280  Biso   1.000  N
  N23      1.0000 0.04300  0.26740  0.32280  Biso   1.000  N
  N24      1.0000 0.54300  0.23260  0.67720  Biso   1.000  N
  C129     1.0000 0.88120  0.77830  0.14800  Biso   1.000  C
  C130     1.0000 0.38120  0.72170  0.85200  Biso   1.000  C
  C131     1.0000 0.11880  0.27830  0.35200  Biso   1.000  C
  C132     1.0000 0.61880  0.22170  0.64800  Biso   1.000  C
  C133     1.0000 0.78560  0.79240  0.10950  Biso   1.000  C
  C134     1.0000 0.28560  0.70760  0.89050  Biso   1.000  C
  C135     1.0000 0.21440  0.29240  0.39050  Biso   1.000  C
  C136     1.0000 0.71440  0.20760  0.60950  Biso   1.000  C
  H113     1.0000 0.74841  0.83448  0.14250  Biso   1.000  H
  H114     1.0000 0.24841  0.66552  0.85750  Biso   1.000  H
  H115     1.0000 0.25159  0.33448  0.35750  Biso   1.000  H
  H116     1.0000 0.75159  0.16552  0.64250  Biso   1.000  H
  H117     1.0000 0.74859  0.73865  0.10779  Biso   1.000  H
  H118     1.0000 0.24859  0.76135  0.89221  Biso   1.000  H
  H119     1.0000 0.25141  0.23865  0.39221  Biso   1.000  H
  H120     1.0000 0.75141  0.26135  0.60779  Biso   1.000  H
  H121     1.0000 0.79486  0.81375  0.05193  Biso   1.000  H
  H122     1.0000 0.29486  0.68625  0.94807  Biso   1.000  H
  H123     1.0000 0.20514  0.31375  0.44807  Biso   1.000  H
  H124     1.0000 0.70514  0.18625  0.55193  Biso   1.000  H
