data_image0
_cell_length_a       13.4892
_cell_length_b       15.7803
_cell_length_c       15.8966
_cell_angle_alpha    90
_cell_angle_beta     90
_cell_angle_gamma    90

_symmetry_space_group_name_H-M    "P 1"
_symmetry_int_tables_number       1

loop_
  _symmetry_equiv_pos_as_xyz
  'x, y, z'

loop_
  _atom_site_label
  _atom_site_occupancy
  _atom_site_fract_x
  _atom_site_fract_y
  _atom_site_fract_z
  _atom_site_thermal_displace_type
  _atom_site_B_iso_or_equiv
  _atom_site_type_symbol
  Gd1      1.0000 0.52861  0.59533  0.13147  Biso   1.000  Gd
  Gd2      1.0000 0.02861  0.90467  0.86853  Biso   1.000  Gd
  Gd3      1.0000 0.47139  0.09533  0.36853  Biso   1.000  Gd
  Gd4      1.0000 0.97139  0.40467  0.63147  Biso   1.000  Gd
  Cu1      1.0000 0.62871  0.74133  0.25712  Biso   1.000  Cu
  Cu2      1.0000 0.12871  0.75867  0.74288  Biso   1.000  Cu
  Cu3      1.0000 0.37129  0.24133  0.24288  Biso   1.000  Cu
  Cu4      1.0000 0.87129  0.25867  0.75712  Biso   1.000  Cu
  O1       1.0000 0.54930  0.74670  0.15750  Biso   1.000  O
  O2       1.0000 0.04930  0.75330  0.84250  Biso   1.000  O
  O3       1.0000 0.45070  0.24670  0.34250  Biso   1.000  O
  O4       1.0000 0.95070  0.25330  0.65750  Biso   1.000  O
  O5       1.0000 0.66240  0.63040  0.21580  Biso   1.000  O
  O6       1.0000 0.16240  0.86960  0.78420  Biso   1.000  O
  O7       1.0000 0.33760  0.13040  0.28420  Biso   1.000  O
  O8       1.0000 0.83760  0.36960  0.71580  Biso   1.000  O
  O9       1.0000 0.51490  0.97460  0.30600  Biso   1.000  O
  O10      1.0000 0.01490  0.52540  0.69400  Biso   1.000  O
  O11      1.0000 0.48510  0.47460  0.19400  Biso   1.000  O
  O12      1.0000 0.98510  0.02540  0.80600  Biso   1.000  O
  O13      1.0000 0.69240  0.50000  0.12460  Biso   1.000  O
  O14      1.0000 0.19240  0.00000  0.87540  Biso   1.000  O
  O15      1.0000 0.30760  0.00000  0.37540  Biso   1.000  O
  O16      1.0000 0.80760  0.50000  0.62460  Biso   1.000  O
  O17      1.0000 0.46270  0.63450  0.27560  Biso   1.000  O
  O18      1.0000 0.96270  0.86550  0.72440  Biso   1.000  O
  O19      1.0000 0.53730  0.13450  0.22440  Biso   1.000  O
  O20      1.0000 0.03730  0.36550  0.77560  Biso   1.000  O
  O21      1.0000 0.36480  0.64420  0.16870  Biso   1.000  O
  O22      1.0000 0.86480  0.85580  0.83130  Biso   1.000  O
  O23      1.0000 0.63520  0.14420  0.33130  Biso   1.000  O
  O24      1.0000 0.13520  0.35580  0.66870  Biso   1.000  O
  O25      1.0000 0.30910  0.67460  0.29410  Biso   1.000  O
  O26      1.0000 0.80910  0.82540  0.70590  Biso   1.000  O
  O27      1.0000 0.69090  0.17460  0.20590  Biso   1.000  O
  O28      1.0000 0.19090  0.32540  0.79410  Biso   1.000  O
  O29      1.0000 0.42230  0.61420  0.00890  Biso   1.000  O
  O30      1.0000 0.92230  0.88580  0.99110  Biso   1.000  O
  O31      1.0000 0.57770  0.11420  0.49110  Biso   1.000  O
  O32      1.0000 0.07770  0.38580  0.50890  Biso   1.000  O
  O33      1.0000 0.50600  0.49700  0.01100  Biso   1.000  O
  O34      1.0000 0.00600  0.00300  0.98900  Biso   1.000  O
  O35      1.0000 0.49400  0.99700  0.48900  Biso   1.000  O
  O36      1.0000 0.99400  0.50300  0.51100  Biso   1.000  O
  O37      1.0000 0.40330  0.52250  0.90610  Biso   1.000  O
  O38      1.0000 0.90330  0.97750  0.09390  Biso   1.000  O
  O39      1.0000 0.59670  0.02250  0.59390  Biso   1.000  O
  O40      1.0000 0.09670  0.47750  0.40610  Biso   1.000  O
  N1       1.0000 0.60070  0.85140  0.29920  Biso   1.000  N
  N2       1.0000 0.10070  0.64860  0.70080  Biso   1.000  N
  N3       1.0000 0.39930  0.35140  0.20080  Biso   1.000  N
  N4       1.0000 0.89930  0.14860  0.79920  Biso   1.000  N
  N5       1.0000 0.71440  0.72970  0.35330  Biso   1.000  N
  N6       1.0000 0.21440  0.77030  0.64670  Biso   1.000  N
  N7       1.0000 0.28560  0.22970  0.14670  Biso   1.000  N
  N8       1.0000 0.78560  0.27030  0.85330  Biso   1.000  N
  N9       1.0000 0.37640  0.65140  0.24880  Biso   1.000  N
  N10      1.0000 0.87640  0.84860  0.75120  Biso   1.000  N
  N11      1.0000 0.62360  0.15140  0.25120  Biso   1.000  N
  N12      1.0000 0.12360  0.34860  0.74880  Biso   1.000  N
  N13      1.0000 0.44260  0.54340  0.97300  Biso   1.000  N
  N14      1.0000 0.94260  0.95660  0.02700  Biso   1.000  N
  N15      1.0000 0.55740  0.04340  0.52700  Biso   1.000  N
  N16      1.0000 0.05740  0.45660  0.47300  Biso   1.000  N
  N17      1.0000 0.63430  0.64740  0.00730  Biso   1.000  N
  N18      1.0000 0.13430  0.85260  0.99270  Biso   1.000  N
  N19      1.0000 0.36570  0.14740  0.49270  Biso   1.000  N
  N20      1.0000 0.86570  0.35260  0.50730  Biso   1.000  N
  C1       1.0000 0.50220  0.81690  0.13300  Biso   1.000  C
  C2       1.0000 0.00220  0.68310  0.86700  Biso   1.000  C
  C3       1.0000 0.49780  0.31690  0.36700  Biso   1.000  C
  C4       1.0000 0.99780  0.18310  0.63300  Biso   1.000  C
  C5       1.0000 0.46060  0.81660  0.05150  Biso   1.000  C
  C6       1.0000 0.96060  0.68340  0.94850  Biso   1.000  C
  C7       1.0000 0.53940  0.31660  0.44850  Biso   1.000  C
  C8       1.0000 0.03940  0.18340  0.55150  Biso   1.000  C
  C9       1.0000 0.40930  0.88570  0.02030  Biso   1.000  C
  C10      1.0000 0.90930  0.61430  0.97970  Biso   1.000  C
  C11      1.0000 0.59070  0.38570  0.47970  Biso   1.000  C
  C12      1.0000 0.09070  0.11430  0.52030  Biso   1.000  C
  C13      1.0000 0.39680  0.95730  0.06990  Biso   1.000  C
  C14      1.0000 0.89680  0.54270  0.93010  Biso   1.000  C
  C15      1.0000 0.60320  0.45730  0.43010  Biso   1.000  C
  C16      1.0000 0.10320  0.04270  0.56990  Biso   1.000  C
  C17      1.0000 0.43760  0.95900  0.14930  Biso   1.000  C
  C18      1.0000 0.93760  0.54100  0.85070  Biso   1.000  C
  C19      1.0000 0.56240  0.45900  0.35070  Biso   1.000  C
  C20      1.0000 0.06240  0.04100  0.64930  Biso   1.000  C
  C21      1.0000 0.49240  0.89110  0.18250  Biso   1.000  C
  C22      1.0000 0.99240  0.60890  0.81750  Biso   1.000  C
  C23      1.0000 0.50760  0.39110  0.31750  Biso   1.000  C
  C24      1.0000 0.00760  0.10890  0.68250  Biso   1.000  C
  C25      1.0000 0.53750  0.90500  0.26710  Biso   1.000  C
  C26      1.0000 0.03750  0.59500  0.73290  Biso   1.000  C
  C27      1.0000 0.46250  0.40500  0.23290  Biso   1.000  C
  C28      1.0000 0.96250  0.09500  0.76710  Biso   1.000  C
  C29      1.0000 0.65190  0.87410  0.37860  Biso   1.000  C
  C30      1.0000 0.15190  0.62590  0.62140  Biso   1.000  C
  C31      1.0000 0.34810  0.37410  0.12140  Biso   1.000  C
  C32      1.0000 0.84810  0.12590  0.87860  Biso   1.000  C
  C33      1.0000 0.73210  0.94120  0.36760  Biso   1.000  C
  C34      1.0000 0.23210  0.55880  0.63240  Biso   1.000  C
  C35      1.0000 0.26790  0.44120  0.13240  Biso   1.000  C
  C36      1.0000 0.76790  0.05880  0.86760  Biso   1.000  C
  C37      1.0000 0.76930  0.96710  0.29170  Biso   1.000  C
  C38      1.0000 0.26930  0.53290  0.70830  Biso   1.000  C
  C39      1.0000 0.23070  0.46710  0.20830  Biso   1.000  C
  C40      1.0000 0.73070  0.03290  0.79170  Biso   1.000  C
  C41      1.0000 0.84400  0.02700  0.28700  Biso   1.000  C
  C42      1.0000 0.34400  0.47300  0.71300  Biso   1.000  C
  C43      1.0000 0.15600  0.52700  0.21300  Biso   1.000  C
  C44      1.0000 0.65600  0.97300  0.78700  Biso   1.000  C
  C45      1.0000 0.88230  0.06290  0.35980  Biso   1.000  C
  C46      1.0000 0.38230  0.43710  0.64020  Biso   1.000  C
  C47      1.0000 0.11770  0.56290  0.14020  Biso   1.000  C
  C48      1.0000 0.61770  0.93710  0.85980  Biso   1.000  C
  C49      1.0000 0.84570  0.03870  0.43670  Biso   1.000  C
  C50      1.0000 0.34570  0.46130  0.56330  Biso   1.000  C
  C51      1.0000 0.15430  0.53870  0.06330  Biso   1.000  C
  C52      1.0000 0.65430  0.96130  0.93670  Biso   1.000  C
  C53      1.0000 0.77070  0.97860  0.44100  Biso   1.000  C
  C54      1.0000 0.27070  0.52140  0.55900  Biso   1.000  C
  C55      1.0000 0.22930  0.47860  0.05900  Biso   1.000  C
  C56      1.0000 0.72930  0.02140  0.94100  Biso   1.000  C
  C57      1.0000 0.69260  0.79100  0.41980  Biso   1.000  C
  C58      1.0000 0.19260  0.70900  0.58020  Biso   1.000  C
  C59      1.0000 0.30740  0.29100  0.08020  Biso   1.000  C
  C60      1.0000 0.80740  0.20900  0.91980  Biso   1.000  C
  C61      1.0000 0.62150  0.75420  0.48390  Biso   1.000  C
  C62      1.0000 0.12150  0.74580  0.51610  Biso   1.000  C
  C63      1.0000 0.37850  0.25420  0.01610  Biso   1.000  C
  C64      1.0000 0.87850  0.24580  0.98390  Biso   1.000  C
  C65      1.0000 0.55370  0.69160  0.46480  Biso   1.000  C
  C66      1.0000 0.05370  0.80840  0.53520  Biso   1.000  C
  C67      1.0000 0.44630  0.19160  0.03520  Biso   1.000  C
  C68      1.0000 0.94630  0.30840  0.96480  Biso   1.000  C
  C69      1.0000 0.48920  0.66110  0.52590  Biso   1.000  C
  C70      1.0000 0.98920  0.83890  0.47410  Biso   1.000  C
  C71      1.0000 0.51080  0.16110  0.97410  Biso   1.000  C
  C72      1.0000 0.01080  0.33890  0.02590  Biso   1.000  C
  C73      1.0000 0.49190  0.69330  0.60560  Biso   1.000  C
  C74      1.0000 0.99190  0.80670  0.39440  Biso   1.000  C
  C75      1.0000 0.50810  0.19330  0.89440  Biso   1.000  C
  C76      1.0000 0.00810  0.30670  0.10560  Biso   1.000  C
  C77      1.0000 0.55790  0.75660  0.62570  Biso   1.000  C
  C78      1.0000 0.05790  0.74340  0.37430  Biso   1.000  C
  C79      1.0000 0.44210  0.25660  0.87430  Biso   1.000  C
  C80      1.0000 0.94210  0.24340  0.12570  Biso   1.000  C
  C81      1.0000 0.62300  0.78730  0.56470  Biso   1.000  C
  C82      1.0000 0.12300  0.71270  0.43530  Biso   1.000  C
  C83      1.0000 0.37700  0.28730  0.93530  Biso   1.000  C
  C84      1.0000 0.87700  0.21270  0.06470  Biso   1.000  C
  C85      1.0000 0.78610  0.67570  0.36090  Biso   1.000  C
  C86      1.0000 0.28610  0.82430  0.63910  Biso   1.000  C
  C87      1.0000 0.21390  0.17570  0.13910  Biso   1.000  C
  C88      1.0000 0.71390  0.32430  0.86090  Biso   1.000  C
  C89      1.0000 0.80510  0.60560  0.30520  Biso   1.000  C
  C90      1.0000 0.30510  0.89440  0.69480  Biso   1.000  C
  C91      1.0000 0.19490  0.10560  0.19480  Biso   1.000  C
  C92      1.0000 0.69490  0.39440  0.80520  Biso   1.000  C
  C93      1.0000 0.88710  0.55340  0.32060  Biso   1.000  C
  C94      1.0000 0.38710  0.94660  0.67940  Biso   1.000  C
  C95      1.0000 0.11290  0.05340  0.17940  Biso   1.000  C
  C96      1.0000 0.61290  0.44660  0.82060  Biso   1.000  C
  C97      1.0000 0.90480  0.48270  0.27240  Biso   1.000  C
  C98      1.0000 0.40480  0.01730  0.72760  Biso   1.000  C
  C99      1.0000 0.09520  0.98270  0.22760  Biso   1.000  C
  C100     1.0000 0.59520  0.51730  0.77240  Biso   1.000  C
  C101     1.0000 0.84220  0.46170  0.20520  Biso   1.000  C
  C102     1.0000 0.34220  0.03830  0.79480  Biso   1.000  C
  C103     1.0000 0.15780  0.96170  0.29480  Biso   1.000  C
  C104     1.0000 0.65780  0.53830  0.70520  Biso   1.000  C
  C105     1.0000 0.76090  0.51240  0.18920  Biso   1.000  C
  C106     1.0000 0.26090  0.98760  0.81080  Biso   1.000  C
  C107     1.0000 0.23910  0.01240  0.31080  Biso   1.000  C
  C108     1.0000 0.73910  0.48760  0.68920  Biso   1.000  C
  C109     1.0000 0.74220  0.58550  0.23660  Biso   1.000  C
  C110     1.0000 0.24220  0.91450  0.76340  Biso   1.000  C
  C111     1.0000 0.25780  0.08550  0.26340  Biso   1.000  C
  C112     1.0000 0.75780  0.41450  0.73660  Biso   1.000  C
  C113     1.0000 0.70700  0.42840  0.06980  Biso   1.000  C
  C114     1.0000 0.20700  0.07160  0.93020  Biso   1.000  C
  C115     1.0000 0.29300  0.92840  0.43020  Biso   1.000  C
  C116     1.0000 0.79300  0.57160  0.56980  Biso   1.000  C
  C117     1.0000 0.66060  0.34900  0.10490  Biso   1.000  C
  C118     1.0000 0.16060  0.15100  0.89510  Biso   1.000  C
  C119     1.0000 0.33940  0.84900  0.39510  Biso   1.000  C
  C120     1.0000 0.83940  0.65100  0.60490  Biso   1.000  C
  C121     1.0000 0.66590  0.67130  0.94420  Biso   1.000  C
  C122     1.0000 0.16590  0.82870  0.05580  Biso   1.000  C
  C123     1.0000 0.33410  0.17130  0.55580  Biso   1.000  C
  C124     1.0000 0.83410  0.32870  0.44420  Biso   1.000  C
  C125     1.0000 0.70500  0.70310  0.86570  Biso   1.000  C
  C126     1.0000 0.20500  0.79690  0.13430  Biso   1.000  C
  C127     1.0000 0.29500  0.20310  0.63430  Biso   1.000  C
  C128     1.0000 0.79500  0.29690  0.36570  Biso   1.000  C
  H1       1.0000 0.46860  0.76860  0.01820  Biso   1.000  H
  H2       1.0000 0.96860  0.73140  0.98180  Biso   1.000  H
  H3       1.0000 0.53140  0.26860  0.48180  Biso   1.000  H
  H4       1.0000 0.03140  0.23140  0.51820  Biso   1.000  H
  H5       1.0000 0.38260  0.88370  0.96640  Biso   1.000  H
  H6       1.0000 0.88260  0.61630  0.03360  Biso   1.000  H
  H7       1.0000 0.61740  0.38370  0.53360  Biso   1.000  H
  H8       1.0000 0.11740  0.11630  0.46640  Biso   1.000  H
  H9       1.0000 0.36260  0.00400  0.04930  Biso   1.000  H
  H10      1.0000 0.86260  0.49600  0.95070  Biso   1.000  H
  H11      1.0000 0.63740  0.50400  0.45070  Biso   1.000  H
  H12      1.0000 0.13740  0.99600  0.54930  Biso   1.000  H
  H13      1.0000 0.42810  0.00670  0.18260  Biso   1.000  H
  H14      1.0000 0.92810  0.49330  0.81740  Biso   1.000  H
  H15      1.0000 0.57190  0.50670  0.31740  Biso   1.000  H
  H16      1.0000 0.07190  0.99330  0.68260  Biso   1.000  H
  H17      1.0000 0.60200  0.89760  0.41690  Biso   1.000  H
  H18      1.0000 0.10200  0.60240  0.58310  Biso   1.000  H
  H19      1.0000 0.39800  0.39760  0.08310  Biso   1.000  H
  H20      1.0000 0.89800  0.10240  0.91690  Biso   1.000  H
  H21      1.0000 0.74330  0.94410  0.24250  Biso   1.000  H
  H22      1.0000 0.24330  0.55590  0.75750  Biso   1.000  H
  H23      1.0000 0.25670  0.44410  0.25750  Biso   1.000  H
  H24      1.0000 0.75670  0.05590  0.74250  Biso   1.000  H
  H25      1.0000 0.86810  0.04380  0.23480  Biso   1.000  H
  H26      1.0000 0.36810  0.45620  0.76520  Biso   1.000  H
  H27      1.0000 0.13190  0.54380  0.26520  Biso   1.000  H
  H28      1.0000 0.63190  0.95620  0.73480  Biso   1.000  H
  H29      1.0000 0.93320  0.10260  0.35660  Biso   1.000  H
  H30      1.0000 0.43320  0.39740  0.64340  Biso   1.000  H
  H31      1.0000 0.06680  0.60260  0.14340  Biso   1.000  H
  H32      1.0000 0.56680  0.89740  0.85660  Biso   1.000  H
  H33      1.0000 0.87100  0.06250  0.48570  Biso   1.000  H
  H34      1.0000 0.37100  0.43750  0.51430  Biso   1.000  H
  H35      1.0000 0.12900  0.56250  0.01430  Biso   1.000  H
  H36      1.0000 0.62900  0.93750  0.98570  Biso   1.000  H
  H37      1.0000 0.74530  0.96310  0.49310  Biso   1.000  H
  H38      1.0000 0.24530  0.53690  0.50690  Biso   1.000  H
  H39      1.0000 0.25470  0.46310  0.00690  Biso   1.000  H
  H40      1.0000 0.75470  0.03690  0.99310  Biso   1.000  H
  H41      1.0000 0.75490  0.80480  0.44840  Biso   1.000  H
  H42      1.0000 0.25490  0.69520  0.55160  Biso   1.000  H
  H43      1.0000 0.24510  0.30480  0.05160  Biso   1.000  H
  H44      1.0000 0.74510  0.19520  0.94840  Biso   1.000  H
  H45      1.0000 0.55080  0.66970  0.41050  Biso   1.000  H
  H46      1.0000 0.05080  0.83030  0.58950  Biso   1.000  H
  H47      1.0000 0.44920  0.16970  0.08950  Biso   1.000  H
  H48      1.0000 0.94920  0.33030  0.91050  Biso   1.000  H
  H49      1.0000 0.44430  0.61840  0.51250  Biso   1.000  H
  H50      1.0000 0.94430  0.88160  0.48750  Biso   1.000  H
  H51      1.0000 0.55570  0.11840  0.98750  Biso   1.000  H
  H52      1.0000 0.05570  0.38160  0.01250  Biso   1.000  H
  H53      1.0000 0.44860  0.67260  0.64630  Biso   1.000  H
  H54      1.0000 0.94860  0.82740  0.35370  Biso   1.000  H
  H55      1.0000 0.55140  0.17260  0.85370  Biso   1.000  H
  H56      1.0000 0.05140  0.32740  0.14630  Biso   1.000  H
  H57      1.0000 0.55920  0.77870  0.68000  Biso   1.000  H
  H58      1.0000 0.05920  0.72130  0.32000  Biso   1.000  H
  H59      1.0000 0.44080  0.27870  0.82000  Biso   1.000  H
  H60      1.0000 0.94080  0.22130  0.18000  Biso   1.000  H
  H61      1.0000 0.66710  0.83050  0.57820  Biso   1.000  H
  H62      1.0000 0.16710  0.66950  0.42180  Biso   1.000  H
  H63      1.0000 0.33290  0.33050  0.92180  Biso   1.000  H
  H64      1.0000 0.83290  0.16950  0.07820  Biso   1.000  H
  H65      1.0000 0.82940  0.68320  0.40580  Biso   1.000  H
  H66      1.0000 0.32940  0.81680  0.59420  Biso   1.000  H
  H67      1.0000 0.17060  0.18320  0.09420  Biso   1.000  H
  H68      1.0000 0.67060  0.31680  0.90580  Biso   1.000  H
  H69      1.0000 0.92990  0.56690  0.36450  Biso   1.000  H
  H70      1.0000 0.42990  0.93310  0.63550  Biso   1.000  H
  H71      1.0000 0.07010  0.06690  0.13550  Biso   1.000  H
  H72      1.0000 0.57010  0.43310  0.86450  Biso   1.000  H
  H73      1.0000 0.95920  0.44850  0.28460  Biso   1.000  H
  H74      1.0000 0.45920  0.05150  0.71540  Biso   1.000  H
  H75      1.0000 0.04080  0.94850  0.21540  Biso   1.000  H
  H76      1.0000 0.54080  0.55150  0.78460  Biso   1.000  H
  H77      1.0000 0.85550  0.41470  0.17180  Biso   1.000  H
  H78      1.0000 0.35550  0.08530  0.82820  Biso   1.000  H
  H79      1.0000 0.14450  0.91470  0.32820  Biso   1.000  H
  H80      1.0000 0.64450  0.58530  0.67180  Biso   1.000  H
  H81      1.0000 0.77780  0.42160  0.06200  Biso   1.000  H
  H82      1.0000 0.27780  0.07840  0.93800  Biso   1.000  H
  H83      1.0000 0.22220  0.92160  0.43800  Biso   1.000  H
  H84      1.0000 0.72220  0.57840  0.56200  Biso   1.000  H
  H85      1.0000 0.67660  0.44310  0.01640  Biso   1.000  H
  H86      1.0000 0.17660  0.05690  0.98360  Biso   1.000  H
  H87      1.0000 0.32340  0.94310  0.48360  Biso   1.000  H
  H88      1.0000 0.82340  0.55690  0.51640  Biso   1.000  H
  H89      1.0000 0.59080  0.35760  0.11290  Biso   1.000  H
  H90      1.0000 0.09080  0.14240  0.88710  Biso   1.000  H
  H91      1.0000 0.40920  0.85760  0.38710  Biso   1.000  H
  H92      1.0000 0.90920  0.64240  0.61290  Biso   1.000  H
  H93      1.0000 0.67090  0.30260  0.06680  Biso   1.000  H
  H94      1.0000 0.17090  0.19740  0.93320  Biso   1.000  H
  H95      1.0000 0.32910  0.80260  0.43320  Biso   1.000  H
  H96      1.0000 0.82910  0.69740  0.56680  Biso   1.000  H
  H97      1.0000 0.69100  0.33630  0.15800  Biso   1.000  H
  H98      1.0000 0.19100  0.16370  0.84200  Biso   1.000  H
  H99      1.0000 0.30900  0.83630  0.34200  Biso   1.000  H
  H100     1.0000 0.80900  0.66370  0.65800  Biso   1.000  H
  H101     1.0000 0.74230  0.75390  0.87600  Biso   1.000  H
  H102     1.0000 0.24230  0.74610  0.12400  Biso   1.000  H
  H103     1.0000 0.25770  0.25390  0.62400  Biso   1.000  H
  H104     1.0000 0.75770  0.24610  0.37600  Biso   1.000  H
  H105     1.0000 0.74760  0.66110  0.84100  Biso   1.000  H
  H106     1.0000 0.24760  0.83890  0.15900  Biso   1.000  H
  H107     1.0000 0.25240  0.16110  0.65900  Biso   1.000  H
  H108     1.0000 0.75240  0.33890  0.34100  Biso   1.000  H
  H109     1.0000 0.65150  0.71540  0.82780  Biso   1.000  H
  H110     1.0000 0.15150  0.78460  0.17220  Biso   1.000  H
  H111     1.0000 0.34850  0.21540  0.67220  Biso   1.000  H
  H112     1.0000 0.84850  0.28460  0.32780  Biso   1.000  H
  N21      1.0000 0.95690  0.76780  0.17850  Biso   1.000  N
  N22      1.0000 0.45690  0.73220  0.82150  Biso   1.000  N
  N23      1.0000 0.04310  0.26780  0.32150  Biso   1.000  N
  N24      1.0000 0.54310  0.23220  0.67850  Biso   1.000  N
  C129     1.0000 0.88070  0.77820  0.14810  Biso   1.000  C
  C130     1.0000 0.38070  0.72180  0.85190  Biso   1.000  C
  C131     1.0000 0.11930  0.27820  0.35190  Biso   1.000  C
  C132     1.0000 0.61930  0.22180  0.64810  Biso   1.000  C
  C133     1.0000 0.78560  0.79240  0.10910  Biso   1.000  C
  C134     1.0000 0.28560  0.70760  0.89090  Biso   1.000  C
  C135     1.0000 0.21440  0.29240  0.39090  Biso   1.000  C
  C136     1.0000 0.71440  0.20760  0.60910  Biso   1.000  C
  H113     1.0000 0.78860  0.77660  0.05080  Biso   1.000  H
  H114     1.0000 0.28860  0.72340  0.94920  Biso   1.000  H
  H115     1.0000 0.21140  0.27660  0.44920  Biso   1.000  H
  H116     1.0000 0.71140  0.22340  0.55080  Biso   1.000  H
  H117     1.0000 0.73610  0.75890  0.13700  Biso   1.000  H
  H118     1.0000 0.23610  0.74110  0.86300  Biso   1.000  H
  H119     1.0000 0.26390  0.25890  0.36300  Biso   1.000  H
  H120     1.0000 0.76390  0.24110  0.63700  Biso   1.000  H
  H121     1.0000 0.76870  0.85130  0.11360  Biso   1.000  H
  H122     1.0000 0.26870  0.64870  0.88640  Biso   1.000  H
  H123     1.0000 0.23130  0.35130  0.38640  Biso   1.000  H
  H124     1.0000 0.73130  0.14870  0.61360  Biso   1.000  H
