data_image0
_cell_length_a       13.531
_cell_length_b       15.7064
_cell_length_c       15.8985
_cell_angle_alpha    90
_cell_angle_beta     90
_cell_angle_gamma    90

_symmetry_space_group_name_H-M    "P 1"
_symmetry_int_tables_number       1

loop_
  _symmetry_equiv_pos_as_xyz
  'x, y, z'

loop_
  _atom_site_label
  _atom_site_occupancy
  _atom_site_fract_x
  _atom_site_fract_y
  _atom_site_fract_z
  _atom_site_thermal_displace_type
  _atom_site_B_iso_or_equiv
  _atom_site_type_symbol
  Dy1      1.0000 0.52962  0.59650  0.13222  Biso   1.000  Dy
  Dy2      1.0000 0.02962  0.90350  0.86778  Biso   1.000  Dy
  Dy3      1.0000 0.47038  0.09650  0.36778  Biso   1.000  Dy
  Dy4      1.0000 0.97038  0.40350  0.63222  Biso   1.000  Dy
  O1       1.0000 0.54860  0.74690  0.15800  Biso   1.000  O
  O2       1.0000 0.04860  0.75310  0.84200  Biso   1.000  O
  O3       1.0000 0.45140  0.24690  0.34200  Biso   1.000  O
  O4       1.0000 0.95140  0.25310  0.65800  Biso   1.000  O
  O5       1.0000 0.66120  0.63150  0.21610  Biso   1.000  O
  O6       1.0000 0.16120  0.86850  0.78390  Biso   1.000  O
  O7       1.0000 0.33880  0.13150  0.28390  Biso   1.000  O
  O8       1.0000 0.83880  0.36850  0.71610  Biso   1.000  O
  O9       1.0000 0.69140  0.50100  0.12420  Biso   1.000  O
  O10      1.0000 0.19140  0.99900  0.87580  Biso   1.000  O
  O11      1.0000 0.30860  0.00100  0.37580  Biso   1.000  O
  O12      1.0000 0.80860  0.49900  0.62420  Biso   1.000  O
  O13      1.0000 0.46480  0.63450  0.27640  Biso   1.000  O
  O14      1.0000 0.96480  0.86550  0.72360  Biso   1.000  O
  O15      1.0000 0.53520  0.13450  0.22360  Biso   1.000  O
  O16      1.0000 0.03520  0.36550  0.77640  Biso   1.000  O
  O17      1.0000 0.36590  0.64300  0.16900  Biso   1.000  O
  O18      1.0000 0.86590  0.85700  0.83100  Biso   1.000  O
  O19      1.0000 0.63410  0.14300  0.33100  Biso   1.000  O
  O20      1.0000 0.13410  0.35700  0.66900  Biso   1.000  O
  O21      1.0000 0.42450  0.61530  0.01140  Biso   1.000  O
  O22      1.0000 0.92450  0.88470  0.98860  Biso   1.000  O
  O23      1.0000 0.57550  0.11530  0.48860  Biso   1.000  O
  O24      1.0000 0.07550  0.38470  0.51140  Biso   1.000  O
  O25      1.0000 0.50870  0.49730  0.01240  Biso   1.000  O
  O26      1.0000 0.00870  0.00270  0.98760  Biso   1.000  O
  O27      1.0000 0.49130  0.99730  0.48760  Biso   1.000  O
  O28      1.0000 0.99130  0.50270  0.51240  Biso   1.000  O
  N1       1.0000 0.63430  0.64770  0.00910  Biso   1.000  N
  N2       1.0000 0.13430  0.85230  0.99090  Biso   1.000  N
  N3       1.0000 0.36570  0.14770  0.49090  Biso   1.000  N
  N4       1.0000 0.86570  0.35230  0.50910  Biso   1.000  N
  O29      1.0000 0.51410  0.97640  0.30630  Biso   1.000  O
  O30      1.0000 0.01410  0.52360  0.69370  Biso   1.000  O
  O31      1.0000 0.48590  0.47640  0.19370  Biso   1.000  O
  O32      1.0000 0.98590  0.02360  0.80630  Biso   1.000  O
  Cu1      1.0000 0.62757  0.74214  0.25744  Biso   1.000  Cu
  Cu2      1.0000 0.12757  0.75786  0.74256  Biso   1.000  Cu
  Cu3      1.0000 0.37243  0.24214  0.24256  Biso   1.000  Cu
  Cu4      1.0000 0.87243  0.25786  0.75744  Biso   1.000  Cu
  C1       1.0000 0.50090  0.81770  0.13240  Biso   1.000  C
  C2       1.0000 0.00090  0.68230  0.86760  Biso   1.000  C
  C3       1.0000 0.49910  0.31770  0.36760  Biso   1.000  C
  C4       1.0000 0.99910  0.18230  0.63240  Biso   1.000  C
  C5       1.0000 0.74110  0.58520  0.23740  Biso   1.000  C
  C6       1.0000 0.24110  0.91480  0.76260  Biso   1.000  C
  C7       1.0000 0.25890  0.08520  0.26260  Biso   1.000  C
  C8       1.0000 0.75890  0.41480  0.73740  Biso   1.000  C
  C9       1.0000 0.76010  0.51250  0.18730  Biso   1.000  C
  C10      1.0000 0.26010  0.98750  0.81270  Biso   1.000  C
  C11      1.0000 0.23990  0.01250  0.31270  Biso   1.000  C
  C12      1.0000 0.73990  0.48750  0.68730  Biso   1.000  C
  C13      1.0000 0.70670  0.42730  0.06980  Biso   1.000  C
  C14      1.0000 0.20670  0.07270  0.93020  Biso   1.000  C
  C15      1.0000 0.29330  0.92730  0.43020  Biso   1.000  C
  C16      1.0000 0.79330  0.57270  0.56980  Biso   1.000  C
  N5       1.0000 0.37850  0.65060  0.24880  Biso   1.000  N
  N6       1.0000 0.87850  0.84940  0.75120  Biso   1.000  N
  N7       1.0000 0.62150  0.15060  0.25120  Biso   1.000  N
  N8       1.0000 0.12150  0.34940  0.74880  Biso   1.000  N
  N9       1.0000 0.44520  0.54390  0.97460  Biso   1.000  N
  N10      1.0000 0.94520  0.95610  0.02540  Biso   1.000  N
  N11      1.0000 0.55480  0.04390  0.52540  Biso   1.000  N
  N12      1.0000 0.05480  0.45610  0.47460  Biso   1.000  N
  C17      1.0000 0.66680  0.67190  0.94680  Biso   1.000  C
  C18      1.0000 0.16680  0.82810  0.05320  Biso   1.000  C
  C19      1.0000 0.33320  0.17190  0.55320  Biso   1.000  C
  C20      1.0000 0.83320  0.32810  0.44680  Biso   1.000  C
  N13      1.0000 0.60030  0.85120  0.30000  Biso   1.000  N
  N14      1.0000 0.10030  0.64880  0.70000  Biso   1.000  N
  N15      1.0000 0.39970  0.35120  0.20000  Biso   1.000  N
  N16      1.0000 0.89970  0.14880  0.80000  Biso   1.000  N
  N17      1.0000 0.71310  0.73090  0.35370  Biso   1.000  N
  N18      1.0000 0.21310  0.76910  0.64630  Biso   1.000  N
  N19      1.0000 0.28690  0.23090  0.14630  Biso   1.000  N
  N20      1.0000 0.78690  0.26910  0.85370  Biso   1.000  N
  C21      1.0000 0.46050  0.81830  0.05150  Biso   1.000  C
  C22      1.0000 0.96050  0.68170  0.94850  Biso   1.000  C
  C23      1.0000 0.53950  0.31830  0.44850  Biso   1.000  C
  C24      1.0000 0.03950  0.18170  0.55150  Biso   1.000  C
  C25      1.0000 0.49000  0.89320  0.18310  Biso   1.000  C
  C26      1.0000 0.99000  0.60680  0.81690  Biso   1.000  C
  C27      1.0000 0.51000  0.39320  0.31690  Biso   1.000  C
  C28      1.0000 0.01000  0.10680  0.68310  Biso   1.000  C
  C29      1.0000 0.80360  0.60510  0.30440  Biso   1.000  C
  C30      1.0000 0.30360  0.89490  0.69560  Biso   1.000  C
  C31      1.0000 0.19640  0.10510  0.19560  Biso   1.000  C
  C32      1.0000 0.69640  0.39490  0.80440  Biso   1.000  C
  C33      1.0000 0.84060  0.46260  0.20540  Biso   1.000  C
  C34      1.0000 0.34060  0.03740  0.79460  Biso   1.000  C
  C35      1.0000 0.15940  0.96260  0.29460  Biso   1.000  C
  C36      1.0000 0.65940  0.53740  0.70540  Biso   1.000  C
  C37      1.0000 0.66020  0.34810  0.10410  Biso   1.000  C
  C38      1.0000 0.16020  0.15190  0.89590  Biso   1.000  C
  C39      1.0000 0.33980  0.84810  0.39590  Biso   1.000  C
  C40      1.0000 0.83980  0.65190  0.60410  Biso   1.000  C
  H1       1.0000 0.77750  0.42050  0.06190  Biso   1.000  H
  H2       1.0000 0.27750  0.07950  0.93810  Biso   1.000  H
  H3       1.0000 0.22250  0.92050  0.43810  Biso   1.000  H
  H4       1.0000 0.72250  0.57950  0.56190  Biso   1.000  H
  H5       1.0000 0.67630  0.44200  0.01640  Biso   1.000  H
  H6       1.0000 0.17630  0.05800  0.98360  Biso   1.000  H
  H7       1.0000 0.32370  0.94200  0.48360  Biso   1.000  H
  H8       1.0000 0.82370  0.55800  0.51640  Biso   1.000  H
  O33      1.0000 0.31010  0.67340  0.29440  Biso   1.000  O
  O34      1.0000 0.81010  0.82660  0.70560  Biso   1.000  O
  O35      1.0000 0.68990  0.17340  0.20560  Biso   1.000  O
  O36      1.0000 0.18990  0.32660  0.79440  Biso   1.000  O
  O37      1.0000 0.40680  0.52350  0.90750  Biso   1.000  O
  O38      1.0000 0.90680  0.97650  0.09250  Biso   1.000  O
  O39      1.0000 0.59320  0.02350  0.59250  Biso   1.000  O
  O40      1.0000 0.09320  0.47650  0.40750  Biso   1.000  O
  C41      1.0000 0.70620  0.70420  0.86810  Biso   1.000  C
  C42      1.0000 0.20620  0.79580  0.13190  Biso   1.000  C
  C43      1.0000 0.29380  0.20420  0.63190  Biso   1.000  C
  C44      1.0000 0.79380  0.29580  0.36810  Biso   1.000  C
  C45      1.0000 0.53570  0.90620  0.26820  Biso   1.000  C
  C46      1.0000 0.03570  0.59380  0.73180  Biso   1.000  C
  C47      1.0000 0.46430  0.40620  0.23180  Biso   1.000  C
  C48      1.0000 0.96430  0.09380  0.76820  Biso   1.000  C
  C49      1.0000 0.64990  0.87510  0.37840  Biso   1.000  C
  C50      1.0000 0.14990  0.62490  0.62160  Biso   1.000  C
  C51      1.0000 0.35010  0.37510  0.12160  Biso   1.000  C
  C52      1.0000 0.85010  0.12490  0.87840  Biso   1.000  C
  C53      1.0000 0.69220  0.79390  0.41890  Biso   1.000  C
  C54      1.0000 0.19220  0.70610  0.58110  Biso   1.000  C
  C55      1.0000 0.30780  0.29390  0.08110  Biso   1.000  C
  C56      1.0000 0.80780  0.20610  0.91890  Biso   1.000  C
  C57      1.0000 0.78460  0.67660  0.36140  Biso   1.000  C
  C58      1.0000 0.28460  0.82340  0.63860  Biso   1.000  C
  C59      1.0000 0.21540  0.17660  0.13860  Biso   1.000  C
  C60      1.0000 0.71540  0.32340  0.86140  Biso   1.000  C
  C61      1.0000 0.40840  0.88620  0.01960  Biso   1.000  C
  C62      1.0000 0.90840  0.61380  0.98040  Biso   1.000  C
  C63      1.0000 0.59160  0.38620  0.48040  Biso   1.000  C
  C64      1.0000 0.09160  0.11380  0.51960  Biso   1.000  C
  H9       1.0000 0.46850  0.77030  0.01820  Biso   1.000  H
  H10      1.0000 0.96850  0.72970  0.98180  Biso   1.000  H
  H11      1.0000 0.53150  0.27030  0.48180  Biso   1.000  H
  H12      1.0000 0.03150  0.22970  0.51820  Biso   1.000  H
  C65      1.0000 0.43600  0.96060  0.14960  Biso   1.000  C
  C66      1.0000 0.93600  0.53940  0.85040  Biso   1.000  C
  C67      1.0000 0.56400  0.46060  0.35040  Biso   1.000  C
  C68      1.0000 0.06400  0.03940  0.64960  Biso   1.000  C
  C69      1.0000 0.88650  0.55350  0.32050  Biso   1.000  C
  C70      1.0000 0.38650  0.94650  0.67950  Biso   1.000  C
  C71      1.0000 0.11350  0.05350  0.17950  Biso   1.000  C
  C72      1.0000 0.61350  0.44650  0.82050  Biso   1.000  C
  C73      1.0000 0.90340  0.48210  0.27170  Biso   1.000  C
  C74      1.0000 0.40340  0.01790  0.72830  Biso   1.000  C
  C75      1.0000 0.09660  0.98210  0.22830  Biso   1.000  C
  C76      1.0000 0.59660  0.51790  0.77170  Biso   1.000  C
  H13      1.0000 0.85390  0.41550  0.17200  Biso   1.000  H
  H14      1.0000 0.35390  0.08450  0.82800  Biso   1.000  H
  H15      1.0000 0.14610  0.91550  0.32800  Biso   1.000  H
  H16      1.0000 0.64610  0.58450  0.67200  Biso   1.000  H
  H17      1.0000 0.59030  0.35660  0.11200  Biso   1.000  H
  H18      1.0000 0.09030  0.14340  0.88800  Biso   1.000  H
  H19      1.0000 0.40970  0.85660  0.38800  Biso   1.000  H
  H20      1.0000 0.90970  0.64340  0.61200  Biso   1.000  H
  H21      1.0000 0.67050  0.30170  0.06590  Biso   1.000  H
  H22      1.0000 0.17050  0.19830  0.93410  Biso   1.000  H
  H23      1.0000 0.32950  0.80170  0.43410  Biso   1.000  H
  H24      1.0000 0.82950  0.69830  0.56590  Biso   1.000  H
  H25      1.0000 0.69060  0.33530  0.15720  Biso   1.000  H
  H26      1.0000 0.19060  0.16470  0.84280  Biso   1.000  H
  H27      1.0000 0.30940  0.83530  0.34280  Biso   1.000  H
  H28      1.0000 0.80940  0.66470  0.65720  Biso   1.000  H
  H29      1.0000 0.74350  0.75490  0.87840  Biso   1.000  H
  H30      1.0000 0.24350  0.74510  0.12160  Biso   1.000  H
  H31      1.0000 0.25650  0.25490  0.62160  Biso   1.000  H
  H32      1.0000 0.75650  0.24510  0.37840  Biso   1.000  H
  H33      1.0000 0.74870  0.66220  0.84340  Biso   1.000  H
  H34      1.0000 0.24870  0.83780  0.15660  Biso   1.000  H
  H35      1.0000 0.25130  0.16220  0.65660  Biso   1.000  H
  H36      1.0000 0.75130  0.33780  0.34340  Biso   1.000  H
  H37      1.0000 0.65260  0.71650  0.83020  Biso   1.000  H
  H38      1.0000 0.15260  0.78350  0.16980  Biso   1.000  H
  H39      1.0000 0.34740  0.21650  0.66980  Biso   1.000  H
  H40      1.0000 0.84740  0.28350  0.33020  Biso   1.000  H
  C77      1.0000 0.73170  0.94210  0.36740  Biso   1.000  C
  C78      1.0000 0.23170  0.55790  0.63260  Biso   1.000  C
  C79      1.0000 0.26830  0.44210  0.13260  Biso   1.000  C
  C80      1.0000 0.76830  0.05790  0.86740  Biso   1.000  C
  H41      1.0000 0.60000  0.89850  0.41670  Biso   1.000  H
  H42      1.0000 0.10000  0.60150  0.58330  Biso   1.000  H
  H43      1.0000 0.40000  0.39850  0.08330  Biso   1.000  H
  H44      1.0000 0.90000  0.10150  0.91670  Biso   1.000  H
  C81      1.0000 0.62140  0.75580  0.48390  Biso   1.000  C
  C82      1.0000 0.12140  0.74420  0.51610  Biso   1.000  C
  C83      1.0000 0.37860  0.25580  0.01610  Biso   1.000  C
  C84      1.0000 0.87860  0.24420  0.98390  Biso   1.000  C
  H45      1.0000 0.75440  0.80770  0.44760  Biso   1.000  H
  H46      1.0000 0.25440  0.69230  0.55240  Biso   1.000  H
  H47      1.0000 0.24560  0.30770  0.05240  Biso   1.000  H
  H48      1.0000 0.74560  0.19230  0.94760  Biso   1.000  H
  H49      1.0000 0.82800  0.68410  0.40630  Biso   1.000  H
  H50      1.0000 0.32800  0.81590  0.59370  Biso   1.000  H
  H51      1.0000 0.17200  0.18410  0.09370  Biso   1.000  H
  H52      1.0000 0.67200  0.31590  0.90630  Biso   1.000  H
  C85      1.0000 0.39590  0.95820  0.06900  Biso   1.000  C
  C86      1.0000 0.89590  0.54180  0.93100  Biso   1.000  C
  C87      1.0000 0.60410  0.45820  0.43100  Biso   1.000  C
  C88      1.0000 0.10410  0.04180  0.56900  Biso   1.000  C
  H53      1.0000 0.38170  0.88420  0.96570  Biso   1.000  H
  H54      1.0000 0.88170  0.61580  0.03430  Biso   1.000  H
  H55      1.0000 0.61830  0.38420  0.53430  Biso   1.000  H
  H56      1.0000 0.11830  0.11580  0.46570  Biso   1.000  H
  H57      1.0000 0.42650  0.00830  0.18290  Biso   1.000  H
  H58      1.0000 0.92650  0.49170  0.81710  Biso   1.000  H
  H59      1.0000 0.57350  0.50830  0.31710  Biso   1.000  H
  H60      1.0000 0.07350  0.99170  0.68290  Biso   1.000  H
  H61      1.0000 0.92930  0.56700  0.36440  Biso   1.000  H
  H62      1.0000 0.42930  0.93300  0.63560  Biso   1.000  H
  H63      1.0000 0.07070  0.06700  0.13560  Biso   1.000  H
  H64      1.0000 0.57070  0.43300  0.86440  Biso   1.000  H
  H65      1.0000 0.95770  0.44790  0.28390  Biso   1.000  H
  H66      1.0000 0.45770  0.05210  0.71610  Biso   1.000  H
  H67      1.0000 0.04230  0.94790  0.21610  Biso   1.000  H
  H68      1.0000 0.54230  0.55210  0.78390  Biso   1.000  H
  C89      1.0000 0.76950  0.96750  0.29030  Biso   1.000  C
  C90      1.0000 0.26950  0.53250  0.70970  Biso   1.000  C
  C91      1.0000 0.23050  0.46750  0.20970  Biso   1.000  C
  C92      1.0000 0.73050  0.03250  0.79030  Biso   1.000  C
  C93      1.0000 0.77050  0.97970  0.44140  Biso   1.000  C
  C94      1.0000 0.27050  0.52030  0.55860  Biso   1.000  C
  C95      1.0000 0.22950  0.47970  0.05860  Biso   1.000  C
  C96      1.0000 0.72950  0.02030  0.94140  Biso   1.000  C
  C97      1.0000 0.55240  0.69220  0.46530  Biso   1.000  C
  C98      1.0000 0.05240  0.80780  0.53470  Biso   1.000  C
  C99      1.0000 0.44760  0.19220  0.03470  Biso   1.000  C
  C100     1.0000 0.94760  0.30780  0.96530  Biso   1.000  C
  C101     1.0000 0.62170  0.78750  0.56620  Biso   1.000  C
  C102     1.0000 0.12170  0.71250  0.43380  Biso   1.000  C
  C103     1.0000 0.37830  0.28750  0.93380  Biso   1.000  C
  C104     1.0000 0.87830  0.21250  0.06620  Biso   1.000  C
  H69      1.0000 0.36170  0.00490  0.04840  Biso   1.000  H
  H70      1.0000 0.86170  0.49510  0.95160  Biso   1.000  H
  H71      1.0000 0.63830  0.50490  0.45160  Biso   1.000  H
  H72      1.0000 0.13830  0.99510  0.54840  Biso   1.000  H
  C105     1.0000 0.84290  0.02730  0.28490  Biso   1.000  C
  C106     1.0000 0.34290  0.47270  0.71510  Biso   1.000  C
  C107     1.0000 0.15710  0.52730  0.21510  Biso   1.000  C
  C108     1.0000 0.65710  0.97270  0.78490  Biso   1.000  C
  H73      1.0000 0.74350  0.94440  0.24120  Biso   1.000  H
  H74      1.0000 0.24350  0.55560  0.75880  Biso   1.000  H
  H75      1.0000 0.25650  0.44440  0.25880  Biso   1.000  H
  H76      1.0000 0.75650  0.05560  0.74120  Biso   1.000  H
  C109     1.0000 0.84590  0.04020  0.43560  Biso   1.000  C
  C110     1.0000 0.34590  0.45980  0.56440  Biso   1.000  C
  C111     1.0000 0.15410  0.54020  0.06440  Biso   1.000  C
  C112     1.0000 0.65410  0.95980  0.93560  Biso   1.000  C
  H77      1.0000 0.74510  0.96420  0.49360  Biso   1.000  H
  H78      1.0000 0.24510  0.53580  0.50640  Biso   1.000  H
  H79      1.0000 0.25490  0.46420  0.00640  Biso   1.000  H
  H80      1.0000 0.75490  0.03580  0.99360  Biso   1.000  H
  C113     1.0000 0.48870  0.66050  0.52740  Biso   1.000  C
  C114     1.0000 0.98870  0.83950  0.47260  Biso   1.000  C
  C115     1.0000 0.51130  0.16050  0.97260  Biso   1.000  C
  C116     1.0000 0.01130  0.33950  0.02740  Biso   1.000  C
  H81      1.0000 0.54950  0.67030  0.41110  Biso   1.000  H
  H82      1.0000 0.04950  0.82970  0.58890  Biso   1.000  H
  H83      1.0000 0.45050  0.17030  0.08890  Biso   1.000  H
  H84      1.0000 0.95050  0.32970  0.91110  Biso   1.000  H
  C117     1.0000 0.55890  0.75780  0.62800  Biso   1.000  C
  C118     1.0000 0.05890  0.74220  0.37200  Biso   1.000  C
  C119     1.0000 0.44110  0.25780  0.87200  Biso   1.000  C
  C120     1.0000 0.94110  0.24220  0.12800  Biso   1.000  C
  H85      1.0000 0.66580  0.83070  0.57970  Biso   1.000  H
  H86      1.0000 0.16580  0.66930  0.42030  Biso   1.000  H
  H87      1.0000 0.33420  0.33070  0.92030  Biso   1.000  H
  H88      1.0000 0.83420  0.16930  0.07970  Biso   1.000  H
  C121     1.0000 0.88220  0.06310  0.35710  Biso   1.000  C
  C122     1.0000 0.38220  0.43690  0.64290  Biso   1.000  C
  C123     1.0000 0.11780  0.56310  0.14290  Biso   1.000  C
  C124     1.0000 0.61780  0.93690  0.85710  Biso   1.000  C
  H89      1.0000 0.86700  0.04410  0.23270  Biso   1.000  H
  H90      1.0000 0.36700  0.45590  0.76730  Biso   1.000  H
  H91      1.0000 0.13300  0.54410  0.26730  Biso   1.000  H
  H92      1.0000 0.63300  0.95590  0.73270  Biso   1.000  H
  H93      1.0000 0.87130  0.06400  0.48460  Biso   1.000  H
  H94      1.0000 0.37130  0.43600  0.51540  Biso   1.000  H
  H95      1.0000 0.12870  0.56400  0.01540  Biso   1.000  H
  H96      1.0000 0.62870  0.93600  0.98460  Biso   1.000  H
  C125     1.0000 0.49190  0.69400  0.60680  Biso   1.000  C
  C126     1.0000 0.99190  0.80600  0.39320  Biso   1.000  C
  C127     1.0000 0.50810  0.19400  0.89320  Biso   1.000  C
  C128     1.0000 0.00810  0.30600  0.10680  Biso   1.000  C
  H97      1.0000 0.44380  0.61780  0.51400  Biso   1.000  H
  H98      1.0000 0.94380  0.88220  0.48600  Biso   1.000  H
  H99      1.0000 0.55620  0.11780  0.98600  Biso   1.000  H
  H100     1.0000 0.05620  0.38220  0.01400  Biso   1.000  H
  H101     1.0000 0.56020  0.77990  0.68230  Biso   1.000  H
  H102     1.0000 0.06020  0.72010  0.31770  Biso   1.000  H
  H103     1.0000 0.43980  0.27990  0.81770  Biso   1.000  H
  H104     1.0000 0.93980  0.22010  0.18230  Biso   1.000  H
  H105     1.0000 0.93300  0.10280  0.35400  Biso   1.000  H
  H106     1.0000 0.43300  0.39720  0.64600  Biso   1.000  H
  H107     1.0000 0.06700  0.60280  0.14600  Biso   1.000  H
  H108     1.0000 0.56700  0.89720  0.85400  Biso   1.000  H
  H109     1.0000 0.44860  0.67340  0.64740  Biso   1.000  H
  H110     1.0000 0.94860  0.82660  0.35260  Biso   1.000  H
  H111     1.0000 0.55140  0.17340  0.85260  Biso   1.000  H
  H112     1.0000 0.05140  0.32660  0.14740  Biso   1.000  H
  N21      1.0000 0.95900  0.76770  0.17770  Biso   1.000  N
  N22      1.0000 0.45900  0.73230  0.82230  Biso   1.000  N
  N23      1.0000 0.04100  0.26770  0.32230  Biso   1.000  N
  N24      1.0000 0.54100  0.23230  0.67770  Biso   1.000  N
  C129     1.0000 0.88110  0.77790  0.14760  Biso   1.000  C
  C130     1.0000 0.38110  0.72210  0.85240  Biso   1.000  C
  C131     1.0000 0.11890  0.27790  0.35240  Biso   1.000  C
  C132     1.0000 0.61890  0.22210  0.64760  Biso   1.000  C
  C133     1.0000 0.78560  0.79350  0.10950  Biso   1.000  C
  C134     1.0000 0.28560  0.70650  0.89050  Biso   1.000  C
  C135     1.0000 0.21440  0.29350  0.39050  Biso   1.000  C
  C136     1.0000 0.71440  0.20650  0.60950  Biso   1.000  C
  H113     1.0000 0.78860  0.77780  0.05120  Biso   1.000  H
  H114     1.0000 0.28860  0.72220  0.94880  Biso   1.000  H
  H115     1.0000 0.21140  0.27780  0.44880  Biso   1.000  H
  H116     1.0000 0.71140  0.22220  0.55120  Biso   1.000  H
  H117     1.0000 0.73610  0.76010  0.13740  Biso   1.000  H
  H118     1.0000 0.23610  0.73990  0.86260  Biso   1.000  H
  H119     1.0000 0.26390  0.26010  0.36260  Biso   1.000  H
  H120     1.0000 0.76390  0.23990  0.63740  Biso   1.000  H
  H121     1.0000 0.76870  0.85250  0.11390  Biso   1.000  H
  H122     1.0000 0.26870  0.64750  0.88610  Biso   1.000  H
  H123     1.0000 0.23130  0.35250  0.38610  Biso   1.000  H
  H124     1.0000 0.73130  0.14750  0.61390  Biso   1.000  H
