data_image0
_cell_length_a       10.48
_cell_length_b       10.72
_cell_length_c       25.027
_cell_angle_alpha    90
_cell_angle_beta     93.849
_cell_angle_gamma    90

_symmetry_space_group_name_H-M    "P 1"
_symmetry_int_tables_number       1

loop_
  _symmetry_equiv_pos_as_xyz
  'x, y, z'

loop_
  _atom_site_label
  _atom_site_occupancy
  _atom_site_fract_x
  _atom_site_fract_y
  _atom_site_fract_z
  _atom_site_thermal_displace_type
  _atom_site_B_iso_or_equiv
  _atom_site_type_symbol
  Cu1      1.0000 0.01986  0.17501  0.14276  Biso   1.000  Cu
  Cu2      1.0000 0.98014  0.67501  0.35724  Biso   1.000  Cu
  Cu3      1.0000 0.98014  0.82499  0.85724  Biso   1.000  Cu
  Cu4      1.0000 0.01986  0.32499  0.64276  Biso   1.000  Cu
  O1       1.0000 0.10380  0.11200  0.98530  Biso   1.000  O
  O2       1.0000 0.89620  0.61200  0.51470  Biso   1.000  O
  O3       1.0000 0.89620  0.88800  0.01470  Biso   1.000  O
  O4       1.0000 0.10380  0.38800  0.48530  Biso   1.000  O
  O5       1.0000 0.98280  0.14440  0.30850  Biso   1.000  O
  O6       1.0000 0.01720  0.64440  0.19150  Biso   1.000  O
  O7       1.0000 0.01720  0.85560  0.69150  Biso   1.000  O
  O8       1.0000 0.98280  0.35560  0.80850  Biso   1.000  O
  N1       1.0000 0.89470  0.32570  0.14060  Biso   1.000  N
  N2       1.0000 0.10530  0.82570  0.35940  Biso   1.000  N
  N3       1.0000 0.10530  0.67430  0.85940  Biso   1.000  N
  N4       1.0000 0.89470  0.17430  0.64060  Biso   1.000  N
  N5       1.0000 0.72060  0.52270  0.13640  Biso   1.000  N
  N6       1.0000 0.27940  0.02270  0.36360  Biso   1.000  N
  N7       1.0000 0.27940  0.47730  0.86360  Biso   1.000  N
  N8       1.0000 0.72060  0.97730  0.63640  Biso   1.000  N
  N9       1.0000 0.13640  0.01930  0.14630  Biso   1.000  N
  N10      1.0000 0.86360  0.51930  0.35370  Biso   1.000  N
  N11      1.0000 0.86360  0.98070  0.85370  Biso   1.000  N
  N12      1.0000 0.13640  0.48070  0.64630  Biso   1.000  N
  N13      1.0000 0.30300  0.81760  0.14600  Biso   1.000  N
  N14      1.0000 0.69700  0.31760  0.35400  Biso   1.000  N
  N15      1.0000 0.69700  0.18240  0.85400  Biso   1.000  N
  N16      1.0000 0.30300  0.68240  0.64600  Biso   1.000  N
  N17      1.0000 0.02490  0.18200  0.06600  Biso   1.000  N
  N18      1.0000 0.97510  0.68200  0.43400  Biso   1.000  N
  N19      1.0000 0.97510  0.81800  0.93400  Biso   1.000  N
  N20      1.0000 0.02490  0.31800  0.56600  Biso   1.000  N
  N21      1.0000 0.03130  0.18250  0.22040  Biso   1.000  N
  N22      1.0000 0.96870  0.68250  0.27960  Biso   1.000  N
  N23      1.0000 0.96870  0.81750  0.77960  Biso   1.000  N
  N24      1.0000 0.03130  0.31750  0.72040  Biso   1.000  N
  C1       1.0000 0.89520  0.41370  0.10290  Biso   1.000  C
  C2       1.0000 0.10480  0.91370  0.39710  Biso   1.000  C
  C3       1.0000 0.10480  0.58630  0.89710  Biso   1.000  C
  C4       1.0000 0.89520  0.08630  0.60290  Biso   1.000  C
  C5       1.0000 0.80780  0.51190  0.10060  Biso   1.000  C
  C6       1.0000 0.19220  0.01190  0.39940  Biso   1.000  C
  C7       1.0000 0.19220  0.48810  0.89940  Biso   1.000  C
  C8       1.0000 0.80780  0.98810  0.60060  Biso   1.000  C
  C9       1.0000 0.72030  0.43190  0.17310  Biso   1.000  C
  C10      1.0000 0.27970  0.93190  0.32690  Biso   1.000  C
  C11      1.0000 0.27970  0.56810  0.82690  Biso   1.000  C
  C12      1.0000 0.72030  0.06810  0.67310  Biso   1.000  C
  C13      1.0000 0.80530  0.33550  0.17660  Biso   1.000  C
  C14      1.0000 0.19470  0.83550  0.32340  Biso   1.000  C
  C15      1.0000 0.19470  0.66450  0.82340  Biso   1.000  C
  C16      1.0000 0.80530  0.16450  0.67660  Biso   1.000  C
  C17      1.0000 0.81140  0.60900  0.05740  Biso   1.000  C
  C18      1.0000 0.18860  0.10900  0.44260  Biso   1.000  C
  C19      1.0000 0.18860  0.39100  0.94260  Biso   1.000  C
  C20      1.0000 0.81140  0.89100  0.55740  Biso   1.000  C
  C21      1.0000 0.11450  0.92250  0.11380  Biso   1.000  C
  C22      1.0000 0.88550  0.42250  0.38620  Biso   1.000  C
  C23      1.0000 0.88550  0.07750  0.88620  Biso   1.000  C
  C24      1.0000 0.11450  0.57750  0.61380  Biso   1.000  C
  C25      1.0000 0.19550  0.81980  0.11360  Biso   1.000  C
  C26      1.0000 0.80450  0.31980  0.38640  Biso   1.000  C
  C27      1.0000 0.80450  0.18020  0.88640  Biso   1.000  C
  C28      1.0000 0.19550  0.68020  0.61360  Biso   1.000  C
  C29      1.0000 0.32380  0.91340  0.17890  Biso   1.000  C
  C30      1.0000 0.67620  0.41340  0.32110  Biso   1.000  C
  C31      1.0000 0.67620  0.08660  0.82110  Biso   1.000  C
  C32      1.0000 0.32380  0.58660  0.67890  Biso   1.000  C
  C33      1.0000 0.24110  0.01330  0.18000  Biso   1.000  C
  C34      1.0000 0.75890  0.51330  0.32000  Biso   1.000  C
  C35      1.0000 0.75890  0.98670  0.82000  Biso   1.000  C
  C36      1.0000 0.24110  0.48670  0.68000  Biso   1.000  C
  C37      1.0000 0.16260  0.71170  0.07730  Biso   1.000  C
  C38      1.0000 0.83740  0.21170  0.42270  Biso   1.000  C
  C39      1.0000 0.83740  0.28830  0.92270  Biso   1.000  C
  C40      1.0000 0.16260  0.78830  0.57730  Biso   1.000  C
  C41      1.0000 0.06450  0.14600  0.02630  Biso   1.000  C
  C42      1.0000 0.93550  0.64600  0.47370  Biso   1.000  C
  C43      1.0000 0.93550  0.85400  0.97370  Biso   1.000  C
  C44      1.0000 0.06450  0.35400  0.52630  Biso   1.000  C
  C45      1.0000 0.00550  0.16190  0.26330  Biso   1.000  C
  C46      1.0000 0.99450  0.66190  0.23670  Biso   1.000  C
  C47      1.0000 0.99450  0.83810  0.73670  Biso   1.000  C
  C48      1.0000 0.00550  0.33810  0.76330  Biso   1.000  C
  Cu5      1.0000 0.52126  0.67233  0.14248  Biso   1.000  Cu
  Cu6      1.0000 0.47874  0.17233  0.35752  Biso   1.000  Cu
  Cu7      1.0000 0.47874  0.32767  0.85752  Biso   1.000  Cu
  Cu8      1.0000 0.52126  0.82767  0.64248  Biso   1.000  Cu
  O9       1.0000 0.39200  0.61400  0.98410  Biso   1.000  O
  O10      1.0000 0.60800  0.11400  0.51590  Biso   1.000  O
  O11      1.0000 0.60800  0.38600  0.01590  Biso   1.000  O
  O12      1.0000 0.39200  0.88600  0.48410  Biso   1.000  O
  O13      1.0000 0.45090  0.66740  0.30350  Biso   1.000  O
  O14      1.0000 0.54910  0.16740  0.19650  Biso   1.000  O
  O15      1.0000 0.54910  0.33260  0.69650  Biso   1.000  O
  O16      1.0000 0.45090  0.83260  0.80350  Biso   1.000  O
  N25      1.0000 0.64330  0.82600  0.14230  Biso   1.000  N
  N26      1.0000 0.35670  0.32600  0.35770  Biso   1.000  N
  N27      1.0000 0.35670  0.17400  0.85770  Biso   1.000  N
  N28      1.0000 0.64330  0.67400  0.64230  Biso   1.000  N
  N29      1.0000 0.81890  0.02110  0.13920  Biso   1.000  N
  N30      1.0000 0.18110  0.52110  0.36080  Biso   1.000  N
  N31      1.0000 0.18110  0.97890  0.86080  Biso   1.000  N
  N32      1.0000 0.81890  0.47890  0.63920  Biso   1.000  N
  N33      1.0000 0.40270  0.51840  0.14440  Biso   1.000  N
  N34      1.0000 0.59730  0.01840  0.35560  Biso   1.000  N
  N35      1.0000 0.59730  0.48160  0.85560  Biso   1.000  N
  N36      1.0000 0.40270  0.98160  0.64440  Biso   1.000  N
  N37      1.0000 0.23890  0.31380  0.14410  Biso   1.000  N
  N38      1.0000 0.76110  0.81380  0.35590  Biso   1.000  N
  N39      1.0000 0.76110  0.68620  0.85590  Biso   1.000  N
  N40      1.0000 0.23890  0.18620  0.64410  Biso   1.000  N
  N41      1.0000 0.49280  0.68310  0.06560  Biso   1.000  N
  N42      1.0000 0.50720  0.18310  0.43440  Biso   1.000  N
  N43      1.0000 0.50720  0.31690  0.93440  Biso   1.000  N
  N44      1.0000 0.49280  0.81690  0.56560  Biso   1.000  N
  N45      1.0000 0.54000  0.67100  0.22020  Biso   1.000  N
  N46      1.0000 0.46000  0.17100  0.27980  Biso   1.000  N
  N47      1.0000 0.46000  0.32900  0.77980  Biso   1.000  N
  N48      1.0000 0.54000  0.82900  0.72020  Biso   1.000  N
  C49      1.0000 0.63420  0.91160  0.10400  Biso   1.000  C
  C50      1.0000 0.36580  0.41160  0.39600  Biso   1.000  C
  C51      1.0000 0.36580  0.08840  0.89600  Biso   1.000  C
  C52      1.0000 0.63420  0.58840  0.60400  Biso   1.000  C
  C53      1.0000 0.72150  0.01050  0.10180  Biso   1.000  C
  C54      1.0000 0.27850  0.51050  0.39820  Biso   1.000  C
  C55      1.0000 0.27850  0.98950  0.89820  Biso   1.000  C
  C56      1.0000 0.72150  0.48950  0.60180  Biso   1.000  C
  C57      1.0000 0.82710  0.93240  0.17660  Biso   1.000  C
  C58      1.0000 0.17290  0.43240  0.32340  Biso   1.000  C
  C59      1.0000 0.17290  0.06760  0.82340  Biso   1.000  C
  C60      1.0000 0.82710  0.56760  0.67660  Biso   1.000  C
  C61      1.0000 0.74140  0.83640  0.17920  Biso   1.000  C
  C62      1.0000 0.25860  0.33640  0.32080  Biso   1.000  C
  C63      1.0000 0.25860  0.16360  0.82080  Biso   1.000  C
  C64      1.0000 0.74140  0.66360  0.67920  Biso   1.000  C
  C65      1.0000 0.70640  0.10540  0.05830  Biso   1.000  C
  C66      1.0000 0.29360  0.60540  0.44170  Biso   1.000  C
  C67      1.0000 0.29360  0.89460  0.94170  Biso   1.000  C
  C68      1.0000 0.70640  0.39460  0.55830  Biso   1.000  C
  C69      1.0000 0.41730  0.41980  0.11320  Biso   1.000  C
  C70      1.0000 0.58270  0.91980  0.38680  Biso   1.000  C
  C71      1.0000 0.58270  0.58020  0.88680  Biso   1.000  C
  C72      1.0000 0.41730  0.08020  0.61320  Biso   1.000  C
  C73      1.0000 0.33800  0.31590  0.11280  Biso   1.000  C
  C74      1.0000 0.66200  0.81590  0.38720  Biso   1.000  C
  C75      1.0000 0.66200  0.68410  0.88720  Biso   1.000  C
  C76      1.0000 0.33800  0.18410  0.61280  Biso   1.000  C
  C77      1.0000 0.22390  0.41320  0.17540  Biso   1.000  C
  C78      1.0000 0.77610  0.91320  0.32460  Biso   1.000  C
  C79      1.0000 0.77610  0.58680  0.82460  Biso   1.000  C
  C80      1.0000 0.22390  0.08680  0.67540  Biso   1.000  C
  C81      1.0000 0.30460  0.51340  0.17600  Biso   1.000  C
  C82      1.0000 0.69540  0.01340  0.32400  Biso   1.000  C
  C83      1.0000 0.69540  0.48660  0.82400  Biso   1.000  C
  C84      1.0000 0.30460  0.98660  0.67600  Biso   1.000  C
  C85      1.0000 0.36300  0.20620  0.07810  Biso   1.000  C
  C86      1.0000 0.63700  0.70620  0.42190  Biso   1.000  C
  C87      1.0000 0.63700  0.79380  0.92190  Biso   1.000  C
  C88      1.0000 0.36300  0.29380  0.57810  Biso   1.000  C
  C89      1.0000 0.44400  0.64760  0.02580  Biso   1.000  C
  C90      1.0000 0.55600  0.14760  0.47420  Biso   1.000  C
  C91      1.0000 0.55600  0.35240  0.97420  Biso   1.000  C
  C92      1.0000 0.44400  0.85240  0.52580  Biso   1.000  C
  C93      1.0000 0.49420  0.67030  0.26050  Biso   1.000  C
  C94      1.0000 0.50580  0.17030  0.23950  Biso   1.000  C
  C95      1.0000 0.50580  0.32970  0.73950  Biso   1.000  C
  C96      1.0000 0.49420  0.82970  0.76050  Biso   1.000  C
  H1       1.0000 0.95900  0.40930  0.07610  Biso   1.000  H
  H2       1.0000 0.04100  0.90930  0.42390  Biso   1.000  H
  H3       1.0000 0.04100  0.59070  0.92390  Biso   1.000  H
  H4       1.0000 0.95900  0.09070  0.57610  Biso   1.000  H
  H5       1.0000 0.65470  0.43510  0.19920  Biso   1.000  H
  H6       1.0000 0.34530  0.93510  0.30080  Biso   1.000  H
  H7       1.0000 0.34530  0.56490  0.80080  Biso   1.000  H
  H8       1.0000 0.65470  0.06490  0.69920  Biso   1.000  H
  H9       1.0000 0.80130  0.27340  0.20520  Biso   1.000  H
  H10      1.0000 0.19870  0.77340  0.29480  Biso   1.000  H
  H11      1.0000 0.19870  0.72660  0.79480  Biso   1.000  H
  H12      1.0000 0.80130  0.22660  0.70520  Biso   1.000  H
  H13      1.0000 0.82690  0.69120  0.07370  Biso   1.000  H
  H14      1.0000 0.17310  0.19120  0.42630  Biso   1.000  H
  H15      1.0000 0.17310  0.30880  0.92630  Biso   1.000  H
  H16      1.0000 0.82690  0.80880  0.57370  Biso   1.000  H
  H17      1.0000 0.88040  0.58930  0.03420  Biso   1.000  H
  H18      1.0000 0.11960  0.08930  0.46580  Biso   1.000  H
  H19      1.0000 0.11960  0.41070  0.96580  Biso   1.000  H
  H20      1.0000 0.88040  0.91070  0.53420  Biso   1.000  H
  H21      1.0000 0.72950  0.60970  0.03610  Biso   1.000  H
  H22      1.0000 0.27050  0.10970  0.46390  Biso   1.000  H
  H23      1.0000 0.27050  0.39030  0.96390  Biso   1.000  H
  H24      1.0000 0.72950  0.89030  0.53610  Biso   1.000  H
  H25      1.0000 0.03820  0.92360  0.08900  Biso   1.000  H
  H26      1.0000 0.96180  0.42360  0.41100  Biso   1.000  H
  H27      1.0000 0.96180  0.07640  0.91100  Biso   1.000  H
  H28      1.0000 0.03820  0.57640  0.58900  Biso   1.000  H
  H29      1.0000 0.40090  0.91330  0.20330  Biso   1.000  H
  H30      1.0000 0.59910  0.41330  0.29670  Biso   1.000  H
  H31      1.0000 0.59910  0.08670  0.79670  Biso   1.000  H
  H32      1.0000 0.40090  0.58670  0.70330  Biso   1.000  H
  H33      1.0000 0.25920  0.08080  0.20580  Biso   1.000  H
  H34      1.0000 0.74080  0.58080  0.29420  Biso   1.000  H
  H35      1.0000 0.74080  0.91920  0.79420  Biso   1.000  H
  H36      1.0000 0.25920  0.41920  0.70580  Biso   1.000  H
  H37      1.0000 0.08250  0.72920  0.05610  Biso   1.000  H
  H38      1.0000 0.91750  0.22920  0.44390  Biso   1.000  H
  H39      1.0000 0.91750  0.27080  0.94390  Biso   1.000  H
  H40      1.0000 0.08250  0.77080  0.55610  Biso   1.000  H
  H41      1.0000 0.23140  0.69890  0.05320  Biso   1.000  H
  H42      1.0000 0.76860  0.19890  0.44680  Biso   1.000  H
  H43      1.0000 0.76860  0.30110  0.94680  Biso   1.000  H
  H44      1.0000 0.23140  0.80110  0.55320  Biso   1.000  H
  H45      1.0000 0.15250  0.63640  0.09880  Biso   1.000  H
  H46      1.0000 0.84750  0.13640  0.40120  Biso   1.000  H
  H47      1.0000 0.84750  0.36360  0.90120  Biso   1.000  H
  H48      1.0000 0.15250  0.86360  0.59880  Biso   1.000  H
  H49      1.0000 0.56400  0.90570  0.07630  Biso   1.000  H
  H50      1.0000 0.43600  0.40570  0.42370  Biso   1.000  H
  H51      1.0000 0.43600  0.09430  0.92370  Biso   1.000  H
  H52      1.0000 0.56400  0.59430  0.57630  Biso   1.000  H
  H53      1.0000 0.89850  0.93620  0.20390  Biso   1.000  H
  H54      1.0000 0.10150  0.43620  0.29610  Biso   1.000  H
  H55      1.0000 0.10150  0.06380  0.79610  Biso   1.000  H
  H56      1.0000 0.89850  0.56380  0.70390  Biso   1.000  H
  H57      1.0000 0.75200  0.77490  0.20810  Biso   1.000  H
  H58      1.0000 0.24800  0.27490  0.29190  Biso   1.000  H
  H59      1.0000 0.24800  0.22510  0.79190  Biso   1.000  H
  H60      1.0000 0.75200  0.72510  0.70810  Biso   1.000  H
  H61      1.0000 0.78360  0.10680  0.03830  Biso   1.000  H
  H62      1.0000 0.21640  0.60680  0.46170  Biso   1.000  H
  H63      1.0000 0.21640  0.89320  0.96170  Biso   1.000  H
  H64      1.0000 0.78360  0.39320  0.53830  Biso   1.000  H
  H65      1.0000 0.63240  0.08400  0.03410  Biso   1.000  H
  H66      1.0000 0.36760  0.58400  0.46590  Biso   1.000  H
  H67      1.0000 0.36760  0.91600  0.96590  Biso   1.000  H
  H68      1.0000 0.63240  0.41600  0.53410  Biso   1.000  H
  H69      1.0000 0.69330  0.18780  0.07400  Biso   1.000  H
  H70      1.0000 0.30670  0.68780  0.42600  Biso   1.000  H
  H71      1.0000 0.30670  0.81220  0.92600  Biso   1.000  H
  H72      1.0000 0.69330  0.31220  0.57400  Biso   1.000  H
  H73      1.0000 0.48760  0.42040  0.08930  Biso   1.000  H
  H74      1.0000 0.51240  0.92040  0.41070  Biso   1.000  H
  H75      1.0000 0.51240  0.57960  0.91070  Biso   1.000  H
  H76      1.0000 0.48760  0.07960  0.58930  Biso   1.000  H
  H77      1.0000 0.15240  0.41420  0.19880  Biso   1.000  H
  H78      1.0000 0.84760  0.91420  0.30120  Biso   1.000  H
  H79      1.0000 0.84760  0.58580  0.80120  Biso   1.000  H
  H80      1.0000 0.15240  0.08580  0.69880  Biso   1.000  H
  H81      1.0000 0.29050  0.58330  0.20020  Biso   1.000  H
  H82      1.0000 0.70950  0.08330  0.29980  Biso   1.000  H
  H83      1.0000 0.70950  0.41670  0.79980  Biso   1.000  H
  H84      1.0000 0.29050  0.91670  0.70020  Biso   1.000  H
  H85      1.0000 0.37830  0.13210  0.10060  Biso   1.000  H
  H86      1.0000 0.62170  0.63210  0.39940  Biso   1.000  H
  H87      1.0000 0.62170  0.86790  0.89940  Biso   1.000  H
  H88      1.0000 0.37830  0.36790  0.60060  Biso   1.000  H
  H89      1.0000 0.28860  0.19190  0.05300  Biso   1.000  H
  H90      1.0000 0.71140  0.69190  0.44700  Biso   1.000  H
  H91      1.0000 0.71140  0.80810  0.94700  Biso   1.000  H
  H92      1.0000 0.28860  0.30810  0.55300  Biso   1.000  H
  H93      1.0000 0.43840  0.22280  0.05810  Biso   1.000  H
  H94      1.0000 0.56160  0.72280  0.44190  Biso   1.000  H
  H95      1.0000 0.56160  0.77720  0.94190  Biso   1.000  H
  H96      1.0000 0.43840  0.27720  0.55810  Biso   1.000  H
