data_image0
_cell_length_a       12.3666
_cell_length_b       7.774
_cell_length_c       15.6142
_cell_angle_alpha    90
_cell_angle_beta     105.46
_cell_angle_gamma    90

_symmetry_space_group_name_H-M    "P 1"
_symmetry_int_tables_number       1

loop_
  _symmetry_equiv_pos_as_xyz
  'x, y, z'

loop_
  _atom_site_label
  _atom_site_occupancy
  _atom_site_fract_x
  _atom_site_fract_y
  _atom_site_fract_z
  _atom_site_thermal_displace_type
  _atom_site_B_iso_or_equiv
  _atom_site_type_symbol
  Cu1      1.0000 0.66233  0.65036  0.21162  Biso   1.000  Cu
  Cu2      1.0000 0.33767  0.15036  0.28838  Biso   1.000  Cu
  Cu3      1.0000 0.33767  0.34964  0.78838  Biso   1.000  Cu
  Cu4      1.0000 0.66233  0.84964  0.71162  Biso   1.000  Cu
  N1       1.0000 0.59020  0.76830  0.28782  Biso   1.000  N
  N2       1.0000 0.40980  0.26830  0.21218  Biso   1.000  N
  N3       1.0000 0.40980  0.23170  0.71218  Biso   1.000  N
  N4       1.0000 0.59020  0.73170  0.78782  Biso   1.000  N
  S1       1.0000 0.53891  0.00904  0.40221  Biso   1.000  S
  S2       1.0000 0.46109  0.50904  0.09779  Biso   1.000  S
  S3       1.0000 0.46109  0.99096  0.59779  Biso   1.000  S
  S4       1.0000 0.53891  0.49096  0.90221  Biso   1.000  S
  C1       1.0000 0.56880  0.87060  0.33442  Biso   1.000  C
  C2       1.0000 0.43120  0.37060  0.16558  Biso   1.000  C
  C3       1.0000 0.43120  0.12940  0.66558  Biso   1.000  C
  C4       1.0000 0.56880  0.62940  0.83442  Biso   1.000  C
  O1       1.0000 0.69568  0.42390  0.27683  Biso   1.000  O
  O2       1.0000 0.30432  0.92390  0.22317  Biso   1.000  O
  O3       1.0000 0.30432  0.57610  0.72317  Biso   1.000  O
  O4       1.0000 0.69568  0.07610  0.77683  Biso   1.000  O
  N5       1.0000 0.66310  0.83700  0.12251  Biso   1.000  N
  N6       1.0000 0.33690  0.33700  0.37749  Biso   1.000  N
  N7       1.0000 0.33690  0.16300  0.87749  Biso   1.000  N
  N8       1.0000 0.66310  0.66300  0.62251  Biso   1.000  N
  N9       1.0000 0.75592  0.54390  0.14558  Biso   1.000  N
  N10      1.0000 0.24408  0.04390  0.35442  Biso   1.000  N
  N11      1.0000 0.24408  0.45610  0.85442  Biso   1.000  N
  N12      1.0000 0.75592  0.95610  0.64558  Biso   1.000  N
  N13      1.0000 0.79870  0.38880  0.17854  Biso   1.000  N
  N14      1.0000 0.20130  0.88880  0.32146  Biso   1.000  N
  N15      1.0000 0.20130  0.61120  0.82146  Biso   1.000  N
  N16      1.0000 0.79870  0.11120  0.67854  Biso   1.000  N
  H1       1.0000 0.84310  0.32930  0.15620  Biso   1.000  H
  H2       1.0000 0.15690  0.82930  0.34380  Biso   1.000  H
  H3       1.0000 0.15690  0.67070  0.84380  Biso   1.000  H
  H4       1.0000 0.84310  0.17070  0.65620  Biso   1.000  H
  C5       1.0000 0.61240  0.98950  0.11440  Biso   1.000  C
  C6       1.0000 0.38760  0.48950  0.38560  Biso   1.000  C
  C7       1.0000 0.38760  0.01050  0.88560  Biso   1.000  C
  C8       1.0000 0.61240  0.51050  0.61440  Biso   1.000  C
  H5       1.0000 0.57030  0.01790  0.15360  Biso   1.000  H
  H6       1.0000 0.42970  0.51790  0.34640  Biso   1.000  H
  H7       1.0000 0.42970  0.98210  0.84640  Biso   1.000  H
  H8       1.0000 0.57030  0.48210  0.65360  Biso   1.000  H
  C9       1.0000 0.61990  0.10650  0.05020  Biso   1.000  C
  C10      1.0000 0.38010  0.60650  0.44980  Biso   1.000  C
  C11      1.0000 0.38010  0.89350  0.94980  Biso   1.000  C
  C12      1.0000 0.61990  0.39350  0.55020  Biso   1.000  C
  H9       1.0000 0.58410  0.21250  0.04660  Biso   1.000  H
  H10      1.0000 0.41590  0.71250  0.45340  Biso   1.000  H
  H11      1.0000 0.41590  0.78750  0.95340  Biso   1.000  H
  H12      1.0000 0.58410  0.28750  0.54660  Biso   1.000  H
  C13      1.0000 0.68080  0.06450  0.99190  Biso   1.000  C
  C14      1.0000 0.31920  0.56450  0.50810  Biso   1.000  C
  C15      1.0000 0.31920  0.93550  0.00810  Biso   1.000  C
  C16      1.0000 0.68080  0.43550  0.49190  Biso   1.000  C
  H13      1.0000 0.68640  0.14200  0.94790  Biso   1.000  H
  H14      1.0000 0.31360  0.64200  0.55210  Biso   1.000  H
  H15      1.0000 0.31360  0.85800  0.05210  Biso   1.000  H
  H16      1.0000 0.68640  0.35800  0.44790  Biso   1.000  H
  C17      1.0000 0.73440  0.90560  0.99850  Biso   1.000  C
  C18      1.0000 0.26560  0.40560  0.50150  Biso   1.000  C
  C19      1.0000 0.26560  0.09440  0.00150  Biso   1.000  C
  C20      1.0000 0.73440  0.59440  0.49850  Biso   1.000  C
  H17      1.0000 0.77610  0.87510  0.95930  Biso   1.000  H
  H18      1.0000 0.22390  0.37510  0.54070  Biso   1.000  H
  H19      1.0000 0.22390  0.12490  0.04070  Biso   1.000  H
  H20      1.0000 0.77610  0.62490  0.45930  Biso   1.000  H
  C21      1.0000 0.72380  0.79430  0.06494  Biso   1.000  C
  C22      1.0000 0.27620  0.29430  0.43506  Biso   1.000  C
  C23      1.0000 0.27620  0.20570  0.93506  Biso   1.000  C
  C24      1.0000 0.72380  0.70570  0.56494  Biso   1.000  C
  C25      1.0000 0.77900  0.62370  0.08068  Biso   1.000  C
  C26      1.0000 0.22100  0.12370  0.41932  Biso   1.000  C
  C27      1.0000 0.22100  0.37630  0.91932  Biso   1.000  C
  C28      1.0000 0.77900  0.87630  0.58068  Biso   1.000  C
  C29      1.0000 0.76460  0.33730  0.25000  Biso   1.000  C
  C30      1.0000 0.23540  0.83730  0.25000  Biso   1.000  C
  C31      1.0000 0.23540  0.66270  0.75000  Biso   1.000  C
  C32      1.0000 0.76460  0.16270  0.75000  Biso   1.000  C
  C33      1.0000 0.85370  0.56150  0.02740  Biso   1.000  C
  C34      1.0000 0.14630  0.06150  0.47260  Biso   1.000  C
  C35      1.0000 0.14630  0.43850  0.97260  Biso   1.000  C
  C36      1.0000 0.85370  0.93850  0.52740  Biso   1.000  C
  H21      1.0000 0.92380  0.62200  0.04470  Biso   1.000  H
  H22      1.0000 0.07620  0.12200  0.45530  Biso   1.000  H
  H23      1.0000 0.07620  0.37800  0.95530  Biso   1.000  H
  H24      1.0000 0.92380  0.87800  0.54470  Biso   1.000  H
  H25      1.0000 0.81880  0.58150  0.96550  Biso   1.000  H
  H26      1.0000 0.18120  0.08150  0.53450  Biso   1.000  H
  H27      1.0000 0.18120  0.41850  0.03450  Biso   1.000  H
  H28      1.0000 0.81880  0.91850  0.46550  Biso   1.000  H
  H29      1.0000 0.86690  0.44050  0.03730  Biso   1.000  H
  H30      1.0000 0.13310  0.94050  0.46270  Biso   1.000  H
  H31      1.0000 0.13310  0.55950  0.96270  Biso   1.000  H
  H32      1.0000 0.86690  0.05950  0.53730  Biso   1.000  H
  C37      1.0000 0.81210  0.17340  0.29380  Biso   1.000  C
  C38      1.0000 0.18790  0.67340  0.20620  Biso   1.000  C
  C39      1.0000 0.18790  0.82660  0.70620  Biso   1.000  C
  C40      1.0000 0.81210  0.32660  0.79380  Biso   1.000  C
  H33      1.0000 0.86410  0.19830  0.35000  Biso   1.000  H
  H34      1.0000 0.13590  0.69830  0.15000  Biso   1.000  H
  H35      1.0000 0.13590  0.80170  0.65000  Biso   1.000  H
  H36      1.0000 0.86410  0.30170  0.85000  Biso   1.000  H
  H37      1.0000 0.85030  0.11380  0.25660  Biso   1.000  H
  H38      1.0000 0.14970  0.61380  0.24340  Biso   1.000  H
  H39      1.0000 0.14970  0.88620  0.74340  Biso   1.000  H
  H40      1.0000 0.85030  0.38620  0.75660  Biso   1.000  H
  H41      1.0000 0.75250  0.10260  0.30280  Biso   1.000  H
  H42      1.0000 0.24750  0.60260  0.19720  Biso   1.000  H
  H43      1.0000 0.24750  0.89740  0.69720  Biso   1.000  H
  H44      1.0000 0.75250  0.39740  0.80280  Biso   1.000  H
  O5       1.0000 0.03190  0.89600  0.04010  Biso   1.000  O
  O6       1.0000 0.96810  0.39600  0.45990  Biso   1.000  O
  O7       1.0000 0.96810  0.10400  0.95990  Biso   1.000  O
  O8       1.0000 0.03190  0.60400  0.54010  Biso   1.000  O
  H45      1.0000 0.03200  0.88700  0.97900  Biso   1.000  H
  H46      1.0000 0.96800  0.38700  0.52100  Biso   1.000  H
  H47      1.0000 0.96800  0.11300  0.02100  Biso   1.000  H
  H48      1.0000 0.03200  0.61300  0.47900  Biso   1.000  H
  H49      1.0000 0.03000  0.78500  0.05800  Biso   1.000  H
  H50      1.0000 0.97000  0.28500  0.44200  Biso   1.000  H
  H51      1.0000 0.97000  0.21500  0.94200  Biso   1.000  H
  H52      1.0000 0.03000  0.71500  0.55800  Biso   1.000  H
  N17      1.0000 0.93920  0.74810  0.30999  Biso   1.000  N
  N18      1.0000 0.06080  0.24810  0.19001  Biso   1.000  N
  N19      1.0000 0.06080  0.25190  0.69001  Biso   1.000  N
  N20      1.0000 0.93920  0.75190  0.80999  Biso   1.000  N
  O9       1.0000 0.84790  0.71790  0.32595  Biso   1.000  O
  O10      1.0000 0.15210  0.21790  0.17405  Biso   1.000  O
  O11      1.0000 0.15210  0.28210  0.67405  Biso   1.000  O
  O12      1.0000 0.84790  0.78210  0.82595  Biso   1.000  O
  O13      1.0000 0.02960  0.71590  0.36909  Biso   1.000  O
  O14      1.0000 0.97040  0.21590  0.13091  Biso   1.000  O
  O15      1.0000 0.97040  0.28410  0.63091  Biso   1.000  O
  O16      1.0000 0.02960  0.78410  0.86909  Biso   1.000  O
  O17      1.0000 0.94320  0.80890  0.23879  Biso   1.000  O
  O18      1.0000 0.05680  0.30890  0.26121  Biso   1.000  O
  O19      1.0000 0.05680  0.19110  0.76121  Biso   1.000  O
  O20      1.0000 0.94320  0.69110  0.73879  Biso   1.000  O
