data_image0
_cell_length_a       10.4802
_cell_length_b       10.7486
_cell_length_c       13.378
_cell_angle_alpha    100.586
_cell_angle_beta     96.99
_cell_angle_gamma    115.523

_symmetry_space_group_name_H-M    "P 1"
_symmetry_int_tables_number       1

loop_
  _symmetry_equiv_pos_as_xyz
  'x, y, z'

loop_
  _atom_site_label
  _atom_site_occupancy
  _atom_site_fract_x
  _atom_site_fract_y
  _atom_site_fract_z
  _atom_site_thermal_displace_type
  _atom_site_B_iso_or_equiv
  _atom_site_type_symbol
  Cu1      1.0000 0.11048  0.43555  0.14581  Biso   1.000  Cu
  Cu2      1.0000 0.88952  0.56445  0.85419  Biso   1.000  Cu
  Cu3      1.0000 0.28325  0.69101  0.04710  Biso   1.000  Cu
  Cu4      1.0000 0.71675  0.30899  0.95290  Biso   1.000  Cu
  V1       1.0000 0.47618  0.53090  0.12386  Biso   1.000  V
  V2       1.0000 0.52382  0.46910  0.87614  Biso   1.000  V
  V3       1.0000 0.19339  0.33582  0.73067  Biso   1.000  V
  V4       1.0000 0.80661  0.66418  0.26933  Biso   1.000  V
  P1       1.0000 0.05643  0.39297  0.91080  Biso   1.000  P
  P2       1.0000 0.94357  0.60703  0.08920  Biso   1.000  P
  O1       1.0000 0.05240  0.32690  0.00280  Biso   1.000  O
  O2       1.0000 0.94760  0.67310  0.99720  Biso   1.000  O
  O3       1.0000 0.18970  0.53420  0.92690  Biso   1.000  O
  O4       1.0000 0.81030  0.46580  0.07310  Biso   1.000  O
  O5       1.0000 0.91600  0.40460  0.88420  Biso   1.000  O
  O6       1.0000 0.08400  0.59540  0.11580  Biso   1.000  O
  O7       1.0000 0.34780  0.58260  0.12850  Biso   1.000  O
  O8       1.0000 0.65220  0.41740  0.87150  Biso   1.000  O
  O9       1.0000 0.05910  0.29050  0.81400  Biso   1.000  O
  O10      1.0000 0.94090  0.70950  0.18600  Biso   1.000  O
  O11      1.0000 0.64120  0.65980  0.20790  Biso   1.000  O
  O12      1.0000 0.35880  0.34020  0.79210  Biso   1.000  O
  O13      1.0000 0.12170  0.21100  0.62130  Biso   1.000  O
  O14      1.0000 0.87830  0.78900  0.37870  Biso   1.000  O
  O15      1.0000 0.22690  0.48490  0.70390  Biso   1.000  O
  O16      1.0000 0.77310  0.51510  0.29610  Biso   1.000  O
  N1       1.0000 0.14210  0.51190  0.29920  Biso   1.000  N
  N2       1.0000 0.85790  0.48810  0.70080  Biso   1.000  N
  N3       1.0000 0.11250  0.27220  0.19290  Biso   1.000  N
  N4       1.0000 0.88750  0.72780  0.80710  Biso   1.000  N
  N5       1.0000 0.37940  0.86880  0.16020  Biso   1.000  N
  N6       1.0000 0.62060  0.13120  0.83980  Biso   1.000  N
  N7       1.0000 0.28670  0.82850  0.96450  Biso   1.000  N
  N8       1.0000 0.71330  0.17150  0.03550  Biso   1.000  N
  C1       1.0000 0.09140  0.14860  0.13090  Biso   1.000  C
  C2       1.0000 0.90860  0.85140  0.86910  Biso   1.000  C
  H1       1.0000 0.08070  0.13920  0.05940  Biso   1.000  H
  H2       1.0000 0.91930  0.86080  0.94060  Biso   1.000  H
  C3       1.0000 0.08500  0.03540  0.16740  Biso   1.000  C
  C4       1.0000 0.91500  0.96460  0.83260  Biso   1.000  C
  H3       1.0000 0.06710  0.95020  0.12180  Biso   1.000  H
  H4       1.0000 0.93290  0.04980  0.87820  Biso   1.000  H
  C5       1.0000 0.10570  0.05130  0.27370  Biso   1.000  C
  C6       1.0000 0.89430  0.94870  0.72630  Biso   1.000  C
  H5       1.0000 0.10340  0.97690  0.30090  Biso   1.000  H
  H6       1.0000 0.89660  0.02310  0.69910  Biso   1.000  H
  C7       1.0000 0.13020  0.17890  0.34010  Biso   1.000  C
  C8       1.0000 0.86980  0.82110  0.65990  Biso   1.000  C
  H7       1.0000 0.14550  0.19180  0.41200  Biso   1.000  H
  H8       1.0000 0.85450  0.80820  0.58800  Biso   1.000  H
  C9       1.0000 0.13120  0.28680  0.29600  Biso   1.000  C
  C10      1.0000 0.86880  0.71320  0.70400  Biso   1.000  C
  C11      1.0000 0.15070  0.42420  0.35790  Biso   1.000  C
  C12      1.0000 0.84930  0.57580  0.64210  Biso   1.000  C
  C13      1.0000 0.16890  0.46230  0.46460  Biso   1.000  C
  C14      1.0000 0.83110  0.53770  0.53540  Biso   1.000  C
  H9       1.0000 0.17020  0.39960  0.50380  Biso   1.000  H
  H10      1.0000 0.82980  0.60040  0.49620  Biso   1.000  H
  C15      1.0000 0.18540  0.59470  0.51210  Biso   1.000  C
  C16      1.0000 0.81460  0.40530  0.48790  Biso   1.000  C
  H11      1.0000 0.20080  0.62300  0.58430  Biso   1.000  H
  H12      1.0000 0.79920  0.37700  0.41570  Biso   1.000  H
  C17      1.0000 0.17930  0.68480  0.45430  Biso   1.000  C
  C18      1.0000 0.82070  0.31520  0.54570  Biso   1.000  C
  H13      1.0000 0.18910  0.77420  0.48570  Biso   1.000  H
  H14      1.0000 0.81090  0.22580  0.51430  Biso   1.000  H
  C19      1.0000 0.15790  0.63850  0.34730  Biso   1.000  C
  C20      1.0000 0.84210  0.36150  0.65270  Biso   1.000  C
  H15      1.0000 0.15450  0.69940  0.30710  Biso   1.000  H
  H16      1.0000 0.84550  0.30060  0.69290  Biso   1.000  H
  C21      1.0000 0.42930  0.88160  0.26090  Biso   1.000  C
  C22      1.0000 0.57070  0.11840  0.73910  Biso   1.000  C
  H17      1.0000 0.42920  0.80240  0.27960  Biso   1.000  H
  H18      1.0000 0.57080  0.19760  0.72040  Biso   1.000  H
  C23      1.0000 0.48110  0.00810  0.33790  Biso   1.000  C
  C24      1.0000 0.51890  0.99190  0.66210  Biso   1.000  C
  H19      1.0000 0.51390  0.01390  0.40730  Biso   1.000  H
  H20      1.0000 0.48610  0.98610  0.59270  Biso   1.000  H
  C25      1.0000 0.48250  0.12610  0.30860  Biso   1.000  C
  C26      1.0000 0.51750  0.87390  0.69140  Biso   1.000  C
  H21      1.0000 0.51520  0.21220  0.35860  Biso   1.000  H
  H22      1.0000 0.48480  0.78780  0.64140  Biso   1.000  H
  C27      1.0000 0.43620  0.11500  0.20690  Biso   1.000  C
  C28      1.0000 0.56380  0.88500  0.79310  Biso   1.000  C
  H23      1.0000 0.43990  0.19460  0.18670  Biso   1.000  H
  H24      1.0000 0.56010  0.80540  0.81330  Biso   1.000  H
  C29      1.0000 0.38350  0.98600  0.13280  Biso   1.000  C
  C30      1.0000 0.61650  0.01400  0.86720  Biso   1.000  C
  C31      1.0000 0.33140  0.96210  0.02060  Biso   1.000  C
  C32      1.0000 0.66860  0.03790  0.97940  Biso   1.000  C
  C33      1.0000 0.33060  0.06780  0.97650  Biso   1.000  C
  C34      1.0000 0.66940  0.93220  0.02350  Biso   1.000  C
  H25      1.0000 0.36190  0.16010  0.01720  Biso   1.000  H
  H26      1.0000 0.63810  0.83990  0.98280  Biso   1.000  H
  C35      1.0000 0.28200  0.03210  0.87090  Biso   1.000  C
  C36      1.0000 0.71800  0.96790  0.12910  Biso   1.000  C
  H27      1.0000 0.27850  0.10100  0.83920  Biso   1.000  H
  H28      1.0000 0.72150  0.89900  0.16080  Biso   1.000  H
  C37      1.0000 0.23810  0.89610  0.81010  Biso   1.000  C
  C38      1.0000 0.76190  0.10390  0.18990  Biso   1.000  C
  H29      1.0000 0.20630  0.87200  0.73800  Biso   1.000  H
  H30      1.0000 0.79370  0.12800  0.26200  Biso   1.000  H
  C39      1.0000 0.24330  0.79650  0.86170  Biso   1.000  C
  C40      1.0000 0.75670  0.20350  0.13830  Biso   1.000  C
  H31      1.0000 0.21540  0.70420  0.82270  Biso   1.000  H
  H32      1.0000 0.78460  0.29580  0.17730  Biso   1.000  H
  O17      1.0000 0.42320  0.40280  0.19980  Biso   1.000  O
  O18      1.0000 0.57680  0.59720  0.80020  Biso   1.000  O
  O19      1.0000 0.42320  0.36810  0.11700  Biso   1.000  O
  O20      1.0000 0.57680  0.63190  0.88300  Biso   1.000  O
  O21      1.0000 0.47380  0.43200  0.00540  Biso   1.000  O
  O22      1.0000 0.52620  0.56800  0.99460  Biso   1.000  O
  O23      1.0000 0.84090  0.02080  0.46550  Biso   1.000  O
  O24      1.0000 0.15910  0.97920  0.53450  Biso   1.000  O
  O25      1.0000 0.55390  0.74790  0.44280  Biso   1.000  O
  O26      1.0000 0.44610  0.25210  0.55720  Biso   1.000  O
  O27      1.0000 0.50700  0.48780  0.40740  Biso   1.000  O
  O28      1.0000 0.49300  0.51220  0.59260  Biso   1.000  O
