data_image0
_cell_length_a       8.8652
_cell_length_b       8.9429
_cell_length_c       10.639
_cell_angle_alpha    89.52
_cell_angle_beta     69.123
_cell_angle_gamma    75.244

_symmetry_space_group_name_H-M    "P 1"
_symmetry_int_tables_number       1

loop_
  _symmetry_equiv_pos_as_xyz
  'x, y, z'

loop_
  _atom_site_label
  _atom_site_occupancy
  _atom_site_fract_x
  _atom_site_fract_y
  _atom_site_fract_z
  _atom_site_thermal_displace_type
  _atom_site_B_iso_or_equiv
  _atom_site_type_symbol
  Cu1      1.0000 0.49050  0.33763  0.36697  Biso   1.000  Cu
  Cu2      1.0000 0.50950  0.66237  0.63303  Biso   1.000  Cu
  N1       1.0000 0.30560  0.32450  0.54300  Biso   1.000  N
  N2       1.0000 0.69440  0.67550  0.45700  Biso   1.000  N
  N3       1.0000 0.67640  0.33920  0.18570  Biso   1.000  N
  N4       1.0000 0.32360  0.66080  0.81430  Biso   1.000  N
  O1       1.0000 0.66570  0.25610  0.43870  Biso   1.000  O
  O2       1.0000 0.33430  0.74390  0.56130  Biso   1.000  O
  O3       1.0000 0.59220  0.40530  0.62870  Biso   1.000  O
  O4       1.0000 0.40780  0.59470  0.37130  Biso   1.000  O
  O5       1.0000 0.34200  0.32190  0.26530  Biso   1.000  O
  O6       1.0000 0.65800  0.67810  0.73470  Biso   1.000  O
  O7       1.0000 0.47570  0.08010  0.27520  Biso   1.000  O
  O8       1.0000 0.52430  0.91990  0.72480  Biso   1.000  O
  C1       1.0000 0.15630  0.43130  0.58210  Biso   1.000  C
  C2       1.0000 0.84370  0.56870  0.41790  Biso   1.000  C
  H1       1.0000 0.13770  0.50590  0.52390  Biso   1.000  H
  H2       1.0000 0.86230  0.49410  0.47610  Biso   1.000  H
  C3       1.0000 0.03070  0.43490  0.70340  Biso   1.000  C
  C4       1.0000 0.96930  0.56510  0.29660  Biso   1.000  C
  H3       1.0000 0.92920  0.51070  0.72600  Biso   1.000  H
  H4       1.0000 0.07080  0.48930  0.27400  Biso   1.000  H
  C5       1.0000 0.05450  0.32440  0.79400  Biso   1.000  C
  C6       1.0000 0.94550  0.67560  0.20600  Biso   1.000  C
  C7       1.0000 0.20810  0.21180  0.74870  Biso   1.000  C
  C8       1.0000 0.79190  0.78820  0.25130  Biso   1.000  C
  H5       1.0000 0.22890  0.13310  0.80290  Biso   1.000  H
  H6       1.0000 0.77110  0.86690  0.19710  Biso   1.000  H
  C9       1.0000 0.32850  0.21490  0.62600  Biso   1.000  C
  C10      1.0000 0.67150  0.78510  0.37400  Biso   1.000  C
  H7       1.0000 0.42990  0.13830  0.59920  Biso   1.000  H
  H8       1.0000 0.57010  0.86170  0.40080  Biso   1.000  H
  C11      1.0000 0.92200  0.32830  0.92860  Biso   1.000  C
  C12      1.0000 0.07800  0.67170  0.07140  Biso   1.000  C
  C13      1.0000 0.76590  0.43460  0.96840  Biso   1.000  C
  C14      1.0000 0.23410  0.56540  0.03160  Biso   1.000  C
  H9       1.0000 0.73910  0.50380  0.90890  Biso   1.000  H
  H10      1.0000 0.26090  0.49620  0.09110  Biso   1.000  H
  C15      1.0000 0.65040  0.43740  0.09630  Biso   1.000  C
  C16      1.0000 0.34960  0.56260  0.90370  Biso   1.000  C
  H11      1.0000 0.54810  0.51260  0.12170  Biso   1.000  H
  H12      1.0000 0.45190  0.48740  0.87830  Biso   1.000  H
  C17      1.0000 0.82560  0.23300  0.14680  Biso   1.000  C
  C18      1.0000 0.17440  0.76700  0.85320  Biso   1.000  C
  H13      1.0000 0.84670  0.16160  0.20670  Biso   1.000  H
  H14      1.0000 0.15330  0.83840  0.79330  Biso   1.000  H
  C19      1.0000 0.94830  0.22580  0.02240  Biso   1.000  C
  C20      1.0000 0.05170  0.77420  0.97760  Biso   1.000  C
  H15      1.0000 0.05060  0.15120  0.00050  Biso   1.000  H
  H16      1.0000 0.94940  0.84880  0.99950  Biso   1.000  H
  C21      1.0000 0.67750  0.28900  0.54950  Biso   1.000  C
  C22      1.0000 0.32250  0.71100  0.45050  Biso   1.000  C
  C23      1.0000 0.80440  0.16850  0.58800  Biso   1.000  C
  C24      1.0000 0.19560  0.83150  0.41200  Biso   1.000  C
  H17      1.0000 0.85850  0.22300  0.62980  Biso   1.000  H
  H18      1.0000 0.14150  0.77700  0.37020  Biso   1.000  H
  H19      1.0000 0.74370  0.11070  0.65610  Biso   1.000  H
  H20      1.0000 0.25630  0.88930  0.34390  Biso   1.000  H
  C25      1.0000 0.93560  0.05670  0.48050  Biso   1.000  C
  C26      1.0000 0.06440  0.94330  0.51950  Biso   1.000  C
  H21      1.0000 0.99330  0.11430  0.41020  Biso   1.000  H
  H22      1.0000 0.00670  0.88570  0.58980  Biso   1.000  H
  H23      1.0000 0.88200  0.99840  0.44150  Biso   1.000  H
  H24      1.0000 0.11800  0.00160  0.55850  Biso   1.000  H
  C27      1.0000 0.37930  0.17550  0.23470  Biso   1.000  C
  C28      1.0000 0.62070  0.82450  0.76530  Biso   1.000  C
  C29      1.0000 0.30350  0.12250  0.14380  Biso   1.000  C
  C30      1.0000 0.69650  0.87750  0.85620  Biso   1.000  C
  H25      1.0000 0.20080  0.09760  0.19850  Biso   1.000  H
  H26      1.0000 0.79920  0.90240  0.80150  Biso   1.000  H
  H27      1.0000 0.27470  0.20660  0.09120  Biso   1.000  H
  H28      1.0000 0.72530  0.79340  0.90880  Biso   1.000  H
  C31      1.0000 0.41910  0.98320  0.04970  Biso   1.000  C
  C32      1.0000 0.58090  0.01680  0.95030  Biso   1.000  C
  H29      1.0000 0.36080  0.94890  0.99860  Biso   1.000  H
  H30      1.0000 0.63920  0.05110  0.00140  Biso   1.000  H
  H31      1.0000 0.44930  0.89960  0.10230  Biso   1.000  H
  H32      1.0000 0.55070  0.10040  0.89770  Biso   1.000  H
