data_image0
_cell_length_a       12.0819
_cell_length_b       13.8007
_cell_length_c       12.105
_cell_angle_alpha    90
_cell_angle_beta     103.563
_cell_angle_gamma    90

_symmetry_space_group_name_H-M    "P 1"
_symmetry_int_tables_number       1

loop_
  _symmetry_equiv_pos_as_xyz
  'x, y, z'

loop_
  _atom_site_label
  _atom_site_occupancy
  _atom_site_fract_x
  _atom_site_fract_y
  _atom_site_fract_z
  _atom_site_thermal_displace_type
  _atom_site_B_iso_or_equiv
  _atom_site_type_symbol
  Cu1      1.0000 0.03354  0.04179  0.17666  Biso   1.000  Cu
  Cu2      1.0000 0.46646  0.54179  0.32334  Biso   1.000  Cu
  Cu3      1.0000 0.96646  0.95821  0.82334  Biso   1.000  Cu
  Cu4      1.0000 0.53354  0.45821  0.67666  Biso   1.000  Cu
  N1       1.0000 0.91532  0.06584  0.27057  Biso   1.000  N
  N2       1.0000 0.58468  0.56584  0.22943  Biso   1.000  N
  N3       1.0000 0.08468  0.93416  0.72943  Biso   1.000  N
  N4       1.0000 0.41532  0.43416  0.77057  Biso   1.000  N
  O1       1.0000 0.11870  0.24110  0.23834  Biso   1.000  O
  O2       1.0000 0.38130  0.74110  0.26166  Biso   1.000  O
  O3       1.0000 0.88130  0.75890  0.76166  Biso   1.000  O
  O4       1.0000 0.61870  0.25890  0.73834  Biso   1.000  O
  C1       1.0000 0.84110  0.13750  0.26270  Biso   1.000  C
  C2       1.0000 0.65890  0.63750  0.23730  Biso   1.000  C
  C3       1.0000 0.15890  0.86250  0.73730  Biso   1.000  C
  C4       1.0000 0.34110  0.36250  0.76270  Biso   1.000  C
  H1       1.0000 0.84360  0.18820  0.21270  Biso   1.000  H
  H2       1.0000 0.65640  0.68820  0.28730  Biso   1.000  H
  H3       1.0000 0.15640  0.81180  0.78730  Biso   1.000  H
  H4       1.0000 0.34360  0.31180  0.71270  Biso   1.000  H
  N5       1.0000 0.06368  0.92333  0.27852  Biso   1.000  N
  N6       1.0000 0.43632  0.42333  0.22148  Biso   1.000  N
  N7       1.0000 0.93632  0.07667  0.72148  Biso   1.000  N
  N8       1.0000 0.56368  0.57667  0.77852  Biso   1.000  N
  O5       1.0000 0.99600  0.16304  0.10034  Biso   1.000  O
  O6       1.0000 0.50400  0.66304  0.39966  Biso   1.000  O
  O7       1.0000 0.00400  0.83696  0.89966  Biso   1.000  O
  O8       1.0000 0.49600  0.33696  0.60034  Biso   1.000  O
  C5       1.0000 0.75910  0.13950  0.32730  Biso   1.000  C
  C6       1.0000 0.74090  0.63950  0.17270  Biso   1.000  C
  C7       1.0000 0.24090  0.86050  0.67270  Biso   1.000  C
  C8       1.0000 0.25910  0.36050  0.82730  Biso   1.000  C
  H5       1.0000 0.70860  0.19120  0.32010  Biso   1.000  H
  H6       1.0000 0.79140  0.69120  0.17990  Biso   1.000  H
  H7       1.0000 0.29140  0.80880  0.67990  Biso   1.000  H
  H8       1.0000 0.20860  0.30880  0.82010  Biso   1.000  H
  O9       1.0000 0.90593  0.94770  0.06037  Biso   1.000  O
  O10      1.0000 0.59407  0.44770  0.43963  Biso   1.000  O
  O11      1.0000 0.09407  0.05230  0.93963  Biso   1.000  O
  O12      1.0000 0.40593  0.55230  0.56037  Biso   1.000  O
  C9       1.0000 0.75320  0.06620  0.40040  Biso   1.000  C
  C10      1.0000 0.74680  0.56620  0.09960  Biso   1.000  C
  C11      1.0000 0.24680  0.93380  0.59960  Biso   1.000  C
  C12      1.0000 0.25320  0.43380  0.90040  Biso   1.000  C
  H9       1.0000 0.69930  0.06770  0.44400  Biso   1.000  H
  H10      1.0000 0.80070  0.56770  0.05600  Biso   1.000  H
  H11      1.0000 0.30070  0.93230  0.55600  Biso   1.000  H
  H12      1.0000 0.19930  0.43230  0.94400  Biso   1.000  H
  C13      1.0000 0.82940  0.98780  0.40970  Biso   1.000  C
  C14      1.0000 0.67060  0.48780  0.09030  Biso   1.000  C
  C15      1.0000 0.17060  0.01220  0.59030  Biso   1.000  C
  C16      1.0000 0.32940  0.51220  0.90970  Biso   1.000  C
  O13      1.0000 0.82892  0.98058  0.87673  Biso   1.000  O
  O14      1.0000 0.67108  0.48058  0.62327  Biso   1.000  O
  O15      1.0000 0.17108  0.01942  0.12327  Biso   1.000  O
  O16      1.0000 0.32892  0.51942  0.37673  Biso   1.000  O
  C17      1.0000 0.82990  0.90460  0.48080  Biso   1.000  C
  C18      1.0000 0.67010  0.40460  0.01920  Biso   1.000  C
  C19      1.0000 0.17010  0.09540  0.51920  Biso   1.000  C
  C20      1.0000 0.32990  0.59540  0.98080  Biso   1.000  C
  H13      1.0000 0.77780  0.90140  0.52640  Biso   1.000  H
  H14      1.0000 0.72220  0.40140  0.97360  Biso   1.000  H
  H15      1.0000 0.22220  0.09860  0.47360  Biso   1.000  H
  H16      1.0000 0.27780  0.59860  0.02640  Biso   1.000  H
  C21      1.0000 0.90280  0.83150  0.48340  Biso   1.000  C
  C22      1.0000 0.59720  0.33150  0.01660  Biso   1.000  C
  C23      1.0000 0.09720  0.16850  0.51660  Biso   1.000  C
  C24      1.0000 0.40280  0.66850  0.98340  Biso   1.000  C
  H17      1.0000 0.90090  0.77880  0.53090  Biso   1.000  H
  H18      1.0000 0.59910  0.27880  0.96910  Biso   1.000  H
  H19      1.0000 0.09910  0.22120  0.46910  Biso   1.000  H
  H20      1.0000 0.40090  0.72120  0.03090  Biso   1.000  H
  C25      1.0000 0.98460  0.83300  0.41370  Biso   1.000  C
  C26      1.0000 0.51540  0.33300  0.08630  Biso   1.000  C
  C27      1.0000 0.01540  0.16700  0.58630  Biso   1.000  C
  C28      1.0000 0.48460  0.66700  0.91370  Biso   1.000  C
  C29      1.0000 0.06410  0.75860  0.41060  Biso   1.000  C
  C30      1.0000 0.43590  0.25860  0.08940  Biso   1.000  C
  C31      1.0000 0.93590  0.24140  0.58940  Biso   1.000  C
  C32      1.0000 0.56410  0.74140  0.91060  Biso   1.000  C
  H21      1.0000 0.06490  0.70310  0.45420  Biso   1.000  H
  H22      1.0000 0.43510  0.20310  0.04580  Biso   1.000  H
  H23      1.0000 0.93510  0.29690  0.54580  Biso   1.000  H
  H24      1.0000 0.56490  0.79690  0.95420  Biso   1.000  H
  C33      1.0000 0.13940  0.76840  0.34370  Biso   1.000  C
  C34      1.0000 0.36060  0.26840  0.15630  Biso   1.000  C
  C35      1.0000 0.86060  0.23160  0.65630  Biso   1.000  C
  C36      1.0000 0.63940  0.73160  0.84370  Biso   1.000  C
  H25      1.0000 0.19200  0.71980  0.34150  Biso   1.000  H
  H26      1.0000 0.30800  0.21980  0.15850  Biso   1.000  H
  H27      1.0000 0.80800  0.28020  0.65850  Biso   1.000  H
  H28      1.0000 0.69200  0.78020  0.84150  Biso   1.000  H
  C37      1.0000 0.13700  0.85217  0.27830  Biso   1.000  C
  C38      1.0000 0.36300  0.35217  0.22170  Biso   1.000  C
  C39      1.0000 0.86300  0.14783  0.72170  Biso   1.000  C
  C40      1.0000 0.63700  0.64783  0.77830  Biso   1.000  C
  H29      1.0000 0.18900  0.85810  0.23300  Biso   1.000  H
  H30      1.0000 0.31100  0.35810  0.26700  Biso   1.000  H
  H31      1.0000 0.81100  0.14190  0.76700  Biso   1.000  H
  H32      1.0000 0.68900  0.64190  0.73300  Biso   1.000  H
  C41      1.0000 0.90940  0.99160  0.34200  Biso   1.000  C
  C42      1.0000 0.59060  0.49160  0.15800  Biso   1.000  C
  C43      1.0000 0.09060  0.00840  0.65800  Biso   1.000  C
  C44      1.0000 0.40940  0.50840  0.84200  Biso   1.000  C
  C45      1.0000 0.98840  0.91432  0.34566  Biso   1.000  C
  C46      1.0000 0.51160  0.41432  0.15434  Biso   1.000  C
  C47      1.0000 0.01160  0.08568  0.65434  Biso   1.000  C
  C48      1.0000 0.48840  0.58568  0.84566  Biso   1.000  C
  C49      1.0000 0.05050  0.23797  0.14480  Biso   1.000  C
  C50      1.0000 0.44950  0.73797  0.35520  Biso   1.000  C
  C51      1.0000 0.94950  0.76203  0.85520  Biso   1.000  C
  C52      1.0000 0.55050  0.26203  0.64480  Biso   1.000  C
  C53      1.0000 0.02350  0.32846  0.07391  Biso   1.000  C
  C54      1.0000 0.47650  0.82846  0.42609  Biso   1.000  C
  C55      1.0000 0.97650  0.67154  0.92609  Biso   1.000  C
  C56      1.0000 0.52350  0.17154  0.57391  Biso   1.000  C
  C57      1.0000 0.06380  0.41555  0.11693  Biso   1.000  C
  C58      1.0000 0.43620  0.91555  0.38307  Biso   1.000  C
  C59      1.0000 0.93620  0.58445  0.88307  Biso   1.000  C
  C60      1.0000 0.56380  0.08445  0.61693  Biso   1.000  C
  H33      1.0000 0.11180  0.41790  0.18920  Biso   1.000  H
  H34      1.0000 0.38820  0.91790  0.31080  Biso   1.000  H
  H35      1.0000 0.88820  0.58210  0.81080  Biso   1.000  H
  H36      1.0000 0.61180  0.08210  0.68920  Biso   1.000  H
  C61      1.0000 0.03560  0.50304  0.05593  Biso   1.000  C
  C62      1.0000 0.46440  0.00304  0.44407  Biso   1.000  C
  C63      1.0000 0.96440  0.49696  0.94407  Biso   1.000  C
  C64      1.0000 0.53560  0.99696  0.55593  Biso   1.000  C
  C65      1.0000 0.95360  0.32360  0.96190  Biso   1.000  C
  C66      1.0000 0.54640  0.82360  0.53810  Biso   1.000  C
  C67      1.0000 0.04640  0.67640  0.03810  Biso   1.000  C
  C68      1.0000 0.45360  0.17640  0.46190  Biso   1.000  C
  H37      1.0000 0.92720  0.26380  0.93120  Biso   1.000  H
  H38      1.0000 0.57280  0.76380  0.56880  Biso   1.000  H
  H39      1.0000 0.07280  0.73620  0.06880  Biso   1.000  H
  H40      1.0000 0.42720  0.23620  0.43120  Biso   1.000  H
  C69      1.0000 0.82498  0.96674  0.98060  Biso   1.000  C
  C70      1.0000 0.67502  0.46674  0.51940  Biso   1.000  C
  C71      1.0000 0.17502  0.03326  0.01940  Biso   1.000  C
  C72      1.0000 0.32498  0.53326  0.48060  Biso   1.000  C
  C73      1.0000 0.70789  0.97271  0.00358  Biso   1.000  C
  C74      1.0000 0.79211  0.47271  0.49642  Biso   1.000  C
  C75      1.0000 0.29211  0.02729  0.99642  Biso   1.000  C
  C76      1.0000 0.20789  0.52729  0.50358  Biso   1.000  C
  C77      1.0000 0.61938  0.01687  0.92936  Biso   1.000  C
  C78      1.0000 0.88062  0.51687  0.57064  Biso   1.000  C
  C79      1.0000 0.38062  0.98313  0.07064  Biso   1.000  C
  C80      1.0000 0.11938  0.48313  0.42936  Biso   1.000  C
  H41      1.0000 0.63230  0.04490  0.86370  Biso   1.000  H
  H42      1.0000 0.86770  0.54490  0.63630  Biso   1.000  H
  H43      1.0000 0.36770  0.95510  0.13630  Biso   1.000  H
  H44      1.0000 0.13230  0.45510  0.36370  Biso   1.000  H
  C81      1.0000 0.50937  0.02109  0.94941  Biso   1.000  C
  C82      1.0000 0.99063  0.52109  0.55059  Biso   1.000  C
  C83      1.0000 0.49063  0.97891  0.05059  Biso   1.000  C
  C84      1.0000 0.00937  0.47891  0.44941  Biso   1.000  C
  C85      1.0000 0.68923  0.93181  0.10473  Biso   1.000  C
  C86      1.0000 0.81077  0.43181  0.39527  Biso   1.000  C
  C87      1.0000 0.31077  0.06819  0.89527  Biso   1.000  C
  C88      1.0000 0.18923  0.56819  0.60473  Biso   1.000  C
  H45      1.0000 0.74940  0.90280  0.15630  Biso   1.000  H
  H46      1.0000 0.75060  0.40280  0.34370  Biso   1.000  H
  H47      1.0000 0.25060  0.09720  0.84370  Biso   1.000  H
  H48      1.0000 0.24940  0.59720  0.65630  Biso   1.000  H
  C89      1.0000 0.41670  0.06560  0.87250  Biso   1.000  C
  C90      1.0000 0.08330  0.56560  0.62750  Biso   1.000  C
  C91      1.0000 0.58330  0.93440  0.12750  Biso   1.000  C
  C92      1.0000 0.91670  0.43440  0.37250  Biso   1.000  C
  C93      1.0000 0.07500  0.59485  0.10090  Biso   1.000  C
  C94      1.0000 0.42500  0.09485  0.39910  Biso   1.000  C
  C95      1.0000 0.92500  0.40515  0.89910  Biso   1.000  C
  C96      1.0000 0.57500  0.90515  0.60090  Biso   1.000  C
  H49      1.0000 0.43400  0.09300  0.80300  Biso   1.000  H
  H50      1.0000 0.06600  0.59300  0.69700  Biso   1.000  H
  H51      1.0000 0.56600  0.90700  0.19700  Biso   1.000  H
  H52      1.0000 0.93400  0.40700  0.30300  Biso   1.000  H
  H53      1.0000 0.12800  0.59000  0.17500  Biso   1.000  H
  H54      1.0000 0.37200  0.09000  0.32500  Biso   1.000  H
  H55      1.0000 0.87200  0.41000  0.82500  Biso   1.000  H
  H56      1.0000 0.62800  0.91000  0.67500  Biso   1.000  H
