data_image0
_cell_length_a       21.3745
_cell_length_b       13.0065
_cell_length_c       15.5522
_cell_angle_alpha    90
_cell_angle_beta     115.452
_cell_angle_gamma    90

_symmetry_space_group_name_H-M    "P 1"
_symmetry_int_tables_number       1

loop_
  _symmetry_equiv_pos_as_xyz
  'x, y, z'

loop_
  _atom_site_label
  _atom_site_occupancy
  _atom_site_fract_x
  _atom_site_fract_y
  _atom_site_fract_z
  _atom_site_thermal_displace_type
  _atom_site_B_iso_or_equiv
  _atom_site_type_symbol
  N1       1.0000 0.02800  0.98370  0.18990  Biso   1.000  N
  N2       1.0000 0.52800  0.48370  0.18990  Biso   1.000  N
  N3       1.0000 0.97200  0.98370  0.31010  Biso   1.000  N
  N4       1.0000 0.47200  0.48370  0.31010  Biso   1.000  N
  N5       1.0000 0.97200  0.01630  0.81010  Biso   1.000  N
  N6       1.0000 0.47200  0.51630  0.81010  Biso   1.000  N
  N7       1.0000 0.02800  0.01630  0.68990  Biso   1.000  N
  N8       1.0000 0.52800  0.51630  0.68990  Biso   1.000  N
  Cu1      1.0000 0.00000  0.09846  0.25000  Biso   1.000  Cu
  Cu2      1.0000 0.50000  0.59846  0.25000  Biso   1.000  Cu
  Cu3      1.0000 0.00000  0.90154  0.75000  Biso   1.000  Cu
  Cu4      1.0000 0.50000  0.40154  0.75000  Biso   1.000  Cu
  Cu5      1.0000 0.14110  0.24397  0.38019  Biso   1.000  Cu
  Cu6      1.0000 0.64110  0.74397  0.38019  Biso   1.000  Cu
  Cu7      1.0000 0.85890  0.24397  0.11981  Biso   1.000  Cu
  Cu8      1.0000 0.35890  0.74397  0.11981  Biso   1.000  Cu
  Cu9      1.0000 0.85890  0.75603  0.61981  Biso   1.000  Cu
  Cu10     1.0000 0.35890  0.25603  0.61981  Biso   1.000  Cu
  Cu11     1.0000 0.14110  0.75603  0.88019  Biso   1.000  Cu
  Cu12     1.0000 0.64110  0.25603  0.88019  Biso   1.000  Cu
  O1       1.0000 0.13380  0.09690  0.39150  Biso   1.000  O
  O2       1.0000 0.63380  0.59690  0.39150  Biso   1.000  O
  O3       1.0000 0.86620  0.09690  0.10850  Biso   1.000  O
  O4       1.0000 0.36620  0.59690  0.10850  Biso   1.000  O
  O5       1.0000 0.86620  0.90310  0.60850  Biso   1.000  O
  O6       1.0000 0.36620  0.40310  0.60850  Biso   1.000  O
  O7       1.0000 0.13380  0.90310  0.89150  Biso   1.000  O
  O8       1.0000 0.63380  0.40310  0.89150  Biso   1.000  O
  O9       1.0000 0.00000  0.54790  0.25000  Biso   1.000  O
  O10      1.0000 0.50000  0.04790  0.25000  Biso   1.000  O
  O11      1.0000 0.00000  0.45210  0.75000  Biso   1.000  O
  O12      1.0000 0.50000  0.95210  0.75000  Biso   1.000  O
  O13      1.0000 0.23700  0.08640  0.38780  Biso   1.000  O
  O14      1.0000 0.73700  0.58640  0.38780  Biso   1.000  O
  O15      1.0000 0.76300  0.08640  0.11220  Biso   1.000  O
  O16      1.0000 0.26300  0.58640  0.11220  Biso   1.000  O
  O17      1.0000 0.76300  0.91360  0.61220  Biso   1.000  O
  O18      1.0000 0.26300  0.41360  0.61220  Biso   1.000  O
  O19      1.0000 0.23700  0.91360  0.88780  Biso   1.000  O
  O20      1.0000 0.73700  0.41360  0.88780  Biso   1.000  O
  O21      1.0000 0.14150  0.39220  0.37260  Biso   1.000  O
  O22      1.0000 0.64150  0.89220  0.37260  Biso   1.000  O
  O23      1.0000 0.85850  0.39220  0.12740  Biso   1.000  O
  O24      1.0000 0.35850  0.89220  0.12740  Biso   1.000  O
  O25      1.0000 0.85850  0.60780  0.62740  Biso   1.000  O
  O26      1.0000 0.35850  0.10780  0.62740  Biso   1.000  O
  O27      1.0000 0.14150  0.60780  0.87260  Biso   1.000  O
  O28      1.0000 0.64150  0.10780  0.87260  Biso   1.000  O
  O29      1.0000 0.24240  0.38000  0.36050  Biso   1.000  O
  O30      1.0000 0.74240  0.88000  0.36050  Biso   1.000  O
  O31      1.0000 0.75760  0.38000  0.13950  Biso   1.000  O
  O32      1.0000 0.25760  0.88000  0.13950  Biso   1.000  O
  O33      1.0000 0.75760  0.62000  0.63950  Biso   1.000  O
  O34      1.0000 0.25760  0.12000  0.63950  Biso   1.000  O
  O35      1.0000 0.24240  0.62000  0.86050  Biso   1.000  O
  O36      1.0000 0.74240  0.12000  0.86050  Biso   1.000  O
  O37      1.0000 0.99330  0.20610  0.15770  Biso   1.000  O
  O38      1.0000 0.49330  0.70610  0.15770  Biso   1.000  O
  O39      1.0000 0.00670  0.20610  0.34230  Biso   1.000  O
  O40      1.0000 0.50670  0.70610  0.34230  Biso   1.000  O
  O41      1.0000 0.00670  0.79390  0.84230  Biso   1.000  O
  O42      1.0000 0.50670  0.29390  0.84230  Biso   1.000  O
  O43      1.0000 0.99330  0.79390  0.65770  Biso   1.000  O
  O44      1.0000 0.49330  0.29390  0.65770  Biso   1.000  O
  O45      1.0000 0.10710  0.23520  0.23910  Biso   1.000  O
  O46      1.0000 0.60710  0.73520  0.23910  Biso   1.000  O
  O47      1.0000 0.89290  0.23520  0.26090  Biso   1.000  O
  O48      1.0000 0.39290  0.73520  0.26090  Biso   1.000  O
  O49      1.0000 0.89290  0.76480  0.76090  Biso   1.000  O
  O50      1.0000 0.39290  0.26480  0.76090  Biso   1.000  O
  O51      1.0000 0.10710  0.76480  0.73910  Biso   1.000  O
  O52      1.0000 0.60710  0.26480  0.73910  Biso   1.000  O
  O53      1.0000 0.17900  0.25820  0.51950  Biso   1.000  O
  O54      1.0000 0.67900  0.75820  0.51950  Biso   1.000  O
  O55      1.0000 0.82100  0.25820  0.98050  Biso   1.000  O
  O56      1.0000 0.32100  0.75820  0.98050  Biso   1.000  O
  O57      1.0000 0.82100  0.74180  0.48050  Biso   1.000  O
  O58      1.0000 0.32100  0.24180  0.48050  Biso   1.000  O
  O59      1.0000 0.17900  0.74180  0.01950  Biso   1.000  O
  O60      1.0000 0.67900  0.24180  0.01950  Biso   1.000  O
  C1       1.0000 0.05930  0.99220  0.13140  Biso   1.000  C
  C2       1.0000 0.55930  0.49220  0.13140  Biso   1.000  C
  C3       1.0000 0.94070  0.99220  0.36860  Biso   1.000  C
  C4       1.0000 0.44070  0.49220  0.36860  Biso   1.000  C
  C5       1.0000 0.94070  0.00780  0.86860  Biso   1.000  C
  C6       1.0000 0.44070  0.50780  0.86860  Biso   1.000  C
  C7       1.0000 0.05930  0.00780  0.63140  Biso   1.000  C
  C8       1.0000 0.55930  0.50780  0.63140  Biso   1.000  C
  H1       1.0000 0.06660  0.05720  0.11250  Biso   1.000  H
  H2       1.0000 0.56660  0.55720  0.11250  Biso   1.000  H
  H3       1.0000 0.93340  0.05720  0.38750  Biso   1.000  H
  H4       1.0000 0.43340  0.55720  0.38750  Biso   1.000  H
  H5       1.0000 0.93340  0.94280  0.88750  Biso   1.000  H
  H6       1.0000 0.43340  0.44280  0.88750  Biso   1.000  H
  H7       1.0000 0.06660  0.94280  0.61250  Biso   1.000  H
  H8       1.0000 0.56660  0.44280  0.61250  Biso   1.000  H
  C9       1.0000 0.08100  0.90740  0.09880  Biso   1.000  C
  C10      1.0000 0.58100  0.40740  0.09880  Biso   1.000  C
  C11      1.0000 0.91900  0.90740  0.40120  Biso   1.000  C
  C12      1.0000 0.41900  0.40740  0.40120  Biso   1.000  C
  C13      1.0000 0.91900  0.09260  0.90120  Biso   1.000  C
  C14      1.0000 0.41900  0.59260  0.90120  Biso   1.000  C
  C15      1.0000 0.08100  0.09260  0.59880  Biso   1.000  C
  C16      1.0000 0.58100  0.59260  0.59880  Biso   1.000  C
  H9       1.0000 0.10200  0.91510  0.05780  Biso   1.000  H
  H10      1.0000 0.60200  0.41510  0.05780  Biso   1.000  H
  H11      1.0000 0.89800  0.91510  0.44220  Biso   1.000  H
  H12      1.0000 0.39800  0.41510  0.44220  Biso   1.000  H
  H13      1.0000 0.89800  0.08490  0.94220  Biso   1.000  H
  H14      1.0000 0.39800  0.58490  0.94220  Biso   1.000  H
  H15      1.0000 0.10200  0.08490  0.55780  Biso   1.000  H
  H16      1.0000 0.60200  0.58490  0.55780  Biso   1.000  H
  C17      1.0000 0.07110  0.81080  0.12730  Biso   1.000  C
  C18      1.0000 0.57110  0.31080  0.12730  Biso   1.000  C
  C19      1.0000 0.92890  0.81080  0.37270  Biso   1.000  C
  C20      1.0000 0.42890  0.31080  0.37270  Biso   1.000  C
  C21      1.0000 0.92890  0.18920  0.87270  Biso   1.000  C
  C22      1.0000 0.42890  0.68920  0.87270  Biso   1.000  C
  C23      1.0000 0.07110  0.18920  0.62730  Biso   1.000  C
  C24      1.0000 0.57110  0.68920  0.62730  Biso   1.000  C
  H17      1.0000 0.08610  0.75280  0.10670  Biso   1.000  H
  H18      1.0000 0.58610  0.25280  0.10670  Biso   1.000  H
  H19      1.0000 0.91390  0.75280  0.39330  Biso   1.000  H
  H20      1.0000 0.41390  0.25280  0.39330  Biso   1.000  H
  H21      1.0000 0.91390  0.24720  0.89330  Biso   1.000  H
  H22      1.0000 0.41390  0.74720  0.89330  Biso   1.000  H
  H23      1.0000 0.08610  0.24720  0.60670  Biso   1.000  H
  H24      1.0000 0.58610  0.74720  0.60670  Biso   1.000  H
  C25      1.0000 0.03860  0.80130  0.18710  Biso   1.000  C
  C26      1.0000 0.53860  0.30130  0.18710  Biso   1.000  C
  C27      1.0000 0.96140  0.80130  0.31290  Biso   1.000  C
  C28      1.0000 0.46140  0.30130  0.31290  Biso   1.000  C
  C29      1.0000 0.96140  0.19870  0.81290  Biso   1.000  C
  C30      1.0000 0.46140  0.69870  0.81290  Biso   1.000  C
  C31      1.0000 0.03860  0.19870  0.68710  Biso   1.000  C
  C32      1.0000 0.53860  0.69870  0.68710  Biso   1.000  C
  H25      1.0000 0.03100  0.73670  0.20650  Biso   1.000  H
  H26      1.0000 0.53100  0.23670  0.20650  Biso   1.000  H
  H27      1.0000 0.96900  0.73670  0.29350  Biso   1.000  H
  H28      1.0000 0.46900  0.23670  0.29350  Biso   1.000  H
  H29      1.0000 0.96900  0.26330  0.79350  Biso   1.000  H
  H30      1.0000 0.46900  0.76330  0.79350  Biso   1.000  H
  H31      1.0000 0.03100  0.26330  0.70650  Biso   1.000  H
  H32      1.0000 0.53100  0.76330  0.70650  Biso   1.000  H
  C33      1.0000 0.01730  0.88950  0.21780  Biso   1.000  C
  C34      1.0000 0.51730  0.38950  0.21780  Biso   1.000  C
  C35      1.0000 0.98270  0.88950  0.28220  Biso   1.000  C
  C36      1.0000 0.48270  0.38950  0.28220  Biso   1.000  C
  C37      1.0000 0.98270  0.11050  0.78220  Biso   1.000  C
  C38      1.0000 0.48270  0.61050  0.78220  Biso   1.000  C
  C39      1.0000 0.01730  0.11050  0.71780  Biso   1.000  C
  C40      1.0000 0.51730  0.61050  0.71780  Biso   1.000  C
  C41      1.0000 0.18510  0.04500  0.39090  Biso   1.000  C
  C42      1.0000 0.68510  0.54500  0.39090  Biso   1.000  C
  C43      1.0000 0.81490  0.04500  0.10910  Biso   1.000  C
  C44      1.0000 0.31490  0.54500  0.10910  Biso   1.000  C
  C45      1.0000 0.81490  0.95500  0.60910  Biso   1.000  C
  C46      1.0000 0.31490  0.45500  0.60910  Biso   1.000  C
  C47      1.0000 0.18510  0.95500  0.89090  Biso   1.000  C
  C48      1.0000 0.68510  0.45500  0.89090  Biso   1.000  C
  C49      1.0000 0.18080  0.93040  0.39340  Biso   1.000  C
  C50      1.0000 0.68080  0.43040  0.39340  Biso   1.000  C
  C51      1.0000 0.81920  0.93040  0.10660  Biso   1.000  C
  C52      1.0000 0.31920  0.43040  0.10660  Biso   1.000  C
  C53      1.0000 0.81920  0.06960  0.60660  Biso   1.000  C
  C54      1.0000 0.31920  0.56960  0.60660  Biso   1.000  C
  C55      1.0000 0.18080  0.06960  0.89340  Biso   1.000  C
  C56      1.0000 0.68080  0.56960  0.89340  Biso   1.000  C
  C57      1.0000 0.14450  0.88300  0.44170  Biso   1.000  C
  C58      1.0000 0.64450  0.38300  0.44170  Biso   1.000  C
  C59      1.0000 0.85550  0.88300  0.05830  Biso   1.000  C
  C60      1.0000 0.35550  0.38300  0.05830  Biso   1.000  C
  C61      1.0000 0.85550  0.11700  0.55830  Biso   1.000  C
  C62      1.0000 0.35550  0.61700  0.55830  Biso   1.000  C
  C63      1.0000 0.14450  0.11700  0.94170  Biso   1.000  C
  C64      1.0000 0.64450  0.61700  0.94170  Biso   1.000  C
  H33      1.0000 0.12320  0.92390  0.47040  Biso   1.000  H
  H34      1.0000 0.62320  0.42390  0.47040  Biso   1.000  H
  H35      1.0000 0.87680  0.92390  0.02960  Biso   1.000  H
  H36      1.0000 0.37680  0.42390  0.02960  Biso   1.000  H
  H37      1.0000 0.87680  0.07610  0.52960  Biso   1.000  H
  H38      1.0000 0.37680  0.57610  0.52960  Biso   1.000  H
  H39      1.0000 0.12320  0.07610  0.97040  Biso   1.000  H
  H40      1.0000 0.62320  0.57610  0.97040  Biso   1.000  H
  C65      1.0000 0.14060  0.77840  0.44620  Biso   1.000  C
  C66      1.0000 0.64060  0.27840  0.44620  Biso   1.000  C
  C67      1.0000 0.85940  0.77840  0.05380  Biso   1.000  C
  C68      1.0000 0.35940  0.27840  0.05380  Biso   1.000  C
  C69      1.0000 0.85940  0.22160  0.55380  Biso   1.000  C
  C70      1.0000 0.35940  0.72160  0.55380  Biso   1.000  C
  C71      1.0000 0.14060  0.22160  0.94620  Biso   1.000  C
  C72      1.0000 0.64060  0.72160  0.94620  Biso   1.000  C
  H41      1.0000 0.11830  0.74870  0.47990  Biso   1.000  H
  H42      1.0000 0.61830  0.24870  0.47990  Biso   1.000  H
  H43      1.0000 0.88170  0.74870  0.02010  Biso   1.000  H
  H44      1.0000 0.38170  0.24870  0.02010  Biso   1.000  H
  H45      1.0000 0.88170  0.25130  0.52010  Biso   1.000  H
  H46      1.0000 0.38170  0.75130  0.52010  Biso   1.000  H
  H47      1.0000 0.11830  0.25130  0.97990  Biso   1.000  H
  H48      1.0000 0.61830  0.75130  0.97990  Biso   1.000  H
  C73      1.0000 0.17030  0.71530  0.39980  Biso   1.000  C
  C74      1.0000 0.67030  0.21530  0.39980  Biso   1.000  C
  C75      1.0000 0.82970  0.71530  0.10020  Biso   1.000  C
  C76      1.0000 0.32970  0.21530  0.10020  Biso   1.000  C
  C77      1.0000 0.82970  0.28470  0.60020  Biso   1.000  C
  C78      1.0000 0.32970  0.78470  0.60020  Biso   1.000  C
  C79      1.0000 0.17030  0.28470  0.89980  Biso   1.000  C
  C80      1.0000 0.67030  0.78470  0.89980  Biso   1.000  C
  C81      1.0000 0.16510  0.60600  0.40010  Biso   1.000  C
  C82      1.0000 0.66510  0.10600  0.40010  Biso   1.000  C
  C83      1.0000 0.83490  0.60600  0.09990  Biso   1.000  C
  C84      1.0000 0.33490  0.10600  0.09990  Biso   1.000  C
  C85      1.0000 0.83490  0.39400  0.59990  Biso   1.000  C
  C86      1.0000 0.33490  0.89400  0.59990  Biso   1.000  C
  C87      1.0000 0.16510  0.39400  0.90010  Biso   1.000  C
  C88      1.0000 0.66510  0.89400  0.90010  Biso   1.000  C
  H49      1.0000 0.14070  0.57500  0.43030  Biso   1.000  H
  H50      1.0000 0.64070  0.07500  0.43030  Biso   1.000  H
  H51      1.0000 0.85930  0.57500  0.06970  Biso   1.000  H
  H52      1.0000 0.35930  0.07500  0.06970  Biso   1.000  H
  H53      1.0000 0.85930  0.42500  0.56970  Biso   1.000  H
  H54      1.0000 0.35930  0.92500  0.56970  Biso   1.000  H
  H55      1.0000 0.14070  0.42500  0.93030  Biso   1.000  H
  H56      1.0000 0.64070  0.92500  0.93030  Biso   1.000  H
  C89      1.0000 0.19540  0.54680  0.35680  Biso   1.000  C
  C90      1.0000 0.69540  0.04680  0.35680  Biso   1.000  C
  C91      1.0000 0.80460  0.54680  0.14320  Biso   1.000  C
  C92      1.0000 0.30460  0.04680  0.14320  Biso   1.000  C
  C93      1.0000 0.80460  0.45320  0.64320  Biso   1.000  C
  C94      1.0000 0.30460  0.95320  0.64320  Biso   1.000  C
  C95      1.0000 0.19540  0.45320  0.85680  Biso   1.000  C
  C96      1.0000 0.69540  0.95320  0.85680  Biso   1.000  C
  C97      1.0000 0.19390  0.43150  0.36350  Biso   1.000  C
  C98      1.0000 0.69390  0.93150  0.36350  Biso   1.000  C
  C99      1.0000 0.80610  0.43150  0.13650  Biso   1.000  C
  C100     1.0000 0.30610  0.93150  0.13650  Biso   1.000  C
  C101     1.0000 0.80610  0.56850  0.63650  Biso   1.000  C
  C102     1.0000 0.30610  0.06850  0.63650  Biso   1.000  C
  C103     1.0000 0.19390  0.56850  0.86350  Biso   1.000  C
  C104     1.0000 0.69390  0.06850  0.86350  Biso   1.000  C
  C105     1.0000 0.23180  0.59320  0.30880  Biso   1.000  C
  C106     1.0000 0.73180  0.09320  0.30880  Biso   1.000  C
  C107     1.0000 0.76820  0.59320  0.19120  Biso   1.000  C
  C108     1.0000 0.26820  0.09320  0.19120  Biso   1.000  C
  C109     1.0000 0.76820  0.40680  0.69120  Biso   1.000  C
  C110     1.0000 0.26820  0.90680  0.69120  Biso   1.000  C
  C111     1.0000 0.23180  0.40680  0.80880  Biso   1.000  C
  C112     1.0000 0.73180  0.90680  0.80880  Biso   1.000  C
  H57      1.0000 0.25270  0.55190  0.27980  Biso   1.000  H
  H58      1.0000 0.75270  0.05190  0.27980  Biso   1.000  H
  H59      1.0000 0.74730  0.55190  0.22020  Biso   1.000  H
  H60      1.0000 0.24730  0.05190  0.22020  Biso   1.000  H
  H61      1.0000 0.74730  0.44810  0.72020  Biso   1.000  H
  H62      1.0000 0.24730  0.94810  0.72020  Biso   1.000  H
  H63      1.0000 0.25270  0.44810  0.77980  Biso   1.000  H
  H64      1.0000 0.75270  0.94810  0.77980  Biso   1.000  H
  C113     1.0000 0.23620  0.69800  0.30490  Biso   1.000  C
  C114     1.0000 0.73620  0.19800  0.30490  Biso   1.000  C
  C115     1.0000 0.76380  0.69800  0.19510  Biso   1.000  C
  C116     1.0000 0.26380  0.19800  0.19510  Biso   1.000  C
  C117     1.0000 0.76380  0.30200  0.69510  Biso   1.000  C
  C118     1.0000 0.26380  0.80200  0.69510  Biso   1.000  C
  C119     1.0000 0.23620  0.30200  0.80490  Biso   1.000  C
  C120     1.0000 0.73620  0.80200  0.80490  Biso   1.000  C
  H65      1.0000 0.25930  0.72740  0.27210  Biso   1.000  H
  H66      1.0000 0.75930  0.22740  0.27210  Biso   1.000  H
  H67      1.0000 0.74070  0.72740  0.22790  Biso   1.000  H
  H68      1.0000 0.24070  0.22740  0.22790  Biso   1.000  H
  H69      1.0000 0.74070  0.27260  0.72790  Biso   1.000  H
  H70      1.0000 0.24070  0.77260  0.72790  Biso   1.000  H
  H71      1.0000 0.25930  0.27260  0.77210  Biso   1.000  H
  H72      1.0000 0.75930  0.77260  0.77210  Biso   1.000  H
  C121     1.0000 0.20620  0.76120  0.35000  Biso   1.000  C
  C122     1.0000 0.70620  0.26120  0.35000  Biso   1.000  C
  C123     1.0000 0.79380  0.76120  0.15000  Biso   1.000  C
  C124     1.0000 0.29380  0.26120  0.15000  Biso   1.000  C
  C125     1.0000 0.79380  0.23880  0.65000  Biso   1.000  C
  C126     1.0000 0.29380  0.73880  0.65000  Biso   1.000  C
  C127     1.0000 0.20620  0.23880  0.85000  Biso   1.000  C
  C128     1.0000 0.70620  0.73880  0.85000  Biso   1.000  C
  C129     1.0000 0.21070  0.87090  0.35010  Biso   1.000  C
  C130     1.0000 0.71070  0.37090  0.35010  Biso   1.000  C
  C131     1.0000 0.78930  0.87090  0.14990  Biso   1.000  C
  C132     1.0000 0.28930  0.37090  0.14990  Biso   1.000  C
  C133     1.0000 0.78930  0.12910  0.64990  Biso   1.000  C
  C134     1.0000 0.28930  0.62910  0.64990  Biso   1.000  C
  C135     1.0000 0.21070  0.12910  0.85010  Biso   1.000  C
  C136     1.0000 0.71070  0.62910  0.85010  Biso   1.000  C
  H73      1.0000 0.23480  0.90220  0.31970  Biso   1.000  H
  H74      1.0000 0.73480  0.40220  0.31970  Biso   1.000  H
  H75      1.0000 0.76520  0.90220  0.18030  Biso   1.000  H
  H76      1.0000 0.26520  0.40220  0.18030  Biso   1.000  H
  H77      1.0000 0.76520  0.09780  0.68030  Biso   1.000  H
  H78      1.0000 0.26520  0.59780  0.68030  Biso   1.000  H
  H79      1.0000 0.23480  0.09780  0.81970  Biso   1.000  H
  H80      1.0000 0.73480  0.59780  0.81970  Biso   1.000  H
  C137     1.0000 0.04800  0.25720  0.17490  Biso   1.000  C
  C138     1.0000 0.54800  0.75720  0.17490  Biso   1.000  C
  C139     1.0000 0.95200  0.25720  0.32510  Biso   1.000  C
  C140     1.0000 0.45200  0.75720  0.32510  Biso   1.000  C
  C141     1.0000 0.95200  0.74280  0.82510  Biso   1.000  C
  C142     1.0000 0.45200  0.24280  0.82510  Biso   1.000  C
  C143     1.0000 0.04800  0.74280  0.67490  Biso   1.000  C
  C144     1.0000 0.54800  0.24280  0.67490  Biso   1.000  C
  C145     1.0000 0.04110  0.34930  0.11330  Biso   1.000  C
  C146     1.0000 0.54110  0.84930  0.11330  Biso   1.000  C
  C147     1.0000 0.95890  0.34930  0.38670  Biso   1.000  C
  C148     1.0000 0.45890  0.84930  0.38670  Biso   1.000  C
  C149     1.0000 0.95890  0.65070  0.88670  Biso   1.000  C
  C150     1.0000 0.45890  0.15070  0.88670  Biso   1.000  C
  C151     1.0000 0.04110  0.65070  0.61330  Biso   1.000  C
  C152     1.0000 0.54110  0.15070  0.61330  Biso   1.000  C
  C153     1.0000 0.97670  0.38240  0.04790  Biso   1.000  C
  C154     1.0000 0.47670  0.88240  0.04790  Biso   1.000  C
  C155     1.0000 0.02330  0.38240  0.45210  Biso   1.000  C
  C156     1.0000 0.52330  0.88240  0.45210  Biso   1.000  C
  C157     1.0000 0.02330  0.61760  0.95210  Biso   1.000  C
  C158     1.0000 0.52330  0.11760  0.95210  Biso   1.000  C
  C159     1.0000 0.97670  0.61760  0.54790  Biso   1.000  C
  C160     1.0000 0.47670  0.11760  0.54790  Biso   1.000  C
  H81      1.0000 0.93750  0.34490  0.03980  Biso   1.000  H
  H82      1.0000 0.43750  0.84490  0.03980  Biso   1.000  H
  H83      1.0000 0.06250  0.34490  0.46020  Biso   1.000  H
  H84      1.0000 0.56250  0.84490  0.46020  Biso   1.000  H
  H85      1.0000 0.06250  0.65510  0.96020  Biso   1.000  H
  H86      1.0000 0.56250  0.15510  0.96020  Biso   1.000  H
  H87      1.0000 0.93750  0.65510  0.53980  Biso   1.000  H
  H88      1.0000 0.43750  0.15510  0.53980  Biso   1.000  H
  C161     1.0000 0.96940  0.47110  0.99400  Biso   1.000  C
  C162     1.0000 0.46940  0.97110  0.99400  Biso   1.000  C
  C163     1.0000 0.03060  0.47110  0.50600  Biso   1.000  C
  C164     1.0000 0.53060  0.97110  0.50600  Biso   1.000  C
  C165     1.0000 0.03060  0.52890  0.00600  Biso   1.000  C
  C166     1.0000 0.53060  0.02890  0.00600  Biso   1.000  C
  C167     1.0000 0.96940  0.52890  0.49400  Biso   1.000  C
  C168     1.0000 0.46940  0.02890  0.49400  Biso   1.000  C
  C169     1.0000 0.90390  0.50710  0.92550  Biso   1.000  C
  C170     1.0000 0.40390  0.00710  0.92550  Biso   1.000  C
  C171     1.0000 0.09610  0.50710  0.57450  Biso   1.000  C
  C172     1.0000 0.59610  0.00710  0.57450  Biso   1.000  C
  C173     1.0000 0.09610  0.49290  0.07450  Biso   1.000  C
  C174     1.0000 0.59610  0.99290  0.07450  Biso   1.000  C
  C175     1.0000 0.90390  0.49290  0.42550  Biso   1.000  C
  C176     1.0000 0.40390  0.99290  0.42550  Biso   1.000  C
  H89      1.0000 0.86410  0.47030  0.91600  Biso   1.000  H
  H90      1.0000 0.36410  0.97030  0.91600  Biso   1.000  H
  H91      1.0000 0.13590  0.47030  0.58400  Biso   1.000  H
  H92      1.0000 0.63590  0.97030  0.58400  Biso   1.000  H
  H93      1.0000 0.13590  0.52970  0.08400  Biso   1.000  H
  H94      1.0000 0.63590  0.02970  0.08400  Biso   1.000  H
  H95      1.0000 0.86410  0.52970  0.41600  Biso   1.000  H
  H96      1.0000 0.36410  0.02970  0.41600  Biso   1.000  H
  C177     1.0000 0.10190  0.40670  0.12570  Biso   1.000  C
  C178     1.0000 0.60190  0.90670  0.12570  Biso   1.000  C
  C179     1.0000 0.89810  0.40670  0.37430  Biso   1.000  C
  C180     1.0000 0.39810  0.90670  0.37430  Biso   1.000  C
  C181     1.0000 0.89810  0.59330  0.87430  Biso   1.000  C
  C182     1.0000 0.39810  0.09330  0.87430  Biso   1.000  C
  C183     1.0000 0.10190  0.59330  0.62570  Biso   1.000  C
  C184     1.0000 0.60190  0.09330  0.62570  Biso   1.000  C
  H97      1.0000 0.14530  0.38440  0.16930  Biso   1.000  H
  H98      1.0000 0.64530  0.88440  0.16930  Biso   1.000  H
  H99      1.0000 0.85470  0.38440  0.33070  Biso   1.000  H
  H100     1.0000 0.35470  0.88440  0.33070  Biso   1.000  H
  H101     1.0000 0.85470  0.61560  0.83070  Biso   1.000  H
  H102     1.0000 0.35470  0.11560  0.83070  Biso   1.000  H
  H103     1.0000 0.14530  0.61560  0.66930  Biso   1.000  H
  H104     1.0000 0.64530  0.11560  0.66930  Biso   1.000  H
