data_image0
_cell_length_a       10.8222
_cell_length_b       8.7872
_cell_length_c       11.9314
_cell_angle_alpha    90
_cell_angle_beta     108.024
_cell_angle_gamma    90

_symmetry_space_group_name_H-M    "P 1"
_symmetry_int_tables_number       1

loop_
  _symmetry_equiv_pos_as_xyz
  'x, y, z'

loop_
  _atom_site_label
  _atom_site_occupancy
  _atom_site_fract_x
  _atom_site_fract_y
  _atom_site_fract_z
  _atom_site_thermal_displace_type
  _atom_site_B_iso_or_equiv
  _atom_site_type_symbol
  Cu1      1.0000 0.63000  0.47260  0.59262  Biso   1.000  Cu
  Cu2      1.0000 0.87000  0.97260  0.90738  Biso   1.000  Cu
  Cu3      1.0000 0.37000  0.52740  0.40738  Biso   1.000  Cu
  Cu4      1.0000 0.13000  0.02740  0.09262  Biso   1.000  Cu
  O1       1.0000 0.53165  0.42090  0.42842  Biso   1.000  O
  O2       1.0000 0.96835  0.92090  0.07158  Biso   1.000  O
  O3       1.0000 0.46835  0.57910  0.57158  Biso   1.000  O
  O4       1.0000 0.03165  0.07910  0.92842  Biso   1.000  O
  S1       1.0000 0.85781  0.68356  0.70437  Biso   1.000  S
  S2       1.0000 0.64219  0.18356  0.79563  Biso   1.000  S
  S3       1.0000 0.14219  0.31644  0.29563  Biso   1.000  S
  S4       1.0000 0.35781  0.81644  0.20437  Biso   1.000  S
  O5       1.0000 0.73751  0.61326  0.71674  Biso   1.000  O
  O6       1.0000 0.76249  0.11326  0.78326  Biso   1.000  O
  O7       1.0000 0.26249  0.38674  0.28326  Biso   1.000  O
  O8       1.0000 0.23751  0.88674  0.21674  Biso   1.000  O
  O9       1.0000 0.83238  0.77130  0.59832  Biso   1.000  O
  O10      1.0000 0.66762  0.27130  0.90168  Biso   1.000  O
  O11      1.0000 0.16762  0.22870  0.40168  Biso   1.000  O
  O12      1.0000 0.33238  0.72870  0.09832  Biso   1.000  O
  O13      1.0000 0.92584  0.76514  0.81133  Biso   1.000  O
  O14      1.0000 0.57416  0.26514  0.68867  Biso   1.000  O
  O15      1.0000 0.07416  0.23486  0.18867  Biso   1.000  O
  O16      1.0000 0.42584  0.73486  0.31133  Biso   1.000  O
  C1       1.0000 0.58676  0.37420  0.34647  Biso   1.000  C
  C2       1.0000 0.91324  0.87420  0.15353  Biso   1.000  C
  C3       1.0000 0.41324  0.62580  0.65353  Biso   1.000  C
  C4       1.0000 0.08676  0.12580  0.84647  Biso   1.000  C
  C5       1.0000 0.53900  0.41890  0.22938  Biso   1.000  C
  C6       1.0000 0.96100  0.91890  0.27062  Biso   1.000  C
  C7       1.0000 0.46100  0.58110  0.77062  Biso   1.000  C
  C8       1.0000 0.03900  0.08110  0.72938  Biso   1.000  C
  H1       1.0000 0.46450  0.48050  0.20430  Biso   1.000  H
  H2       1.0000 0.03550  0.98050  0.29570  Biso   1.000  H
  H3       1.0000 0.53550  0.51950  0.79570  Biso   1.000  H
  H4       1.0000 0.96450  0.01950  0.70430  Biso   1.000  H
  C9       1.0000 0.60120  0.37290  0.14918  Biso   1.000  C
  C10      1.0000 0.89880  0.87290  0.35082  Biso   1.000  C
  C11      1.0000 0.39880  0.62710  0.85082  Biso   1.000  C
  C12      1.0000 0.10120  0.12710  0.64918  Biso   1.000  C
  H5       1.0000 0.56790  0.40350  0.07000  Biso   1.000  H
  H6       1.0000 0.93210  0.90350  0.43000  Biso   1.000  H
  H7       1.0000 0.43210  0.59650  0.93000  Biso   1.000  H
  H8       1.0000 0.06790  0.09650  0.57000  Biso   1.000  H
  C13      1.0000 0.71110  0.28280  0.18403  Biso   1.000  C
  C14      1.0000 0.78890  0.78280  0.31597  Biso   1.000  C
  C15      1.0000 0.28890  0.71720  0.81597  Biso   1.000  C
  C16      1.0000 0.21110  0.21720  0.68403  Biso   1.000  C
  H9       1.0000 0.75370  0.25320  0.12970  Biso   1.000  H
  H10      1.0000 0.74630  0.75320  0.37030  Biso   1.000  H
  H11      1.0000 0.24630  0.74680  0.87030  Biso   1.000  H
  H12      1.0000 0.25370  0.24680  0.62970  Biso   1.000  H
  C17      1.0000 0.75720  0.23700  0.30048  Biso   1.000  C
  C18      1.0000 0.74280  0.73700  0.19952  Biso   1.000  C
  C19      1.0000 0.24280  0.76300  0.69952  Biso   1.000  C
  C20      1.0000 0.25720  0.26300  0.80048  Biso   1.000  C
  H13      1.0000 0.83180  0.17540  0.32490  Biso   1.000  H
  H14      1.0000 0.66820  0.67540  0.17510  Biso   1.000  H
  H15      1.0000 0.16820  0.82460  0.67510  Biso   1.000  H
  H16      1.0000 0.33180  0.32460  0.82490  Biso   1.000  H
  C21      1.0000 0.69630  0.27950  0.38212  Biso   1.000  C
  C22      1.0000 0.80370  0.77950  0.11788  Biso   1.000  C
  C23      1.0000 0.30370  0.72050  0.61788  Biso   1.000  C
  C24      1.0000 0.19630  0.22050  0.88212  Biso   1.000  C
  C25      1.0000 0.74360  0.22190  0.50634  Biso   1.000  C
  C26      1.0000 0.75640  0.72190  0.99366  Biso   1.000  C
  C27      1.0000 0.25640  0.77810  0.49366  Biso   1.000  C
  C28      1.0000 0.24360  0.27810  0.00634  Biso   1.000  C
  H17      1.0000 0.67440  0.16250  0.52260  Biso   1.000  H
  H18      1.0000 0.82560  0.66250  0.97740  Biso   1.000  H
  H19      1.0000 0.32560  0.83750  0.47740  Biso   1.000  H
  H20      1.0000 0.17440  0.33750  0.02260  Biso   1.000  H
  H21      1.0000 0.81780  0.15400  0.51500  Biso   1.000  H
  H22      1.0000 0.68220  0.65400  0.98500  Biso   1.000  H
  H23      1.0000 0.18220  0.84600  0.48500  Biso   1.000  H
  H24      1.0000 0.31780  0.34600  0.01500  Biso   1.000  H
  N1       1.0000 0.78346  0.34770  0.59428  Biso   1.000  N
  N2       1.0000 0.71654  0.84770  0.90572  Biso   1.000  N
  N3       1.0000 0.21654  0.65230  0.40572  Biso   1.000  N
  N4       1.0000 0.28346  0.15230  0.09428  Biso   1.000  N
  H25      1.0000 0.81140  0.30190  0.66720  Biso   1.000  H
  H26      1.0000 0.68860  0.80190  0.83280  Biso   1.000  H
  H27      1.0000 0.18860  0.69810  0.33280  Biso   1.000  H
  H28      1.0000 0.31140  0.19810  0.16720  Biso   1.000  H
  C29      1.0000 0.89520  0.43480  0.58210  Biso   1.000  C
  C30      1.0000 0.60480  0.93480  0.91790  Biso   1.000  C
  C31      1.0000 0.10480  0.56520  0.41790  Biso   1.000  C
  C32      1.0000 0.39520  0.06520  0.08210  Biso   1.000  C
  H29      1.0000 0.86590  0.50210  0.51350  Biso   1.000  H
  H30      1.0000 0.63410  0.00210  0.98650  Biso   1.000  H
  H31      1.0000 0.13410  0.49790  0.48650  Biso   1.000  H
  H32      1.0000 0.36590  0.99790  0.01350  Biso   1.000  H
  H33      1.0000 0.95950  0.36440  0.56900  Biso   1.000  H
  H34      1.0000 0.54050  0.86440  0.93100  Biso   1.000  H
  H35      1.0000 0.04050  0.63560  0.43100  Biso   1.000  H
  H36      1.0000 0.45950  0.13560  0.06900  Biso   1.000  H
  C33      1.0000 0.95780  0.52910  0.69170  Biso   1.000  C
  C34      1.0000 0.54220  0.02910  0.80830  Biso   1.000  C
  C35      1.0000 0.04220  0.47090  0.30830  Biso   1.000  C
  C36      1.0000 0.45780  0.97090  0.19170  Biso   1.000  C
  H37      1.0000 0.04140  0.56830  0.68860  Biso   1.000  H
  H38      1.0000 0.45860  0.06830  0.81140  Biso   1.000  H
  H39      1.0000 0.95860  0.43170  0.31140  Biso   1.000  H
  H40      1.0000 0.54140  0.93170  0.18860  Biso   1.000  H
  H41      1.0000 0.97440  0.46410  0.76160  Biso   1.000  H
  H42      1.0000 0.52560  0.96410  0.73840  Biso   1.000  H
  H43      1.0000 0.02560  0.53590  0.23840  Biso   1.000  H
  H44      1.0000 0.47440  0.03590  0.26160  Biso   1.000  H
  O17      1.0000 0.57990  0.91180  0.53640  Biso   1.000  O
  O18      1.0000 0.92010  0.41180  0.96360  Biso   1.000  O
  O19      1.0000 0.42010  0.08820  0.46360  Biso   1.000  O
  O20      1.0000 0.07990  0.58820  0.03640  Biso   1.000  O
