data_image0
_cell_length_a       10.7126
_cell_length_b       13.0719
_cell_length_c       4.9272
_cell_angle_alpha    92.067
_cell_angle_beta     95.902
_cell_angle_gamma    87.847

_symmetry_space_group_name_H-M    "P 1"
_symmetry_int_tables_number       1

loop_
  _symmetry_equiv_pos_as_xyz
  'x, y, z'

loop_
  _atom_site_label
  _atom_site_occupancy
  _atom_site_fract_x
  _atom_site_fract_y
  _atom_site_fract_z
  _atom_site_thermal_displace_type
  _atom_site_B_iso_or_equiv
  _atom_site_type_symbol
  P1       1.0000 0.10480  0.29400  0.59600  Biso   1.000  P
  P2       1.0000 0.89520  0.70600  0.40400  Biso   1.000  P
  P3       1.0000 0.84970  0.39790  0.36580  Biso   1.000  P
  P4       1.0000 0.15030  0.60210  0.63420  Biso   1.000  P
  O1       1.0000 0.09350  0.32040  0.89280  Biso   1.000  O
  O2       1.0000 0.90650  0.67960  0.10720  Biso   1.000  O
  O3       1.0000 0.17450  0.35640  0.43490  Biso   1.000  O
  O4       1.0000 0.82550  0.64360  0.56510  Biso   1.000  O
  C1       1.0000 0.16760  0.16390  0.57140  Biso   1.000  C
  C2       1.0000 0.83240  0.83610  0.42860  Biso   1.000  C
  C3       1.0000 0.70090  0.35740  0.22590  Biso   1.000  C
  C4       1.0000 0.29910  0.64260  0.77410  Biso   1.000  C
  C5       1.0000 0.94510  0.27900  0.42430  Biso   1.000  C
  C6       1.0000 0.05490  0.72100  0.57570  Biso   1.000  C
  C7       1.0000 0.26210  0.13880  0.39360  Biso   1.000  C
  C8       1.0000 0.73790  0.86120  0.60640  Biso   1.000  C
  C9       1.0000 0.31970  0.04340  0.39700  Biso   1.000  C
  C10      1.0000 0.68030  0.95660  0.60300  Biso   1.000  C
  C11      1.0000 0.29000  0.97170  0.59000  Biso   1.000  C
  C12      1.0000 0.71000  0.02830  0.41000  Biso   1.000  C
  C13      1.0000 0.19120  0.99460  0.75380  Biso   1.000  C
  C14      1.0000 0.80880  0.00540  0.24620  Biso   1.000  C
  C15      1.0000 0.12870  0.08910  0.73910  Biso   1.000  C
  C16      1.0000 0.87130  0.91090  0.26090  Biso   1.000  C
  C17      1.0000 0.69100  0.29120  0.00300  Biso   1.000  C
  C18      1.0000 0.30900  0.70880  0.99700  Biso   1.000  C
  C19      1.0000 0.57140  0.26630  0.87620  Biso   1.000  C
  C20      1.0000 0.42860  0.73370  0.12380  Biso   1.000  C
  C21      1.0000 0.46240  0.31340  0.97020  Biso   1.000  C
  C22      1.0000 0.53760  0.68660  0.02980  Biso   1.000  C
  C23      1.0000 0.47200  0.37510  0.20190  Biso   1.000  C
  C24      1.0000 0.52800  0.62490  0.79810  Biso   1.000  C
  C25      1.0000 0.59090  0.39810  0.33400  Biso   1.000  C
  C26      1.0000 0.40910  0.60190  0.66600  Biso   1.000  C
  O5       1.0000 0.90810  0.46580  0.19580  Biso   1.000  O
  O6       1.0000 0.09190  0.53420  0.80420  Biso   1.000  O
  O7       1.0000 0.83390  0.43950  0.65220  Biso   1.000  O
  O8       1.0000 0.16610  0.56050  0.34780  Biso   1.000  O
  Cu1      1.0000 0.12430  0.44150  0.10460  Biso   1.000  Cu
  Cu2      1.0000 0.87570  0.55850  0.89540  Biso   1.000  Cu
