data_image0
_cell_length_a       7.774
_cell_length_b       11.235
_cell_length_c       6.463
_cell_angle_alpha    90
_cell_angle_beta     92.15
_cell_angle_gamma    90

_symmetry_space_group_name_H-M    "P 1"
_symmetry_int_tables_number       1

loop_
  _symmetry_equiv_pos_as_xyz
  'x, y, z'

loop_
  _atom_site_label
  _atom_site_occupancy
  _atom_site_fract_x
  _atom_site_fract_y
  _atom_site_fract_z
  _atom_site_thermal_displace_type
  _atom_site_B_iso_or_equiv
  _atom_site_type_symbol
  Cu1      1.0000 0.82340  0.70220  0.69890  Biso   1.000  Cu
  Cu2      1.0000 0.17660  0.20220  0.30110  Biso   1.000  Cu
  Cl1      1.0000 0.79880  0.58770  0.41470  Biso   1.000  Cl
  Cl2      1.0000 0.20120  0.08770  0.58530  Biso   1.000  Cl
  O1       1.0000 0.06100  0.64250  0.78390  Biso   1.000  O
  O2       1.0000 0.93900  0.14250  0.21610  Biso   1.000  O
  O3       1.0000 0.58450  0.77080  0.69490  Biso   1.000  O
  O4       1.0000 0.41550  0.27080  0.30510  Biso   1.000  O
  O5       1.0000 0.66250  0.57240  0.92160  Biso   1.000  O
  O6       1.0000 0.33750  0.07240  0.07840  Biso   1.000  O
  O7       1.0000 0.32410  0.47640  0.91150  Biso   1.000  O
  O8       1.0000 0.67590  0.97640  0.08850  Biso   1.000  O
  O9       1.0000 0.87150  0.80130  0.93950  Biso   1.000  O
  O10      1.0000 0.12850  0.30130  0.06050  Biso   1.000  O
  O11      1.0000 0.07310  0.88050  0.14520  Biso   1.000  O
  O12      1.0000 0.92690  0.38050  0.85480  Biso   1.000  O
  O13      1.0000 0.89820  0.87580  0.51460  Biso   1.000  O
  O14      1.0000 0.10180  0.37580  0.48540  Biso   1.000  O
  O15      1.0000 0.45670  0.87330  0.36620  Biso   1.000  O
  O16      1.0000 0.54330  0.37330  0.63380  Biso   1.000  O
  C1       1.0000 0.15390  0.71450  0.93630  Biso   1.000  C
  C2       1.0000 0.84610  0.21450  0.06370  Biso   1.000  C
  C3       1.0000 0.29840  0.78200  0.82900  Biso   1.000  C
  C4       1.0000 0.70160  0.28200  0.17100  Biso   1.000  C
  C5       1.0000 0.44670  0.70070  0.77640  Biso   1.000  C
  C6       1.0000 0.55330  0.20070  0.22360  Biso   1.000  C
  C7       1.0000 0.51500  0.64050  0.97200  Biso   1.000  C
  C8       1.0000 0.48500  0.14050  0.02800  Biso   1.000  C
  C9       1.0000 0.37520  0.56340  0.06460  Biso   1.000  C
  C10      1.0000 0.62480  0.06340  0.93540  Biso   1.000  C
  C11      1.0000 0.22230  0.64150  0.11780  Biso   1.000  C
  C12      1.0000 0.77770  0.14150  0.88220  Biso   1.000  C
  C13      1.0000 0.02420  0.80830  0.01330  Biso   1.000  C
  C14      1.0000 0.97580  0.30830  0.98670  Biso   1.000  C
  H1       1.0000 0.24400  0.81400  0.70400  Biso   1.000  H
  H2       1.0000 0.75600  0.31400  0.29600  Biso   1.000  H
  H3       1.0000 0.33500  0.85200  0.93200  Biso   1.000  H
  H4       1.0000 0.66500  0.35200  0.06800  Biso   1.000  H
  H5       1.0000 0.41700  0.62900  0.65200  Biso   1.000  H
  H6       1.0000 0.58300  0.12900  0.34800  Biso   1.000  H
  H7       1.0000 0.54500  0.79700  0.56900  Biso   1.000  H
  H8       1.0000 0.45500  0.29700  0.43100  Biso   1.000  H
  H9       1.0000 0.54900  0.69900  0.08300  Biso   1.000  H
  H10      1.0000 0.45100  0.19900  0.91700  Biso   1.000  H
  H11      1.0000 0.71700  0.56500  0.05500  Biso   1.000  H
  H12      1.0000 0.28300  0.06500  0.94500  Biso   1.000  H
  H13      1.0000 0.42200  0.53600  0.19600  Biso   1.000  H
  H14      1.0000 0.57800  0.03600  0.80400  Biso   1.000  H
  H15      1.0000 0.25800  0.69300  0.24500  Biso   1.000  H
  H16      1.0000 0.74200  0.19300  0.75500  Biso   1.000  H
  H17      1.0000 0.13400  0.59800  0.17300  Biso   1.000  H
  H18      1.0000 0.86600  0.09800  0.82700  Biso   1.000  H
  H19      1.0000 0.92900  0.87800  0.38800  Biso   1.000  H
  H20      1.0000 0.07100  0.37800  0.61200  Biso   1.000  H
  H21      1.0000 0.91700  0.90600  0.64600  Biso   1.000  H
  H22      1.0000 0.08300  0.40600  0.35400  Biso   1.000  H
  H23      1.0000 0.46700  0.87700  0.27300  Biso   1.000  H
  H24      1.0000 0.53300  0.37700  0.72700  Biso   1.000  H
