data_image0
_cell_length_a       12.9735
_cell_length_b       12.9735
_cell_length_c       11.5283
_cell_angle_alpha    90
_cell_angle_beta     90
_cell_angle_gamma    90

_symmetry_space_group_name_H-M    "P 1"
_symmetry_int_tables_number       1

loop_
  _symmetry_equiv_pos_as_xyz
  'x, y, z'

loop_
  _atom_site_label
  _atom_site_occupancy
  _atom_site_fract_x
  _atom_site_fract_y
  _atom_site_fract_z
  _atom_site_thermal_displace_type
  _atom_site_B_iso_or_equiv
  _atom_site_type_symbol
  O1       1.0000 0.97670  0.30280  0.92450  Biso   1.000  O
  O2       1.0000 0.02330  0.69720  0.92450  Biso   1.000  O
  O3       1.0000 0.69720  0.97670  0.42450  Biso   1.000  O
  O4       1.0000 0.30280  0.02330  0.42450  Biso   1.000  O
  O5       1.0000 0.52110  0.18040  0.39030  Biso   1.000  O
  O6       1.0000 0.47890  0.81960  0.39030  Biso   1.000  O
  O7       1.0000 0.81960  0.52110  0.89030  Biso   1.000  O
  O8       1.0000 0.18040  0.47890  0.89030  Biso   1.000  O
  C1       1.0000 0.46360  0.21040  0.30820  Biso   1.000  C
  C2       1.0000 0.53640  0.78960  0.30820  Biso   1.000  C
  C3       1.0000 0.78960  0.46360  0.80820  Biso   1.000  C
  C4       1.0000 0.21040  0.53640  0.80820  Biso   1.000  C
  C5       1.0000 0.03230  0.27950  0.00800  Biso   1.000  C
  C6       1.0000 0.96770  0.72050  0.00800  Biso   1.000  C
  C7       1.0000 0.72050  0.03230  0.50800  Biso   1.000  C
  C8       1.0000 0.27950  0.96770  0.50800  Biso   1.000  C
  O9       1.0000 0.36740  0.21770  0.31330  Biso   1.000  O
  O10      1.0000 0.63260  0.78230  0.31330  Biso   1.000  O
  O11      1.0000 0.78230  0.36740  0.81330  Biso   1.000  O
  O12      1.0000 0.21770  0.63260  0.81330  Biso   1.000  O
  O13      1.0000 0.13010  0.27950  0.00420  Biso   1.000  O
  O14      1.0000 0.86990  0.72050  0.00420  Biso   1.000  O
  O15      1.0000 0.72050  0.13010  0.50420  Biso   1.000  O
  O16      1.0000 0.27950  0.86990  0.50420  Biso   1.000  O
  S1       1.0000 0.38230  0.30710  0.95070  Biso   1.000  S
  S2       1.0000 0.61770  0.69290  0.95070  Biso   1.000  S
  S3       1.0000 0.69290  0.38230  0.45070  Biso   1.000  S
  S4       1.0000 0.30710  0.61770  0.45070  Biso   1.000  S
  S5       1.0000 0.12350  0.22680  0.35620  Biso   1.000  S
  S6       1.0000 0.87650  0.77320  0.35620  Biso   1.000  S
  S7       1.0000 0.77320  0.12350  0.85620  Biso   1.000  S
  S8       1.0000 0.22680  0.87650  0.85620  Biso   1.000  S
  C9       1.0000 0.02030  0.14260  0.16450  Biso   1.000  C
  C10      1.0000 0.97970  0.85740  0.16450  Biso   1.000  C
  C11      1.0000 0.85740  0.02030  0.66450  Biso   1.000  C
  C12      1.0000 0.14260  0.97970  0.66450  Biso   1.000  C
  H1       1.0000 0.96650  0.11220  0.21490  Biso   1.000  H
  H2       1.0000 0.03350  0.88780  0.21490  Biso   1.000  H
  H3       1.0000 0.88780  0.96650  0.71490  Biso   1.000  H
  H4       1.0000 0.11220  0.03350  0.71490  Biso   1.000  H
  H5       1.0000 0.02750  0.09740  0.09580  Biso   1.000  H
  H6       1.0000 0.97250  0.90260  0.09580  Biso   1.000  H
  H7       1.0000 0.90260  0.02750  0.59580  Biso   1.000  H
  H8       1.0000 0.09740  0.97250  0.59580  Biso   1.000  H
  Cu1      1.0000 0.67258  0.18999  0.36010  Biso   1.000  Cu
  Cu2      1.0000 0.32742  0.81001  0.36010  Biso   1.000  Cu
  Cu3      1.0000 0.81001  0.67258  0.86010  Biso   1.000  Cu
  Cu4      1.0000 0.18999  0.32742  0.86010  Biso   1.000  Cu
  Cu5      1.0000 0.82491  0.30170  0.95744  Biso   1.000  Cu
  Cu6      1.0000 0.17509  0.69830  0.95744  Biso   1.000  Cu
  Cu7      1.0000 0.69830  0.82491  0.45744  Biso   1.000  Cu
  Cu8      1.0000 0.30170  0.17509  0.45744  Biso   1.000  Cu
  O17      1.0000 0.81340  0.20410  0.28880  Biso   1.000  O
  O18      1.0000 0.18660  0.79590  0.28880  Biso   1.000  O
  O19      1.0000 0.79590  0.81340  0.78880  Biso   1.000  O
  O20      1.0000 0.20410  0.18660  0.78880  Biso   1.000  O
  O21      1.0000 0.68470  0.29530  0.03480  Biso   1.000  O
  O22      1.0000 0.31530  0.70470  0.03480  Biso   1.000  O
  O23      1.0000 0.70470  0.68470  0.53480  Biso   1.000  O
  O24      1.0000 0.29530  0.31530  0.53480  Biso   1.000  O
  N1       1.0000 0.62390  0.22880  0.21020  Biso   1.000  N
  N2       1.0000 0.37610  0.77120  0.21020  Biso   1.000  N
  N3       1.0000 0.77120  0.62390  0.71020  Biso   1.000  N
  N4       1.0000 0.22880  0.37610  0.71020  Biso   1.000  N
  N5       1.0000 0.87240  0.25550  0.10450  Biso   1.000  N
  N6       1.0000 0.12760  0.74450  0.10450  Biso   1.000  N
  N7       1.0000 0.74450  0.87240  0.60450  Biso   1.000  N
  N8       1.0000 0.25550  0.12760  0.60450  Biso   1.000  N
  C13      1.0000 0.80210  0.23760  0.18290  Biso   1.000  C
  C14      1.0000 0.19790  0.76240  0.18290  Biso   1.000  C
  C15      1.0000 0.76240  0.80210  0.68290  Biso   1.000  C
  C16      1.0000 0.23760  0.19790  0.68290  Biso   1.000  C
  C17      1.0000 0.98340  0.24900  0.12380  Biso   1.000  C
  C18      1.0000 0.01660  0.75100  0.12380  Biso   1.000  C
  C19      1.0000 0.75100  0.98340  0.62380  Biso   1.000  C
  C20      1.0000 0.24900  0.01660  0.62380  Biso   1.000  C
  H9       1.0000 0.00310  0.30130  0.18350  Biso   1.000  H
  H10      1.0000 0.99690  0.69870  0.18350  Biso   1.000  H
  H11      1.0000 0.69870  0.00310  0.68350  Biso   1.000  H
  H12      1.0000 0.30130  0.99690  0.68350  Biso   1.000  H
  C21      1.0000 0.51480  0.23800  0.19180  Biso   1.000  C
  C22      1.0000 0.48520  0.76200  0.19180  Biso   1.000  C
  C23      1.0000 0.76200  0.51480  0.69180  Biso   1.000  C
  C24      1.0000 0.23800  0.48520  0.69180  Biso   1.000  C
  H13      1.0000 0.49780  0.31090  0.17120  Biso   1.000  H
  H14      1.0000 0.50220  0.68910  0.17120  Biso   1.000  H
  H15      1.0000 0.68910  0.49780  0.67120  Biso   1.000  H
  H16      1.0000 0.31090  0.50220  0.67120  Biso   1.000  H
  C25      1.0000 0.69430  0.25700  0.13570  Biso   1.000  C
  C26      1.0000 0.30570  0.74300  0.13570  Biso   1.000  C
  C27      1.0000 0.74300  0.69430  0.63570  Biso   1.000  C
  C28      1.0000 0.25700  0.30570  0.63570  Biso   1.000  C
  C29      1.0000 0.12270  0.14210  0.23100  Biso   1.000  C
  C30      1.0000 0.87730  0.85790  0.23100  Biso   1.000  C
  C31      1.0000 0.85790  0.12270  0.73100  Biso   1.000  C
  C32      1.0000 0.14210  0.87730  0.73100  Biso   1.000  C
  H17      1.0000 0.17860  0.16320  0.17760  Biso   1.000  H
  H18      1.0000 0.82140  0.83680  0.17760  Biso   1.000  H
  H19      1.0000 0.83680  0.17860  0.67760  Biso   1.000  H
  H20      1.0000 0.16320  0.82140  0.67760  Biso   1.000  H
  H21      1.0000 0.13750  0.07090  0.25700  Biso   1.000  H
  H22      1.0000 0.86250  0.92910  0.25700  Biso   1.000  H
  H23      1.0000 0.92910  0.13750  0.75700  Biso   1.000  H
  H24      1.0000 0.07090  0.86250  0.75700  Biso   1.000  H
  C33      1.0000 0.47550  0.16490  0.09390  Biso   1.000  C
  C34      1.0000 0.52450  0.83510  0.09390  Biso   1.000  C
  C35      1.0000 0.83510  0.47550  0.59390  Biso   1.000  C
  C36      1.0000 0.16490  0.52450  0.59390  Biso   1.000  C
  H25      1.0000 0.52740  0.16380  0.03100  Biso   1.000  H
  H26      1.0000 0.47260  0.83620  0.03100  Biso   1.000  H
  H27      1.0000 0.83620  0.52740  0.53100  Biso   1.000  H
  H28      1.0000 0.16380  0.47260  0.53100  Biso   1.000  H
  H29      1.0000 0.47080  0.09420  0.12570  Biso   1.000  H
  H30      1.0000 0.52920  0.90580  0.12570  Biso   1.000  H
  H31      1.0000 0.90580  0.47080  0.62570  Biso   1.000  H
  H32      1.0000 0.09420  0.52920  0.62570  Biso   1.000  H
  C37      1.0000 0.02820  0.16520  0.44880  Biso   1.000  C
  C38      1.0000 0.97180  0.83480  0.44880  Biso   1.000  C
  C39      1.0000 0.83480  0.02820  0.94880  Biso   1.000  C
  C40      1.0000 0.16520  0.97180  0.94880  Biso   1.000  C
  H33      1.0000 0.02100  0.20470  0.52090  Biso   1.000  H
  H34      1.0000 0.97900  0.79530  0.52090  Biso   1.000  H
  H35      1.0000 0.79530  0.02100  0.02090  Biso   1.000  H
  H36      1.0000 0.20470  0.97900  0.02090  Biso   1.000  H
  H37      1.0000 0.05050  0.09490  0.46700  Biso   1.000  H
  H38      1.0000 0.94950  0.90510  0.46700  Biso   1.000  H
  H39      1.0000 0.90510  0.05050  0.96700  Biso   1.000  H
  H40      1.0000 0.09490  0.94950  0.96700  Biso   1.000  H
  H41      1.0000 0.96170  0.16300  0.40850  Biso   1.000  H
  H42      1.0000 0.03830  0.83700  0.40850  Biso   1.000  H
  H43      1.0000 0.83700  0.96170  0.90850  Biso   1.000  H
  H44      1.0000 0.16300  0.03830  0.90850  Biso   1.000  H
  C41      1.0000 0.37280  0.19280  0.04210  Biso   1.000  C
  C42      1.0000 0.62720  0.80720  0.04210  Biso   1.000  C
  C43      1.0000 0.80720  0.37280  0.54210  Biso   1.000  C
  C44      1.0000 0.19280  0.62720  0.54210  Biso   1.000  C
  H45      1.0000 0.32270  0.20580  0.10510  Biso   1.000  H
  H46      1.0000 0.67730  0.79420  0.10510  Biso   1.000  H
  H47      1.0000 0.79420  0.32270  0.60510  Biso   1.000  H
  H48      1.0000 0.20580  0.67730  0.60510  Biso   1.000  H
  H49      1.0000 0.34710  0.13430  0.99520  Biso   1.000  H
  H50      1.0000 0.65290  0.86570  0.99520  Biso   1.000  H
  H51      1.0000 0.86570  0.34710  0.49520  Biso   1.000  H
  H52      1.0000 0.13430  0.65290  0.49520  Biso   1.000  H
  C45      1.0000 0.45900  0.23600  0.83800  Biso   1.000  C
  C46      1.0000 0.54100  0.76400  0.83800  Biso   1.000  C
  C47      1.0000 0.76400  0.45900  0.33800  Biso   1.000  C
  C48      1.0000 0.23600  0.54100  0.33800  Biso   1.000  C
  Hg1      1.0000 0.47959  0.46160  0.50320  Biso   1.000  Hg
  Hg2      1.0000 0.52041  0.53840  0.50320  Biso   1.000  Hg
  Hg3      1.0000 0.53840  0.47959  0.00320  Biso   1.000  Hg
  Hg4      1.0000 0.46160  0.52041  0.00320  Biso   1.000  Hg
  Cl1      1.0000 0.54930  0.27980  0.63120  Biso   1.000  Cl
  Cl2      1.0000 0.45070  0.72020  0.63120  Biso   1.000  Cl
  Cl3      1.0000 0.72020  0.54930  0.13120  Biso   1.000  Cl
  Cl4      1.0000 0.27980  0.45070  0.13120  Biso   1.000  Cl
  Cl5      1.0000 0.50000  0.50000  0.30770  Biso   1.000  Cl
  Cl6      1.0000 0.50000  0.50000  0.80770  Biso   1.000  Cl
  O25      1.0000 0.50000  0.00000  0.57600  Biso   1.000  O
  O26      1.0000 0.00000  0.50000  0.07600  Biso   1.000  O
  Cl7      1.0000 0.42440  0.50530  0.19330  Biso   1.000  Cl
  Cl8      1.0000 0.57560  0.49470  0.19330  Biso   1.000  Cl
  Cl9      1.0000 0.49470  0.42440  0.69330  Biso   1.000  Cl
  Cl10     1.0000 0.50530  0.57560  0.69330  Biso   1.000  Cl
  Hg5      1.0000 0.52040  0.15890  0.76300  Biso   1.000  Hg
  Hg6      1.0000 0.47960  0.84110  0.76300  Biso   1.000  Hg
  Hg7      1.0000 0.84110  0.52040  0.26300  Biso   1.000  Hg
  Hg8      1.0000 0.15890  0.47960  0.26300  Biso   1.000  Hg
  Cl11     1.0000 0.50000  0.00000  0.86630  Biso   1.000  Cl
  Cl12     1.0000 0.00000  0.50000  0.36630  Biso   1.000  Cl
