data_image0
_cell_length_a       13.6593
_cell_length_b       13.6593
_cell_length_c       12.0051
_cell_angle_alpha    90
_cell_angle_beta     90
_cell_angle_gamma    90

_symmetry_space_group_name_H-M    "P 1"
_symmetry_int_tables_number       1

loop_
  _symmetry_equiv_pos_as_xyz
  'x, y, z'

loop_
  _atom_site_label
  _atom_site_occupancy
  _atom_site_fract_x
  _atom_site_fract_y
  _atom_site_fract_z
  _atom_site_thermal_displace_type
  _atom_site_B_iso_or_equiv
  _atom_site_type_symbol
  O1       1.0000 0.32360  0.01620  0.56900  Biso   1.000  O
  O2       1.0000 0.67640  0.98380  0.56900  Biso   1.000  O
  O3       1.0000 0.98380  0.32360  0.06900  Biso   1.000  O
  O4       1.0000 0.01620  0.67640  0.06900  Biso   1.000  O
  O5       1.0000 0.19810  0.47990  0.10340  Biso   1.000  O
  O6       1.0000 0.80190  0.52010  0.10340  Biso   1.000  O
  O7       1.0000 0.52010  0.19810  0.60340  Biso   1.000  O
  O8       1.0000 0.47990  0.80190  0.60340  Biso   1.000  O
  C1       1.0000 0.21830  0.53570  0.19300  Biso   1.000  C
  C2       1.0000 0.78170  0.46430  0.19300  Biso   1.000  C
  C3       1.0000 0.46430  0.21830  0.69300  Biso   1.000  C
  C4       1.0000 0.53570  0.78170  0.69300  Biso   1.000  C
  C5       1.0000 0.29030  0.96020  0.48450  Biso   1.000  C
  C6       1.0000 0.70970  0.03980  0.48450  Biso   1.000  C
  C7       1.0000 0.03980  0.29030  0.98450  Biso   1.000  C
  C8       1.0000 0.96020  0.70970  0.98450  Biso   1.000  C
  O9       1.0000 0.21580  0.63420  0.19040  Biso   1.000  O
  O10      1.0000 0.78420  0.36580  0.19040  Biso   1.000  O
  O11      1.0000 0.36580  0.21580  0.69040  Biso   1.000  O
  O12      1.0000 0.63420  0.78420  0.69040  Biso   1.000  O
  O13      1.0000 0.28460  0.86510  0.48900  Biso   1.000  O
  O14      1.0000 0.71540  0.13490  0.48900  Biso   1.000  O
  O15      1.0000 0.13490  0.28460  0.98900  Biso   1.000  O
  O16      1.0000 0.86510  0.71540  0.98900  Biso   1.000  O
  C9       1.0000 0.35530  0.62130  0.41730  Biso   1.000  C
  C10      1.0000 0.64470  0.37870  0.41730  Biso   1.000  C
  C11      1.0000 0.37870  0.35530  0.91730  Biso   1.000  C
  C12      1.0000 0.62130  0.64470  0.91730  Biso   1.000  C
  H1       1.0000 0.33460  0.67410  0.36600  Biso   1.000  H
  H2       1.0000 0.66540  0.32590  0.36600  Biso   1.000  H
  H3       1.0000 0.32590  0.33460  0.86600  Biso   1.000  H
  H4       1.0000 0.67410  0.66540  0.86600  Biso   1.000  H
  H5       1.0000 0.42310  0.63560  0.44140  Biso   1.000  H
  H6       1.0000 0.57690  0.36440  0.44140  Biso   1.000  H
  H7       1.0000 0.36440  0.42310  0.94140  Biso   1.000  H
  H8       1.0000 0.63560  0.57690  0.94140  Biso   1.000  H
  C13      1.0000 0.35440  0.51990  0.35150  Biso   1.000  C
  C14      1.0000 0.64560  0.48010  0.35150  Biso   1.000  C
  C15      1.0000 0.48010  0.35440  0.85150  Biso   1.000  C
  C16      1.0000 0.51990  0.64560  0.85150  Biso   1.000  C
  H9       1.0000 0.38190  0.46870  0.40080  Biso   1.000  H
  H10      1.0000 0.61810  0.53130  0.40080  Biso   1.000  H
  H11      1.0000 0.53130  0.38190  0.90080  Biso   1.000  H
  H12      1.0000 0.46870  0.61810  0.90080  Biso   1.000  H
  H13      1.0000 0.39840  0.52590  0.28630  Biso   1.000  H
  H14      1.0000 0.60160  0.47410  0.28630  Biso   1.000  H
  H15      1.0000 0.47410  0.39840  0.78630  Biso   1.000  H
  H16      1.0000 0.52590  0.60160  0.78630  Biso   1.000  H
  S1       1.0000 0.27170  0.62188  0.54460  Biso   1.000  S
  S2       1.0000 0.72830  0.37812  0.54460  Biso   1.000  S
  S3       1.0000 0.37812  0.27170  0.04460  Biso   1.000  S
  S4       1.0000 0.62188  0.72830  0.04460  Biso   1.000  S
  S5       1.0000 0.16790  0.88150  0.14460  Biso   1.000  S
  S6       1.0000 0.83210  0.11850  0.14460  Biso   1.000  S
  S7       1.0000 0.11850  0.16790  0.64460  Biso   1.000  S
  S8       1.0000 0.88150  0.83210  0.64460  Biso   1.000  S
  C17      1.0000 0.33080  0.52680  0.63730  Biso   1.000  C
  C18      1.0000 0.66920  0.47320  0.63730  Biso   1.000  C
  C19      1.0000 0.47320  0.33080  0.13730  Biso   1.000  C
  C20      1.0000 0.52680  0.66920  0.13730  Biso   1.000  C
  H17      1.0000 0.40080  0.54130  0.64500  Biso   1.000  H
  H18      1.0000 0.59920  0.45870  0.64500  Biso   1.000  H
  H19      1.0000 0.45870  0.40080  0.14500  Biso   1.000  H
  H20      1.0000 0.54130  0.59920  0.14500  Biso   1.000  H
  H21      1.0000 0.32260  0.46180  0.60400  Biso   1.000  H
  H22      1.0000 0.67740  0.53820  0.60400  Biso   1.000  H
  H23      1.0000 0.53820  0.32260  0.10400  Biso   1.000  H
  H24      1.0000 0.46180  0.67740  0.10400  Biso   1.000  H
  H25      1.0000 0.29970  0.52800  0.71080  Biso   1.000  H
  H26      1.0000 0.70030  0.47200  0.71080  Biso   1.000  H
  H27      1.0000 0.47200  0.29970  0.21080  Biso   1.000  H
  H28      1.0000 0.52800  0.70030  0.21080  Biso   1.000  H
  C21      1.0000 0.18770  0.97260  0.02410  Biso   1.000  C
  C22      1.0000 0.81230  0.02740  0.02410  Biso   1.000  C
  C23      1.0000 0.02740  0.18770  0.52410  Biso   1.000  C
  C24      1.0000 0.97260  0.81230  0.52410  Biso   1.000  C
  H29      1.0000 0.20400  0.03720  0.05450  Biso   1.000  H
  H30      1.0000 0.79600  0.96280  0.05450  Biso   1.000  H
  H31      1.0000 0.96280  0.20400  0.55450  Biso   1.000  H
  H32      1.0000 0.03720  0.79600  0.55450  Biso   1.000  H
  H33      1.0000 0.12760  0.97740  0.97970  Biso   1.000  H
  H34      1.0000 0.87240  0.02260  0.97970  Biso   1.000  H
  H35      1.0000 0.02260  0.12760  0.47970  Biso   1.000  H
  H36      1.0000 0.97740  0.87240  0.47970  Biso   1.000  H
  H37      1.0000 0.24150  0.94970  0.97680  Biso   1.000  H
  H38      1.0000 0.75850  0.05030  0.97680  Biso   1.000  H
  H39      1.0000 0.05030  0.24150  0.47680  Biso   1.000  H
  H40      1.0000 0.94970  0.75850  0.47680  Biso   1.000  H
  C25      1.0000 0.32890  0.98010  0.26720  Biso   1.000  C
  C26      1.0000 0.67110  0.01990  0.26720  Biso   1.000  C
  C27      1.0000 0.01990  0.32890  0.76720  Biso   1.000  C
  C28      1.0000 0.98010  0.67110  0.76720  Biso   1.000  C
  H41      1.0000 0.32950  0.03270  0.21040  Biso   1.000  H
  H42      1.0000 0.67050  0.96730  0.21040  Biso   1.000  H
  H43      1.0000 0.96730  0.32950  0.71040  Biso   1.000  H
  H44      1.0000 0.03270  0.67050  0.71040  Biso   1.000  H
  H45      1.0000 0.39640  0.97300  0.29590  Biso   1.000  H
  H46      1.0000 0.60360  0.02700  0.29590  Biso   1.000  H
  H47      1.0000 0.02700  0.39640  0.79590  Biso   1.000  H
  H48      1.0000 0.97300  0.60360  0.79590  Biso   1.000  H
  C29      1.0000 0.29740  0.87950  0.20830  Biso   1.000  C
  C30      1.0000 0.70260  0.12050  0.20830  Biso   1.000  C
  C31      1.0000 0.12050  0.29740  0.70830  Biso   1.000  C
  C32      1.0000 0.87950  0.70260  0.70830  Biso   1.000  C
  H49      1.0000 0.30080  0.82620  0.26390  Biso   1.000  H
  H50      1.0000 0.69920  0.17380  0.26390  Biso   1.000  H
  H51      1.0000 0.17380  0.30080  0.76390  Biso   1.000  H
  H52      1.0000 0.82620  0.69920  0.76390  Biso   1.000  H
  H53      1.0000 0.34510  0.86440  0.14870  Biso   1.000  H
  H54      1.0000 0.65490  0.13560  0.14870  Biso   1.000  H
  H55      1.0000 0.13560  0.34510  0.64870  Biso   1.000  H
  H56      1.0000 0.86440  0.65490  0.64870  Biso   1.000  H
  Cu1      1.0000 0.19703  0.32728  0.13720  Biso   1.000  Cu
  Cu2      1.0000 0.80297  0.67272  0.13720  Biso   1.000  Cu
  Cu3      1.0000 0.67272  0.19703  0.63720  Biso   1.000  Cu
  Cu4      1.0000 0.32728  0.80297  0.63720  Biso   1.000  Cu
  Cu5      1.0000 0.30524  0.16932  0.54419  Biso   1.000  Cu
  Cu6      1.0000 0.69476  0.83068  0.54419  Biso   1.000  Cu
  Cu7      1.0000 0.83068  0.30524  0.04419  Biso   1.000  Cu
  Cu8      1.0000 0.16932  0.69476  0.04419  Biso   1.000  Cu
  O17      1.0000 0.19840  0.18640  0.21410  Biso   1.000  O
  O18      1.0000 0.80160  0.81360  0.21410  Biso   1.000  O
  O19      1.0000 0.81360  0.19840  0.71410  Biso   1.000  O
  O20      1.0000 0.18640  0.80160  0.71410  Biso   1.000  O
  O21      1.0000 0.28770  0.31090  0.47280  Biso   1.000  O
  O22      1.0000 0.71230  0.68910  0.47280  Biso   1.000  O
  O23      1.0000 0.68910  0.28770  0.97280  Biso   1.000  O
  O24      1.0000 0.31090  0.71230  0.97280  Biso   1.000  O
  N1       1.0000 0.23860  0.37400  0.28870  Biso   1.000  N
  N2       1.0000 0.76140  0.62600  0.28870  Biso   1.000  N
  N3       1.0000 0.62600  0.23860  0.78870  Biso   1.000  N
  N4       1.0000 0.37400  0.76140  0.78870  Biso   1.000  N
  N5       1.0000 0.26340  0.12300  0.39100  Biso   1.000  N
  N6       1.0000 0.73660  0.87700  0.39100  Biso   1.000  N
  N7       1.0000 0.87700  0.26340  0.89100  Biso   1.000  N
  N8       1.0000 0.12300  0.73660  0.89100  Biso   1.000  N
  C33      1.0000 0.23660  0.19480  0.31710  Biso   1.000  C
  C34      1.0000 0.76340  0.80520  0.31710  Biso   1.000  C
  C35      1.0000 0.80520  0.23660  0.81710  Biso   1.000  C
  C36      1.0000 0.19480  0.76340  0.81710  Biso   1.000  C
  C37      1.0000 0.25810  0.01350  0.36910  Biso   1.000  C
  C38      1.0000 0.74190  0.98650  0.36910  Biso   1.000  C
  C39      1.0000 0.98650  0.25810  0.86910  Biso   1.000  C
  C40      1.0000 0.01350  0.74190  0.86910  Biso   1.000  C
  H57      1.0000 0.18910  0.99520  0.35100  Biso   1.000  H
  H58      1.0000 0.81090  0.00480  0.35100  Biso   1.000  H
  H59      1.0000 0.00480  0.18910  0.85100  Biso   1.000  H
  H60      1.0000 0.99520  0.81090  0.85100  Biso   1.000  H
  C41      1.0000 0.24820  0.48380  0.30840  Biso   1.000  C
  C42      1.0000 0.75180  0.51620  0.30840  Biso   1.000  C
  C43      1.0000 0.51620  0.24820  0.80840  Biso   1.000  C
  C44      1.0000 0.48380  0.75180  0.80840  Biso   1.000  C
  H61      1.0000 0.19870  0.50300  0.36570  Biso   1.000  H
  H62      1.0000 0.80130  0.49700  0.36570  Biso   1.000  H
  H63      1.0000 0.49700  0.19870  0.86570  Biso   1.000  H
  H64      1.0000 0.50300  0.80130  0.86570  Biso   1.000  H
  C45      1.0000 0.25550  0.30210  0.36720  Biso   1.000  C
  C46      1.0000 0.74450  0.69790  0.36720  Biso   1.000  C
  C47      1.0000 0.69790  0.25550  0.86720  Biso   1.000  C
  C48      1.0000 0.30210  0.74450  0.86720  Biso   1.000  C
  O25      1.0000 0.00000  0.50000  0.24780  Biso   1.000  O
  O26      1.0000 0.50000  0.00000  0.74780  Biso   1.000  O
  O27      1.0000 0.00000  0.50000  0.50200  Biso   1.000  O
  O28      1.0000 0.50000  0.00000  0.00200  Biso   1.000  O
