data_image0
_cell_length_a       30.032
_cell_length_b       5.718
_cell_length_c       9.294
_cell_angle_alpha    90
_cell_angle_beta     103.177
_cell_angle_gamma    90

_symmetry_space_group_name_H-M    "P 1"
_symmetry_int_tables_number       1

loop_
  _symmetry_equiv_pos_as_xyz
  'x, y, z'

loop_
  _atom_site_label
  _atom_site_occupancy
  _atom_site_fract_x
  _atom_site_fract_y
  _atom_site_fract_z
  _atom_site_thermal_displace_type
  _atom_site_B_iso_or_equiv
  _atom_site_type_symbol
  Cu1      1.0000 0.24026  0.38220  0.17037  Biso   1.000  Cu
  Cu2      1.0000 0.75974  0.38220  0.82963  Biso   1.000  Cu
  Cu3      1.0000 0.74026  0.88220  0.17037  Biso   1.000  Cu
  Cu4      1.0000 0.25974  0.88220  0.82963  Biso   1.000  Cu
  O1       1.0000 0.20250  0.53980  0.32030  Biso   1.000  O
  O2       1.0000 0.79750  0.53980  0.67970  Biso   1.000  O
  O3       1.0000 0.70250  0.03980  0.32030  Biso   1.000  O
  O4       1.0000 0.29750  0.03980  0.67970  Biso   1.000  O
  O5       1.0000 0.23054  0.11550  0.28510  Biso   1.000  O
  O6       1.0000 0.76946  0.11550  0.71490  Biso   1.000  O
  O7       1.0000 0.73054  0.61550  0.28510  Biso   1.000  O
  O8       1.0000 0.26946  0.61550  0.71490  Biso   1.000  O
  O9       1.0000 0.19670  0.95610  0.44820  Biso   1.000  O
  O10      1.0000 0.80330  0.95610  0.55180  Biso   1.000  O
  O11      1.0000 0.69670  0.45610  0.44820  Biso   1.000  O
  O12      1.0000 0.30330  0.45610  0.55180  Biso   1.000  O
  O13      1.0000 0.25662  0.62560  0.05410  Biso   1.000  O
  O14      1.0000 0.74338  0.62560  0.94590  Biso   1.000  O
  O15      1.0000 0.75662  0.12560  0.05410  Biso   1.000  O
  O16      1.0000 0.24338  0.12560  0.94590  Biso   1.000  O
  O17      1.0000 0.31388  0.80840  0.98940  Biso   1.000  O
  O18      1.0000 0.68612  0.80840  0.01060  Biso   1.000  O
  O19      1.0000 0.81388  0.30840  0.98940  Biso   1.000  O
  O20      1.0000 0.18612  0.30840  0.01060  Biso   1.000  O
  O21      1.0000 0.30592  0.41660  0.28170  Biso   1.000  O
  O22      1.0000 0.69408  0.41660  0.71830  Biso   1.000  O
  O23      1.0000 0.80592  0.91660  0.28170  Biso   1.000  O
  O24      1.0000 0.19408  0.91660  0.71830  Biso   1.000  O
  C1       1.0000 0.18750  0.36490  0.41170  Biso   1.000  C
  C2       1.0000 0.81250  0.36490  0.58830  Biso   1.000  C
  C3       1.0000 0.68750  0.86490  0.41170  Biso   1.000  C
  C4       1.0000 0.31250  0.86490  0.58830  Biso   1.000  C
  C5       1.0000 0.20670  0.13290  0.37920  Biso   1.000  C
  C6       1.0000 0.79330  0.13290  0.62080  Biso   1.000  C
  C7       1.0000 0.70670  0.63290  0.37920  Biso   1.000  C
  C8       1.0000 0.29330  0.63290  0.62080  Biso   1.000  C
  C9       1.0000 0.13640  0.36950  0.38560  Biso   1.000  C
  C10      1.0000 0.86360  0.36950  0.61440  Biso   1.000  C
  C11      1.0000 0.63640  0.86950  0.38560  Biso   1.000  C
  C12      1.0000 0.36360  0.86950  0.61440  Biso   1.000  C
  C13      1.0000 0.29860  0.68080  0.07780  Biso   1.000  C
  C14      1.0000 0.70140  0.68080  0.92220  Biso   1.000  C
  C15      1.0000 0.79860  0.18080  0.07780  Biso   1.000  C
  C16      1.0000 0.20140  0.18080  0.92220  Biso   1.000  C
  C17      1.0000 0.33100  0.58640  0.21340  Biso   1.000  C
  C18      1.0000 0.66900  0.58640  0.78660  Biso   1.000  C
  C19      1.0000 0.83100  0.08640  0.21340  Biso   1.000  C
  C20      1.0000 0.16900  0.08640  0.78660  Biso   1.000  C
  C21      1.0000 0.10990  0.24040  0.27510  Biso   1.000  C
  C22      1.0000 0.89010  0.24040  0.72490  Biso   1.000  C
  C23      1.0000 0.60990  0.74040  0.27510  Biso   1.000  C
  C24      1.0000 0.39010  0.74040  0.72490  Biso   1.000  C
  C25      1.0000 0.11440  0.50380  0.46980  Biso   1.000  C
  C26      1.0000 0.88560  0.50380  0.53020  Biso   1.000  C
  C27      1.0000 0.61440  0.00380  0.46980  Biso   1.000  C
  C28      1.0000 0.38560  0.00380  0.53020  Biso   1.000  C
  C29      1.0000 0.37220  0.46830  0.17660  Biso   1.000  C
  C30      1.0000 0.62780  0.46830  0.82340  Biso   1.000  C
  C31      1.0000 0.87220  0.96830  0.17660  Biso   1.000  C
  C32      1.0000 0.12780  0.96830  0.82340  Biso   1.000  C
  C33      1.0000 0.40370  0.19500  0.03190  Biso   1.000  C
  C34      1.0000 0.59630  0.19500  0.96810  Biso   1.000  C
  C35      1.0000 0.90370  0.69500  0.03190  Biso   1.000  C
  C36      1.0000 0.09630  0.69500  0.96810  Biso   1.000  C
  C37      1.0000 0.04180  0.38300  0.33210  Biso   1.000  C
  C38      1.0000 0.95820  0.38300  0.66790  Biso   1.000  C
  C39      1.0000 0.54180  0.88300  0.33210  Biso   1.000  C
  C40      1.0000 0.45820  0.88300  0.66790  Biso   1.000  C
  C41      1.0000 0.36770  0.30790  0.06720  Biso   1.000  C
  C42      1.0000 0.63230  0.30790  0.93280  Biso   1.000  C
  C43      1.0000 0.86770  0.80790  0.06720  Biso   1.000  C
  C44      1.0000 0.13230  0.80790  0.93280  Biso   1.000  C
  C45      1.0000 0.41590  0.51420  0.26130  Biso   1.000  C
  C46      1.0000 0.58410  0.51420  0.73870  Biso   1.000  C
  C47      1.0000 0.91590  0.01420  0.26130  Biso   1.000  C
  C48      1.0000 0.08410  0.01420  0.73870  Biso   1.000  C
  C49      1.0000 0.06660  0.51740  0.44370  Biso   1.000  C
  C50      1.0000 0.93340  0.51740  0.55630  Biso   1.000  C
  C51      1.0000 0.56660  0.01740  0.44370  Biso   1.000  C
  C52      1.0000 0.43340  0.01740  0.55630  Biso   1.000  C
  C53      1.0000 0.44620  0.24300  0.10710  Biso   1.000  C
  C54      1.0000 0.55380  0.24300  0.89290  Biso   1.000  C
  C55      1.0000 0.94620  0.74300  0.10710  Biso   1.000  C
  C56      1.0000 0.05380  0.74300  0.89290  Biso   1.000  C
  C57      1.0000 0.06220  0.24700  0.24670  Biso   1.000  C
  C58      1.0000 0.93780  0.24700  0.75330  Biso   1.000  C
  C59      1.0000 0.56220  0.74700  0.24670  Biso   1.000  C
  C60      1.0000 0.43780  0.74700  0.75330  Biso   1.000  C
  C61      1.0000 0.45360  0.39300  0.22390  Biso   1.000  C
  C62      1.0000 0.54640  0.39300  0.77610  Biso   1.000  C
  C63      1.0000 0.95360  0.89300  0.22390  Biso   1.000  C
  C64      1.0000 0.04640  0.89300  0.77610  Biso   1.000  C
  H1       1.0000 0.12420  0.14520  0.21500  Biso   1.000  H
  H2       1.0000 0.87580  0.14520  0.78500  Biso   1.000  H
  H3       1.0000 0.62420  0.64520  0.21500  Biso   1.000  H
  H4       1.0000 0.37580  0.64520  0.78500  Biso   1.000  H
  H5       1.0000 0.13220  0.59210  0.54890  Biso   1.000  H
  H6       1.0000 0.86780  0.59210  0.45110  Biso   1.000  H
  H7       1.0000 0.63220  0.09210  0.54890  Biso   1.000  H
  H8       1.0000 0.36780  0.09210  0.45110  Biso   1.000  H
  H9       1.0000 0.39860  0.08170  0.95530  Biso   1.000  H
  H10      1.0000 0.60140  0.08170  0.04470  Biso   1.000  H
  H11      1.0000 0.89860  0.58170  0.95530  Biso   1.000  H
  H12      1.0000 0.10140  0.58170  0.04470  Biso   1.000  H
  H13      1.0000 0.00930  0.38170  0.31480  Biso   1.000  H
  H14      1.0000 0.99070  0.38170  0.68520  Biso   1.000  H
  H15      1.0000 0.50930  0.88170  0.31480  Biso   1.000  H
  H16      1.0000 0.49070  0.88170  0.68520  Biso   1.000  H
  H17      1.0000 0.33780  0.27320  0.01120  Biso   1.000  H
  H18      1.0000 0.66220  0.27320  0.98880  Biso   1.000  H
  H19      1.0000 0.83780  0.77320  0.01120  Biso   1.000  H
  H20      1.0000 0.16220  0.77320  0.98880  Biso   1.000  H
  H21      1.0000 0.42060  0.62080  0.34180  Biso   1.000  H
  H22      1.0000 0.57940  0.62080  0.65820  Biso   1.000  H
  H23      1.0000 0.92060  0.12080  0.34180  Biso   1.000  H
  H24      1.0000 0.07940  0.12080  0.65820  Biso   1.000  H
  H25      1.0000 0.05190  0.61670  0.50040  Biso   1.000  H
  H26      1.0000 0.94810  0.61670  0.49960  Biso   1.000  H
  H27      1.0000 0.55190  0.11670  0.50040  Biso   1.000  H
  H28      1.0000 0.44810  0.11670  0.49960  Biso   1.000  H
  H29      1.0000 0.47140  0.17150  0.07850  Biso   1.000  H
  H30      1.0000 0.52860  0.17150  0.92150  Biso   1.000  H
  H31      1.0000 0.97140  0.67150  0.07850  Biso   1.000  H
  H32      1.0000 0.02860  0.67150  0.92150  Biso   1.000  H
  H33      1.0000 0.04450  0.15740  0.16800  Biso   1.000  H
  H34      1.0000 0.95550  0.15740  0.83200  Biso   1.000  H
  H35      1.0000 0.54450  0.65740  0.16800  Biso   1.000  H
  H36      1.0000 0.45550  0.65740  0.83200  Biso   1.000  H
  H37      1.0000 0.48380  0.41860  0.27990  Biso   1.000  H
  H38      1.0000 0.51620  0.41860  0.72010  Biso   1.000  H
  H39      1.0000 0.98380  0.91860  0.27990  Biso   1.000  H
  H40      1.0000 0.01620  0.91860  0.72010  Biso   1.000  H
  H41      1.0000 0.19970  0.40140  0.51270  Biso   1.000  H
  H42      1.0000 0.80030  0.40140  0.48730  Biso   1.000  H
  H43      1.0000 0.69970  0.90140  0.51270  Biso   1.000  H
  H44      1.0000 0.30030  0.90140  0.48730  Biso   1.000  H
  H45      1.0000 0.34110  0.71140  0.28020  Biso   1.000  H
  H46      1.0000 0.65890  0.71140  0.71980  Biso   1.000  H
  H47      1.0000 0.84110  0.21140  0.28020  Biso   1.000  H
  H48      1.0000 0.15890  0.21140  0.71980  Biso   1.000  H
  H49      1.0000 0.20780  0.63840  0.38100  Biso   1.000  H
  H50      1.0000 0.79220  0.63840  0.61900  Biso   1.000  H
  H51      1.0000 0.70780  0.13840  0.38100  Biso   1.000  H
  H52      1.0000 0.29220  0.13840  0.61900  Biso   1.000  H
  H53      1.0000 0.31480  0.52200  0.36260  Biso   1.000  H
  H54      1.0000 0.68520  0.52200  0.63740  Biso   1.000  H
  H55      1.0000 0.81480  0.02200  0.36260  Biso   1.000  H
  H56      1.0000 0.18520  0.02200  0.63740  Biso   1.000  H
