data_image0
_cell_length_a       9.454
_cell_length_b       4.905
_cell_length_c       15.495
_cell_angle_alpha    90
_cell_angle_beta     102.564
_cell_angle_gamma    90

_symmetry_space_group_name_H-M    "P 1"
_symmetry_int_tables_number       1

loop_
  _symmetry_equiv_pos_as_xyz
  'x, y, z'

loop_
  _atom_site_label
  _atom_site_occupancy
  _atom_site_fract_x
  _atom_site_fract_y
  _atom_site_fract_z
  _atom_site_thermal_displace_type
  _atom_site_B_iso_or_equiv
  _atom_site_type_symbol
  Cu1      1.0000 0.50000  0.00000  0.50000  Biso   1.000  Cu
  Cu2      1.0000 0.00000  0.50000  0.50000  Biso   1.000  Cu
  O1       1.0000 0.34340  0.74670  0.46203  Biso   1.000  O
  O2       1.0000 0.15660  0.24670  0.53797  Biso   1.000  O
  O3       1.0000 0.65660  0.25330  0.53797  Biso   1.000  O
  O4       1.0000 0.84340  0.75330  0.46203  Biso   1.000  O
  O5       1.0000 0.38710  0.23010  0.40366  Biso   1.000  O
  O6       1.0000 0.11290  0.73010  0.59634  Biso   1.000  O
  O7       1.0000 0.61290  0.76990  0.59634  Biso   1.000  O
  O8       1.0000 0.88710  0.26990  0.40366  Biso   1.000  O
  O9       1.0000 0.11100  0.72960  0.39350  Biso   1.000  O
  O10      1.0000 0.38900  0.22960  0.60650  Biso   1.000  O
  O11      1.0000 0.88900  0.27040  0.60650  Biso   1.000  O
  O12      1.0000 0.61100  0.77040  0.39350  Biso   1.000  O
  C1       1.0000 0.22900  0.84460  0.40910  Biso   1.000  C
  C2       1.0000 0.27100  0.34460  0.59090  Biso   1.000  C
  C3       1.0000 0.77100  0.15540  0.59090  Biso   1.000  C
  C4       1.0000 0.72900  0.65540  0.40910  Biso   1.000  C
  C5       1.0000 0.24580  0.11350  0.36240  Biso   1.000  C
  C6       1.0000 0.25420  0.61350  0.63760  Biso   1.000  C
  C7       1.0000 0.75420  0.88650  0.63760  Biso   1.000  C
  C8       1.0000 0.74580  0.38650  0.36240  Biso   1.000  C
  H1       1.0000 0.16750  0.24200  0.37030  Biso   1.000  H
  H2       1.0000 0.33250  0.74200  0.62970  Biso   1.000  H
  H3       1.0000 0.83250  0.75800  0.62970  Biso   1.000  H
  H4       1.0000 0.66750  0.25800  0.37030  Biso   1.000  H
  C9       1.0000 0.23510  0.06640  0.26520  Biso   1.000  C
  C10      1.0000 0.26490  0.56640  0.73480  Biso   1.000  C
  C11      1.0000 0.76490  0.93360  0.73480  Biso   1.000  C
  C12      1.0000 0.73510  0.43360  0.26520  Biso   1.000  C
  C13      1.0000 0.13480  0.21540  0.20460  Biso   1.000  C
  C14      1.0000 0.36520  0.71540  0.79540  Biso   1.000  C
  C15      1.0000 0.86520  0.78460  0.79540  Biso   1.000  C
  C16      1.0000 0.63480  0.28460  0.20460  Biso   1.000  C
  H5       1.0000 0.07520  0.34600  0.22480  Biso   1.000  H
  H6       1.0000 0.42480  0.84600  0.77520  Biso   1.000  H
  H7       1.0000 0.92480  0.65400  0.77520  Biso   1.000  H
  H8       1.0000 0.57520  0.15400  0.22480  Biso   1.000  H
  C17      1.0000 0.12170  0.17350  0.11480  Biso   1.000  C
  C18      1.0000 0.37830  0.67350  0.88520  Biso   1.000  C
  C19      1.0000 0.87830  0.82650  0.88520  Biso   1.000  C
  C20      1.0000 0.62170  0.32650  0.11480  Biso   1.000  C
  H9       1.0000 0.05300  0.27550  0.07340  Biso   1.000  H
  H10      1.0000 0.44700  0.77550  0.92660  Biso   1.000  H
  H11      1.0000 0.94700  0.72450  0.92660  Biso   1.000  H
  H12      1.0000 0.55300  0.22450  0.07340  Biso   1.000  H
  C21      1.0000 0.20820  0.98420  0.08530  Biso   1.000  C
  C22      1.0000 0.29180  0.48420  0.91470  Biso   1.000  C
  C23      1.0000 0.79180  0.01580  0.91470  Biso   1.000  C
  C24      1.0000 0.70820  0.51580  0.08530  Biso   1.000  C
  H13      1.0000 0.19950  0.95580  0.02370  Biso   1.000  H
  H14      1.0000 0.30050  0.45580  0.97630  Biso   1.000  H
  H15      1.0000 0.80050  0.04420  0.97630  Biso   1.000  H
  H16      1.0000 0.69950  0.54420  0.02370  Biso   1.000  H
  C25      1.0000 0.30790  0.83570  0.14600  Biso   1.000  C
  C26      1.0000 0.19210  0.33570  0.85400  Biso   1.000  C
  C27      1.0000 0.69210  0.16430  0.85400  Biso   1.000  C
  C28      1.0000 0.80790  0.66430  0.14600  Biso   1.000  C
  H17      1.0000 0.36780  0.70580  0.12570  Biso   1.000  H
  H18      1.0000 0.13220  0.20580  0.87430  Biso   1.000  H
  H19      1.0000 0.63220  0.29420  0.87430  Biso   1.000  H
  H20      1.0000 0.86780  0.79420  0.12570  Biso   1.000  H
  C29      1.0000 0.32110  0.87440  0.23510  Biso   1.000  C
  C30      1.0000 0.17890  0.37440  0.76490  Biso   1.000  C
  C31      1.0000 0.67890  0.12560  0.76490  Biso   1.000  C
  C32      1.0000 0.82110  0.62560  0.23510  Biso   1.000  C
  H21      1.0000 0.38890  0.76990  0.27630  Biso   1.000  H
  H22      1.0000 0.11110  0.26990  0.72370  Biso   1.000  H
  H23      1.0000 0.61110  0.23010  0.72370  Biso   1.000  H
  H24      1.0000 0.88890  0.73010  0.27630  Biso   1.000  H
  H25      1.0000 0.36810  0.39000  0.41550  Biso   1.000  H
  H26      1.0000 0.13190  0.89000  0.58450  Biso   1.000  H
  H27      1.0000 0.63190  0.61000  0.58450  Biso   1.000  H
  H28      1.0000 0.86810  0.11000  0.41550  Biso   1.000  H
