data_image0
_cell_length_a       11.1521
_cell_length_b       15.3961
_cell_length_c       17.7419
_cell_angle_alpha    90
_cell_angle_beta     105.715
_cell_angle_gamma    90

_symmetry_space_group_name_H-M    "P 1"
_symmetry_int_tables_number       1

loop_
  _symmetry_equiv_pos_as_xyz
  'x, y, z'

loop_
  _atom_site_label
  _atom_site_occupancy
  _atom_site_fract_x
  _atom_site_fract_y
  _atom_site_fract_z
  _atom_site_thermal_displace_type
  _atom_site_B_iso_or_equiv
  _atom_site_type_symbol
  Cu1      1.0000 0.73268  0.31032  0.04819  Biso   1.000  Cu
  Cu2      1.0000 0.73268  0.68968  0.54819  Biso   1.000  Cu
  Cu3      1.0000 0.23268  0.81032  0.04819  Biso   1.000  Cu
  Cu4      1.0000 0.23268  0.18968  0.54819  Biso   1.000  Cu
  Cu5      1.0000 0.79193  0.84183  0.69733  Biso   1.000  Cu
  Cu6      1.0000 0.79193  0.15817  0.19733  Biso   1.000  Cu
  Cu7      1.0000 0.29193  0.34183  0.69733  Biso   1.000  Cu
  Cu8      1.0000 0.29193  0.65817  0.19733  Biso   1.000  Cu
  O1       1.0000 0.79700  0.96870  0.70470  Biso   1.000  O
  O2       1.0000 0.79700  0.03130  0.20470  Biso   1.000  O
  O3       1.0000 0.29700  0.46870  0.70470  Biso   1.000  O
  O4       1.0000 0.29700  0.53130  0.20470  Biso   1.000  O
  O5       1.0000 0.83200  0.09080  0.77160  Biso   1.000  O
  O6       1.0000 0.83200  0.90920  0.27160  Biso   1.000  O
  O7       1.0000 0.33200  0.59080  0.77160  Biso   1.000  O
  O8       1.0000 0.33200  0.40920  0.27160  Biso   1.000  O
  O9       1.0000 0.67980  0.18520  0.92750  Biso   1.000  O
  O10      1.0000 0.67980  0.81480  0.42750  Biso   1.000  O
  O11      1.0000 0.17980  0.68520  0.92750  Biso   1.000  O
  O12      1.0000 0.17980  0.31480  0.42750  Biso   1.000  O
  O13      1.0000 0.73380  0.18100  0.05900  Biso   1.000  O
  O14      1.0000 0.73380  0.81900  0.55900  Biso   1.000  O
  O15      1.0000 0.23380  0.68100  0.05900  Biso   1.000  O
  O16      1.0000 0.23380  0.31900  0.55900  Biso   1.000  O
  O17      1.0000 0.79470  0.28840  0.19030  Biso   1.000  O
  O18      1.0000 0.79470  0.71160  0.69030  Biso   1.000  O
  O19      1.0000 0.29470  0.78840  0.19030  Biso   1.000  O
  O20      1.0000 0.29470  0.21160  0.69030  Biso   1.000  O
  O21      1.0000 0.84140  0.27040  0.31770  Biso   1.000  O
  O22      1.0000 0.84140  0.72960  0.81770  Biso   1.000  O
  O23      1.0000 0.34140  0.77040  0.31770  Biso   1.000  O
  O24      1.0000 0.34140  0.22960  0.81770  Biso   1.000  O
  O25      1.0000 0.73780  0.55880  0.54600  Biso   1.000  O
  O26      1.0000 0.73780  0.44120  0.04600  Biso   1.000  O
  O27      1.0000 0.23780  0.05880  0.54600  Biso   1.000  O
  O28      1.0000 0.23780  0.94120  0.04600  Biso   1.000  O
  O29      1.0000 0.68760  0.60390  0.42220  Biso   1.000  O
  O30      1.0000 0.68760  0.39610  0.92220  Biso   1.000  O
  O31      1.0000 0.18760  0.10390  0.42220  Biso   1.000  O
  O32      1.0000 0.18760  0.89610  0.92220  Biso   1.000  O
  N1       1.0000 0.91380  0.31140  0.04430  Biso   1.000  N
  N2       1.0000 0.91380  0.68860  0.54430  Biso   1.000  N
  N3       1.0000 0.41380  0.81140  0.04430  Biso   1.000  N
  N4       1.0000 0.41380  0.18860  0.54430  Biso   1.000  N
  N5       1.0000 0.97460  0.84550  0.70220  Biso   1.000  N
  N6       1.0000 0.97460  0.15450  0.20220  Biso   1.000  N
  N7       1.0000 0.47460  0.34550  0.70220  Biso   1.000  N
  N8       1.0000 0.47460  0.65450  0.20220  Biso   1.000  N
  N9       1.0000 0.55240  0.31520  0.04400  Biso   1.000  N
  N10      1.0000 0.55240  0.68480  0.54400  Biso   1.000  N
  N11      1.0000 0.05240  0.81520  0.04400  Biso   1.000  N
  N12      1.0000 0.05240  0.18480  0.54400  Biso   1.000  N
  N13      1.0000 0.61070  0.84390  0.70060  Biso   1.000  N
  N14      1.0000 0.61070  0.15610  0.20060  Biso   1.000  N
  N15      1.0000 0.11070  0.34390  0.70060  Biso   1.000  N
  N16      1.0000 0.11070  0.65610  0.20060  Biso   1.000  N
  C1       1.0000 0.95120  0.27670  0.98720  Biso   1.000  C
  C2       1.0000 0.95120  0.72330  0.48720  Biso   1.000  C
  C3       1.0000 0.45120  0.77670  0.98720  Biso   1.000  C
  C4       1.0000 0.45120  0.22330  0.48720  Biso   1.000  C
  H1       1.0000 0.89280  0.24860  0.94720  Biso   1.000  H
  H2       1.0000 0.89280  0.75140  0.44720  Biso   1.000  H
  H3       1.0000 0.39280  0.74860  0.94720  Biso   1.000  H
  H4       1.0000 0.39280  0.25140  0.44720  Biso   1.000  H
  C5       1.0000 0.07100  0.27980  0.98360  Biso   1.000  C
  C6       1.0000 0.07100  0.72020  0.48360  Biso   1.000  C
  C7       1.0000 0.57100  0.77980  0.98360  Biso   1.000  C
  C8       1.0000 0.57100  0.22020  0.48360  Biso   1.000  C
  H5       1.0000 0.09070  0.25810  0.93950  Biso   1.000  H
  H6       1.0000 0.09070  0.74190  0.43950  Biso   1.000  H
  H7       1.0000 0.59070  0.75810  0.93950  Biso   1.000  H
  H8       1.0000 0.59070  0.24190  0.43950  Biso   1.000  H
  C9       1.0000 0.16500  0.31440  0.04370  Biso   1.000  C
  C10      1.0000 0.16500  0.68560  0.54370  Biso   1.000  C
  C11      1.0000 0.66500  0.81440  0.04370  Biso   1.000  C
  C12      1.0000 0.66500  0.18560  0.54370  Biso   1.000  C
  C13      1.0000 0.12740  0.35060  0.10320  Biso   1.000  C
  C14      1.0000 0.12740  0.64940  0.60320  Biso   1.000  C
  C15      1.0000 0.62740  0.85060  0.10320  Biso   1.000  C
  C16      1.0000 0.62740  0.14940  0.60320  Biso   1.000  C
  H9       1.0000 0.18630  0.37590  0.14480  Biso   1.000  H
  H10      1.0000 0.18630  0.62410  0.64480  Biso   1.000  H
  H11      1.0000 0.68630  0.87590  0.14480  Biso   1.000  H
  H12      1.0000 0.68630  0.12410  0.64480  Biso   1.000  H
  C17      1.0000 0.00100  0.35060  0.10310  Biso   1.000  C
  C18      1.0000 0.00100  0.64940  0.60310  Biso   1.000  C
  C19      1.0000 0.50100  0.85060  0.10310  Biso   1.000  C
  C20      1.0000 0.50100  0.14940  0.60310  Biso   1.000  C
  H13      1.0000 0.97700  0.37760  0.14360  Biso   1.000  H
  H14      1.0000 0.97700  0.62240  0.64360  Biso   1.000  H
  H15      1.0000 0.47700  0.87760  0.14360  Biso   1.000  H
  H16      1.0000 0.47700  0.12240  0.64360  Biso   1.000  H
  C21      1.0000 0.51130  0.35740  0.10070  Biso   1.000  C
  C22      1.0000 0.51130  0.64260  0.60070  Biso   1.000  C
  C23      1.0000 0.01130  0.85740  0.10070  Biso   1.000  C
  C24      1.0000 0.01130  0.14260  0.60070  Biso   1.000  C
  H17      1.0000 0.56920  0.38660  0.14020  Biso   1.000  H
  H18      1.0000 0.56920  0.61340  0.64020  Biso   1.000  H
  H19      1.0000 0.06920  0.88660  0.14020  Biso   1.000  H
  H20      1.0000 0.06920  0.11340  0.64020  Biso   1.000  H
  C25      1.0000 0.39000  0.35840  0.10140  Biso   1.000  C
  C26      1.0000 0.39000  0.64160  0.60140  Biso   1.000  C
  C27      1.0000 0.89000  0.85840  0.10140  Biso   1.000  C
  C28      1.0000 0.89000  0.14160  0.60140  Biso   1.000  C
  H21      1.0000 0.36700  0.38670  0.14180  Biso   1.000  H
  H22      1.0000 0.36700  0.61330  0.64180  Biso   1.000  H
  H23      1.0000 0.86700  0.88670  0.14180  Biso   1.000  H
  H24      1.0000 0.86700  0.11330  0.64180  Biso   1.000  H
  C29      1.0000 0.29900  0.31790  0.04290  Biso   1.000  C
  C30      1.0000 0.29900  0.68210  0.54290  Biso   1.000  C
  C31      1.0000 0.79900  0.81790  0.04290  Biso   1.000  C
  C32      1.0000 0.79900  0.18210  0.54290  Biso   1.000  C
  C33      1.0000 0.34110  0.27940  0.98490  Biso   1.000  C
  C34      1.0000 0.34110  0.72060  0.48490  Biso   1.000  C
  C35      1.0000 0.84110  0.77940  0.98490  Biso   1.000  C
  C36      1.0000 0.84110  0.22060  0.48490  Biso   1.000  C
  H25      1.0000 0.28480  0.25290  0.94270  Biso   1.000  H
  H26      1.0000 0.28480  0.74710  0.44270  Biso   1.000  H
  H27      1.0000 0.78480  0.75290  0.94270  Biso   1.000  H
  H28      1.0000 0.78480  0.24710  0.44270  Biso   1.000  H
  C37      1.0000 0.46390  0.28000  0.98890  Biso   1.000  C
  C38      1.0000 0.46390  0.72000  0.48890  Biso   1.000  C
  C39      1.0000 0.96390  0.78000  0.98890  Biso   1.000  C
  C40      1.0000 0.96390  0.22000  0.48890  Biso   1.000  C
  H29      1.0000 0.48750  0.25260  0.94840  Biso   1.000  H
  H30      1.0000 0.48750  0.74740  0.44840  Biso   1.000  H
  H31      1.0000 0.98750  0.75260  0.94840  Biso   1.000  H
  H32      1.0000 0.98750  0.24740  0.44840  Biso   1.000  H
  C41      1.0000 0.01500  0.88970  0.64790  Biso   1.000  C
  C42      1.0000 0.01500  0.11030  0.14790  Biso   1.000  C
  C43      1.0000 0.51500  0.38970  0.64790  Biso   1.000  C
  C44      1.0000 0.51500  0.61030  0.14790  Biso   1.000  C
  H33      1.0000 0.95700  0.91830  0.60800  Biso   1.000  H
  H34      1.0000 0.95700  0.08170  0.10800  Biso   1.000  H
  H35      1.0000 0.45700  0.41830  0.60800  Biso   1.000  H
  H36      1.0000 0.45700  0.58170  0.10800  Biso   1.000  H
  C45      1.0000 0.13990  0.89380  0.64960  Biso   1.000  C
  C46      1.0000 0.13990  0.10620  0.14960  Biso   1.000  C
  C47      1.0000 0.63990  0.39380  0.64960  Biso   1.000  C
  C48      1.0000 0.63990  0.60620  0.14960  Biso   1.000  C
  H37      1.0000 0.16410  0.92660  0.61220  Biso   1.000  H
  H38      1.0000 0.16410  0.07340  0.11220  Biso   1.000  H
  H39      1.0000 0.66410  0.42660  0.61220  Biso   1.000  H
  H40      1.0000 0.66410  0.57340  0.11220  Biso   1.000  H
  C49      1.0000 0.23000  0.84930  0.70680  Biso   1.000  C
  C50      1.0000 0.23000  0.15070  0.20680  Biso   1.000  C
  C51      1.0000 0.73000  0.34930  0.70680  Biso   1.000  C
  C52      1.0000 0.73000  0.65070  0.20680  Biso   1.000  C
  C53      1.0000 0.18770  0.80440  0.76210  Biso   1.000  C
  C54      1.0000 0.18770  0.19560  0.26210  Biso   1.000  C
  C55      1.0000 0.68770  0.30440  0.76210  Biso   1.000  C
  C56      1.0000 0.68770  0.69560  0.26210  Biso   1.000  C
  H41      1.0000 0.24360  0.77300  0.80100  Biso   1.000  H
  H42      1.0000 0.24360  0.22700  0.30100  Biso   1.000  H
  H43      1.0000 0.74360  0.27300  0.80100  Biso   1.000  H
  H44      1.0000 0.74360  0.72700  0.30100  Biso   1.000  H
  C57      1.0000 0.06080  0.80610  0.76000  Biso   1.000  C
  C58      1.0000 0.06080  0.19390  0.26000  Biso   1.000  C
  C59      1.0000 0.56080  0.30610  0.76000  Biso   1.000  C
  C60      1.0000 0.56080  0.69390  0.26000  Biso   1.000  C
  H45      1.0000 0.03560  0.77910  0.80010  Biso   1.000  H
  H46      1.0000 0.03560  0.22090  0.30010  Biso   1.000  H
  H47      1.0000 0.53560  0.27910  0.80010  Biso   1.000  H
  H48      1.0000 0.53560  0.72090  0.30010  Biso   1.000  H
  C61      1.0000 0.56800  0.79230  0.74990  Biso   1.000  C
  C62      1.0000 0.56800  0.20770  0.24990  Biso   1.000  C
  C63      1.0000 0.06800  0.29230  0.74990  Biso   1.000  C
  C64      1.0000 0.06800  0.70770  0.24990  Biso   1.000  C
  H49      1.0000 0.62350  0.75540  0.78340  Biso   1.000  H
  H50      1.0000 0.62350  0.24460  0.28340  Biso   1.000  H
  H51      1.0000 0.12350  0.25540  0.78340  Biso   1.000  H
  H52      1.0000 0.12350  0.74460  0.28340  Biso   1.000  H
  C65      1.0000 0.44640  0.79230  0.75230  Biso   1.000  C
  C66      1.0000 0.44640  0.20770  0.25230  Biso   1.000  C
  C67      1.0000 0.94640  0.29230  0.75230  Biso   1.000  C
  C68      1.0000 0.94640  0.70770  0.25230  Biso   1.000  C
  H53      1.0000 0.42020  0.75490  0.78590  Biso   1.000  H
  H54      1.0000 0.42020  0.24510  0.28590  Biso   1.000  H
  H55      1.0000 0.92020  0.25490  0.78590  Biso   1.000  H
  H56      1.0000 0.92020  0.74510  0.28590  Biso   1.000  H
  C69      1.0000 0.36300  0.84860  0.70410  Biso   1.000  C
  C70      1.0000 0.36300  0.15140  0.20410  Biso   1.000  C
  C71      1.0000 0.86300  0.34860  0.70410  Biso   1.000  C
  C72      1.0000 0.86300  0.65140  0.20410  Biso   1.000  C
  C73      1.0000 0.40850  0.90450  0.65820  Biso   1.000  C
  C74      1.0000 0.40850  0.09550  0.15820  Biso   1.000  C
  C75      1.0000 0.90850  0.40450  0.65820  Biso   1.000  C
  C76      1.0000 0.90850  0.59550  0.15820  Biso   1.000  C
  H57      1.0000 0.35620  0.94480  0.62640  Biso   1.000  H
  H58      1.0000 0.35620  0.05520  0.12640  Biso   1.000  H
  H59      1.0000 0.85620  0.44480  0.62640  Biso   1.000  H
  H60      1.0000 0.85620  0.55520  0.12640  Biso   1.000  H
  C77      1.0000 0.53130  0.90050  0.65980  Biso   1.000  C
  C78      1.0000 0.53130  0.09950  0.15980  Biso   1.000  C
  C79      1.0000 0.03130  0.40050  0.65980  Biso   1.000  C
  C80      1.0000 0.03130  0.59950  0.15980  Biso   1.000  C
  H61      1.0000 0.56080  0.94060  0.62990  Biso   1.000  H
  H62      1.0000 0.56080  0.05940  0.12990  Biso   1.000  H
  H63      1.0000 0.06080  0.44060  0.62990  Biso   1.000  H
  H64      1.0000 0.06080  0.55940  0.12990  Biso   1.000  H
  C81      1.0000 0.82830  0.01160  0.77030  Biso   1.000  C
  C82      1.0000 0.82830  0.98840  0.27030  Biso   1.000  C
  C83      1.0000 0.32830  0.51160  0.77030  Biso   1.000  C
  C84      1.0000 0.32830  0.48840  0.27030  Biso   1.000  C
  C85      1.0000 0.86550  0.96000  0.84410  Biso   1.000  C
  C86      1.0000 0.86550  0.04000  0.34410  Biso   1.000  C
  C87      1.0000 0.36550  0.46000  0.84410  Biso   1.000  C
  C88      1.0000 0.36550  0.54000  0.34410  Biso   1.000  C
  H65      1.0000 0.95400  0.94750  0.85610  Biso   1.000  H
  H66      1.0000 0.95400  0.05250  0.35610  Biso   1.000  H
  H67      1.0000 0.45400  0.44750  0.85610  Biso   1.000  H
  H68      1.0000 0.45400  0.55250  0.35610  Biso   1.000  H
  H69      1.0000 0.82140  0.90510  0.83590  Biso   1.000  H
  H70      1.0000 0.82140  0.09490  0.33590  Biso   1.000  H
  H71      1.0000 0.32140  0.40510  0.83590  Biso   1.000  H
  H72      1.0000 0.32140  0.59490  0.33590  Biso   1.000  H
  C89      1.0000 0.83900  0.00600  0.91440  Biso   1.000  C
  C90      1.0000 0.83900  0.99400  0.41440  Biso   1.000  C
  C91      1.0000 0.33900  0.50600  0.91440  Biso   1.000  C
  C92      1.0000 0.33900  0.49400  0.41440  Biso   1.000  C
  H73      1.0000 0.88890  0.97920  0.96210  Biso   1.000  H
  H74      1.0000 0.88890  0.02080  0.46210  Biso   1.000  H
  H75      1.0000 0.38890  0.47920  0.96210  Biso   1.000  H
  H76      1.0000 0.38890  0.52080  0.46210  Biso   1.000  H
  H77      1.0000 0.86480  0.06620  0.91460  Biso   1.000  H
  H78      1.0000 0.86480  0.93380  0.41460  Biso   1.000  H
  H79      1.0000 0.36480  0.56620  0.91460  Biso   1.000  H
  H80      1.0000 0.36480  0.43380  0.41460  Biso   1.000  H
  C93      1.0000 0.70500  0.00360  0.91520  Biso   1.000  C
  C94      1.0000 0.70500  0.99640  0.41520  Biso   1.000  C
  C95      1.0000 0.20500  0.50360  0.91520  Biso   1.000  C
  C96      1.0000 0.20500  0.49640  0.41520  Biso   1.000  C
  H81      1.0000 0.67790  0.94360  0.91290  Biso   1.000  H
  H82      1.0000 0.67790  0.05640  0.41290  Biso   1.000  H
  H83      1.0000 0.17790  0.44360  0.91290  Biso   1.000  H
  H84      1.0000 0.17790  0.55640  0.41290  Biso   1.000  H
  H85      1.0000 0.65530  0.03300  0.86900  Biso   1.000  H
  H86      1.0000 0.65530  0.96700  0.36900  Biso   1.000  H
  H87      1.0000 0.15530  0.53300  0.86900  Biso   1.000  H
  H88      1.0000 0.15530  0.46700  0.36900  Biso   1.000  H
  C97      1.0000 0.68320  0.04680  0.98840  Biso   1.000  C
  C98      1.0000 0.68320  0.95320  0.48840  Biso   1.000  C
  C99      1.0000 0.18320  0.54680  0.98840  Biso   1.000  C
  C100     1.0000 0.18320  0.45320  0.48840  Biso   1.000  C
  H89      1.0000 0.59920  0.03370  0.99080  Biso   1.000  H
  H90      1.0000 0.59920  0.96630  0.49080  Biso   1.000  H
  H91      1.0000 0.09920  0.53370  0.99080  Biso   1.000  H
  H92      1.0000 0.09920  0.46630  0.49080  Biso   1.000  H
  H93      1.0000 0.74050  0.02200  0.03460  Biso   1.000  H
  H94      1.0000 0.74050  0.97800  0.53460  Biso   1.000  H
  H95      1.0000 0.24050  0.52200  0.03460  Biso   1.000  H
  H96      1.0000 0.24050  0.47800  0.53460  Biso   1.000  H
  C101     1.0000 0.70000  0.14480  0.99020  Biso   1.000  C
  C102     1.0000 0.70000  0.85520  0.49020  Biso   1.000  C
  C103     1.0000 0.20000  0.64480  0.99020  Biso   1.000  C
  C104     1.0000 0.20000  0.35520  0.49020  Biso   1.000  C
  C105     1.0000 0.82790  0.31980  0.26180  Biso   1.000  C
  C106     1.0000 0.82790  0.68020  0.76180  Biso   1.000  C
  C107     1.0000 0.32790  0.81980  0.26180  Biso   1.000  C
  C108     1.0000 0.32790  0.18020  0.76180  Biso   1.000  C
  C109     1.0000 0.83990  0.41710  0.26960  Biso   1.000  C
  C110     1.0000 0.83990  0.58290  0.76960  Biso   1.000  C
  C111     1.0000 0.33990  0.91710  0.26960  Biso   1.000  C
  C112     1.0000 0.33990  0.08290  0.76960  Biso   1.000  C
  H97      1.0000 0.92060  0.43450  0.26390  Biso   1.000  H
  H98      1.0000 0.92060  0.56550  0.76390  Biso   1.000  H
  H99      1.0000 0.42060  0.93450  0.26390  Biso   1.000  H
  H100     1.0000 0.42060  0.06550  0.76390  Biso   1.000  H
  H101     1.0000 0.77640  0.44410  0.22770  Biso   1.000  H
  H102     1.0000 0.77640  0.55590  0.72770  Biso   1.000  H
  H103     1.0000 0.27640  0.94410  0.22770  Biso   1.000  H
  H104     1.0000 0.27640  0.05590  0.72770  Biso   1.000  H
  C113     1.0000 0.82700  0.44950  0.34750  Biso   1.000  C
  C114     1.0000 0.82700  0.55050  0.84750  Biso   1.000  C
  C115     1.0000 0.32700  0.94950  0.34750  Biso   1.000  C
  C116     1.0000 0.32700  0.05050  0.84750  Biso   1.000  C
  H105     1.0000 0.88530  0.41860  0.38920  Biso   1.000  H
  H106     1.0000 0.88530  0.58140  0.88920  Biso   1.000  H
  H107     1.0000 0.38530  0.91860  0.38920  Biso   1.000  H
  H108     1.0000 0.38530  0.08140  0.88920  Biso   1.000  H
  H109     1.0000 0.84840  0.51070  0.35270  Biso   1.000  H
  H110     1.0000 0.84840  0.48930  0.85270  Biso   1.000  H
  H111     1.0000 0.34840  0.01070  0.35270  Biso   1.000  H
  H112     1.0000 0.34840  0.98930  0.85270  Biso   1.000  H
  C117     1.0000 0.69500  0.43810  0.35760  Biso   1.000  C
  C118     1.0000 0.69500  0.56190  0.85760  Biso   1.000  C
  C119     1.0000 0.19500  0.93810  0.35760  Biso   1.000  C
  C120     1.0000 0.19500  0.06190  0.85760  Biso   1.000  C
  H113     1.0000 0.63900  0.47910  0.32420  Biso   1.000  H
  H114     1.0000 0.63900  0.52090  0.82420  Biso   1.000  H
  H115     1.0000 0.13900  0.97910  0.32420  Biso   1.000  H
  H116     1.0000 0.13900  0.02090  0.82420  Biso   1.000  H
  H117     1.0000 0.66540  0.37990  0.34150  Biso   1.000  H
  H118     1.0000 0.66540  0.62010  0.84150  Biso   1.000  H
  H119     1.0000 0.16540  0.87990  0.34150  Biso   1.000  H
  H120     1.0000 0.16540  0.12010  0.84150  Biso   1.000  H
  C121     1.0000 0.69400  0.45290  0.44480  Biso   1.000  C
  C122     1.0000 0.69400  0.54710  0.94480  Biso   1.000  C
  C123     1.0000 0.19400  0.95290  0.44480  Biso   1.000  C
  C124     1.0000 0.19400  0.04710  0.94480  Biso   1.000  C
  H121     1.0000 0.75950  0.41810  0.47820  Biso   1.000  H
  H122     1.0000 0.75950  0.58190  0.97820  Biso   1.000  H
  H123     1.0000 0.25950  0.91810  0.47820  Biso   1.000  H
  H124     1.0000 0.25950  0.08190  0.97820  Biso   1.000  H
  H125     1.0000 0.61520  0.43170  0.45110  Biso   1.000  H
  H126     1.0000 0.61520  0.56830  0.95110  Biso   1.000  H
  H127     1.0000 0.11520  0.93170  0.45110  Biso   1.000  H
  H128     1.0000 0.11520  0.06830  0.95110  Biso   1.000  H
  C125     1.0000 0.71040  0.54470  0.47250  Biso   1.000  C
  C126     1.0000 0.71040  0.45530  0.97250  Biso   1.000  C
  C127     1.0000 0.21040  0.04470  0.47250  Biso   1.000  C
  C128     1.0000 0.21040  0.95530  0.97250  Biso   1.000  C
