data_image0
_cell_length_a       29.91
_cell_length_b       9.3178
_cell_length_c       23.607
_cell_angle_alpha    90
_cell_angle_beta     127.21
_cell_angle_gamma    90

_symmetry_space_group_name_H-M    "P 1"
_symmetry_int_tables_number       1

loop_
  _symmetry_equiv_pos_as_xyz
  'x, y, z'

loop_
  _atom_site_label
  _atom_site_occupancy
  _atom_site_fract_x
  _atom_site_fract_y
  _atom_site_fract_z
  _atom_site_thermal_displace_type
  _atom_site_B_iso_or_equiv
  _atom_site_type_symbol
  Cu1      1.0000 0.18651  0.13402  0.22949  Biso   1.000  Cu
  Cu2      1.0000 0.81349  0.13402  0.27051  Biso   1.000  Cu
  Cu3      1.0000 0.68651  0.63402  0.22949  Biso   1.000  Cu
  Cu4      1.0000 0.31349  0.63402  0.27051  Biso   1.000  Cu
  Cu5      1.0000 0.81349  0.86598  0.77051  Biso   1.000  Cu
  Cu6      1.0000 0.18651  0.86598  0.72949  Biso   1.000  Cu
  Cu7      1.0000 0.31349  0.36598  0.77051  Biso   1.000  Cu
  Cu8      1.0000 0.68651  0.36598  0.72949  Biso   1.000  Cu
  S1       1.0000 0.20352  0.80753  0.25640  Biso   1.000  S
  S2       1.0000 0.79648  0.80753  0.24360  Biso   1.000  S
  S3       1.0000 0.70352  0.30753  0.25640  Biso   1.000  S
  S4       1.0000 0.29648  0.30753  0.24360  Biso   1.000  S
  S5       1.0000 0.79648  0.19247  0.74360  Biso   1.000  S
  S6       1.0000 0.20352  0.19247  0.75640  Biso   1.000  S
  S7       1.0000 0.29648  0.69247  0.74360  Biso   1.000  S
  S8       1.0000 0.70352  0.69247  0.75640  Biso   1.000  S
  O1       1.0000 0.10596  0.02180  0.23041  Biso   1.000  O
  O2       1.0000 0.89404  0.02180  0.26959  Biso   1.000  O
  O3       1.0000 0.60596  0.52180  0.23041  Biso   1.000  O
  O4       1.0000 0.39404  0.52180  0.26959  Biso   1.000  O
  O5       1.0000 0.89404  0.97820  0.76959  Biso   1.000  O
  O6       1.0000 0.10596  0.97820  0.73041  Biso   1.000  O
  O7       1.0000 0.39404  0.47820  0.76959  Biso   1.000  O
  O8       1.0000 0.60596  0.47820  0.73041  Biso   1.000  O
  H1       1.0000 0.12050  0.95610  0.25250  Biso   1.000  H
  H2       1.0000 0.87950  0.95610  0.24750  Biso   1.000  H
  H3       1.0000 0.62050  0.45610  0.25250  Biso   1.000  H
  H4       1.0000 0.37950  0.45610  0.24750  Biso   1.000  H
  H5       1.0000 0.87950  0.04390  0.74750  Biso   1.000  H
  H6       1.0000 0.12050  0.04390  0.75250  Biso   1.000  H
  H7       1.0000 0.37950  0.54390  0.74750  Biso   1.000  H
  H8       1.0000 0.62050  0.54390  0.75250  Biso   1.000  H
  O9       1.0000 0.14337  0.04580  0.13259  Biso   1.000  O
  O10      1.0000 0.85663  0.04580  0.36741  Biso   1.000  O
  O11      1.0000 0.64337  0.54580  0.13259  Biso   1.000  O
  O12      1.0000 0.35663  0.54580  0.36741  Biso   1.000  O
  O13      1.0000 0.85663  0.95420  0.86741  Biso   1.000  O
  O14      1.0000 0.14337  0.95420  0.63259  Biso   1.000  O
  O15      1.0000 0.35663  0.45420  0.86741  Biso   1.000  O
  O16      1.0000 0.64337  0.45420  0.63259  Biso   1.000  O
  H9       1.0000 0.14350  0.97340  0.13370  Biso   1.000  H
  H10      1.0000 0.85650  0.97340  0.36630  Biso   1.000  H
  H11      1.0000 0.64350  0.47340  0.13370  Biso   1.000  H
  H12      1.0000 0.35650  0.47340  0.36630  Biso   1.000  H
  H13      1.0000 0.85650  0.02660  0.86630  Biso   1.000  H
  H14      1.0000 0.14350  0.02660  0.63370  Biso   1.000  H
  H15      1.0000 0.35650  0.52660  0.86630  Biso   1.000  H
  H16      1.0000 0.64350  0.52660  0.63370  Biso   1.000  H
  O17      1.0000 0.22764  0.95570  0.27274  Biso   1.000  O
  O18      1.0000 0.77236  0.95570  0.22726  Biso   1.000  O
  O19      1.0000 0.72764  0.45570  0.27274  Biso   1.000  O
  O20      1.0000 0.27236  0.45570  0.22726  Biso   1.000  O
  O21      1.0000 0.77236  0.04430  0.72726  Biso   1.000  O
  O22      1.0000 0.22764  0.04430  0.77274  Biso   1.000  O
  O23      1.0000 0.27236  0.54430  0.72726  Biso   1.000  O
  O24      1.0000 0.72764  0.54430  0.77274  Biso   1.000  O
  O25      1.0000 0.17313  0.78870  0.28634  Biso   1.000  O
  O26      1.0000 0.82687  0.78870  0.21366  Biso   1.000  O
  O27      1.0000 0.67313  0.28870  0.28634  Biso   1.000  O
  O28      1.0000 0.32687  0.28870  0.21366  Biso   1.000  O
  O29      1.0000 0.82687  0.21130  0.71366  Biso   1.000  O
  O30      1.0000 0.17313  0.21130  0.78634  Biso   1.000  O
  O31      1.0000 0.32687  0.71130  0.71366  Biso   1.000  O
  O32      1.0000 0.67313  0.71130  0.78634  Biso   1.000  O
  O33      1.0000 0.16561  0.79030  0.17922  Biso   1.000  O
  O34      1.0000 0.83439  0.79030  0.32078  Biso   1.000  O
  O35      1.0000 0.66561  0.29030  0.17922  Biso   1.000  O
  O36      1.0000 0.33439  0.29030  0.32078  Biso   1.000  O
  O37      1.0000 0.83439  0.20970  0.82078  Biso   1.000  O
  O38      1.0000 0.16561  0.20970  0.67922  Biso   1.000  O
  O39      1.0000 0.33439  0.70970  0.82078  Biso   1.000  O
  O40      1.0000 0.66561  0.70970  0.67922  Biso   1.000  O
  O41      1.0000 0.24995  0.70710  0.28942  Biso   1.000  O
  O42      1.0000 0.75005  0.70710  0.21058  Biso   1.000  O
  O43      1.0000 0.74995  0.20710  0.28942  Biso   1.000  O
  O44      1.0000 0.25005  0.20710  0.21058  Biso   1.000  O
  O45      1.0000 0.75005  0.29290  0.71058  Biso   1.000  O
  O46      1.0000 0.24995  0.29290  0.78942  Biso   1.000  O
  O47      1.0000 0.25005  0.79290  0.71058  Biso   1.000  O
  O48      1.0000 0.74995  0.79290  0.78942  Biso   1.000  O
  C1       1.0000 0.08286  0.29170  0.17590  Biso   1.000  C
  C2       1.0000 0.91714  0.29170  0.32410  Biso   1.000  C
  C3       1.0000 0.58286  0.79170  0.17590  Biso   1.000  C
  C4       1.0000 0.41714  0.79170  0.32410  Biso   1.000  C
  C5       1.0000 0.91714  0.70830  0.82410  Biso   1.000  C
  C6       1.0000 0.08286  0.70830  0.67590  Biso   1.000  C
  C7       1.0000 0.41714  0.20830  0.82410  Biso   1.000  C
  C8       1.0000 0.58286  0.20830  0.67590  Biso   1.000  C
  H17      1.0000 0.06260  0.21460  0.14180  Biso   1.000  H
  H18      1.0000 0.93740  0.21460  0.35820  Biso   1.000  H
  H19      1.0000 0.56260  0.71460  0.14180  Biso   1.000  H
  H20      1.0000 0.43740  0.71460  0.35820  Biso   1.000  H
  H21      1.0000 0.93740  0.78540  0.85820  Biso   1.000  H
  H22      1.0000 0.06260  0.78540  0.64180  Biso   1.000  H
  H23      1.0000 0.43740  0.28540  0.85820  Biso   1.000  H
  H24      1.0000 0.56260  0.28540  0.64180  Biso   1.000  H
  H25      1.0000 0.06100  0.37880  0.15460  Biso   1.000  H
  H26      1.0000 0.93900  0.37880  0.34540  Biso   1.000  H
  H27      1.0000 0.56100  0.87880  0.15460  Biso   1.000  H
  H28      1.0000 0.43900  0.87880  0.34540  Biso   1.000  H
  H29      1.0000 0.93900  0.62120  0.84540  Biso   1.000  H
  H30      1.0000 0.06100  0.62120  0.65460  Biso   1.000  H
  H31      1.0000 0.43900  0.12120  0.84540  Biso   1.000  H
  H32      1.0000 0.56100  0.12120  0.65460  Biso   1.000  H
  N1       1.0000 0.13813  0.31130  0.18905  Biso   1.000  N
  N2       1.0000 0.86187  0.31130  0.31095  Biso   1.000  N
  N3       1.0000 0.63813  0.81130  0.18905  Biso   1.000  N
  N4       1.0000 0.36187  0.81130  0.31095  Biso   1.000  N
  N5       1.0000 0.86187  0.68870  0.81095  Biso   1.000  N
  N6       1.0000 0.13813  0.68870  0.68905  Biso   1.000  N
  N7       1.0000 0.36187  0.18870  0.81095  Biso   1.000  N
  N8       1.0000 0.63813  0.18870  0.68905  Biso   1.000  N
  N9       1.0000 0.22087  0.23090  0.32173  Biso   1.000  N
  N10      1.0000 0.77913  0.23090  0.17827  Biso   1.000  N
  N11      1.0000 0.72087  0.73090  0.32173  Biso   1.000  N
  N12      1.0000 0.27913  0.73090  0.17827  Biso   1.000  N
  N13      1.0000 0.77913  0.76910  0.67827  Biso   1.000  N
  N14      1.0000 0.22087  0.76910  0.82173  Biso   1.000  N
  N15      1.0000 0.27913  0.26910  0.67827  Biso   1.000  N
  N16      1.0000 0.72087  0.26910  0.82173  Biso   1.000  N
  C9       1.0000 0.10090  0.09980  0.06690  Biso   1.000  C
  C10      1.0000 0.89910  0.09980  0.43310  Biso   1.000  C
  C11      1.0000 0.60090  0.59980  0.06690  Biso   1.000  C
  C12      1.0000 0.39910  0.59980  0.43310  Biso   1.000  C
  C13      1.0000 0.89910  0.90020  0.93310  Biso   1.000  C
  C14      1.0000 0.10090  0.90020  0.56690  Biso   1.000  C
  C15      1.0000 0.39910  0.40020  0.93310  Biso   1.000  C
  C16      1.0000 0.60090  0.40020  0.56690  Biso   1.000  C
  C17      1.0000 0.20781  0.36880  0.31610  Biso   1.000  C
  C18      1.0000 0.79219  0.36880  0.18390  Biso   1.000  C
  C19      1.0000 0.70781  0.86880  0.31610  Biso   1.000  C
  C20      1.0000 0.29219  0.86880  0.18390  Biso   1.000  C
  C21      1.0000 0.79219  0.63120  0.68390  Biso   1.000  C
  C22      1.0000 0.20781  0.63120  0.81610  Biso   1.000  C
  C23      1.0000 0.29219  0.13120  0.68390  Biso   1.000  C
  C24      1.0000 0.70781  0.13120  0.81610  Biso   1.000  C
  C25      1.0000 0.09257  0.24810  0.06080  Biso   1.000  C
  C26      1.0000 0.90743  0.24810  0.43920  Biso   1.000  C
  C27      1.0000 0.59257  0.74810  0.06080  Biso   1.000  C
  C28      1.0000 0.40743  0.74810  0.43920  Biso   1.000  C
  C29      1.0000 0.90743  0.75190  0.93920  Biso   1.000  C
  C30      1.0000 0.09257  0.75190  0.56080  Biso   1.000  C
  C31      1.0000 0.40743  0.25190  0.93920  Biso   1.000  C
  C32      1.0000 0.59257  0.25190  0.56080  Biso   1.000  C
  C33      1.0000 0.12912  0.35030  0.12170  Biso   1.000  C
  C34      1.0000 0.87088  0.35030  0.37830  Biso   1.000  C
  C35      1.0000 0.62912  0.85030  0.12170  Biso   1.000  C
  C36      1.0000 0.37088  0.85030  0.37830  Biso   1.000  C
  C37      1.0000 0.87088  0.64970  0.87830  Biso   1.000  C
  C38      1.0000 0.12912  0.64970  0.62170  Biso   1.000  C
  C39      1.0000 0.37088  0.14970  0.87830  Biso   1.000  C
  C40      1.0000 0.62912  0.14970  0.62170  Biso   1.000  C
  H33      1.0000 0.16540  0.35610  0.13090  Biso   1.000  H
  H34      1.0000 0.83460  0.35610  0.36910  Biso   1.000  H
  H35      1.0000 0.66540  0.85610  0.13090  Biso   1.000  H
  H36      1.0000 0.33460  0.85610  0.36910  Biso   1.000  H
  H37      1.0000 0.83460  0.64390  0.86910  Biso   1.000  H
  H38      1.0000 0.16540  0.64390  0.63090  Biso   1.000  H
  H39      1.0000 0.33460  0.14390  0.86910  Biso   1.000  H
  H40      1.0000 0.66540  0.14390  0.63090  Biso   1.000  H
  H41      1.0000 0.11230  0.44500  0.10730  Biso   1.000  H
  H42      1.0000 0.88770  0.44500  0.39270  Biso   1.000  H
  H43      1.0000 0.61230  0.94500  0.10730  Biso   1.000  H
  H44      1.0000 0.38770  0.94500  0.39270  Biso   1.000  H
  H45      1.0000 0.88770  0.55500  0.89270  Biso   1.000  H
  H46      1.0000 0.11230  0.55500  0.60730  Biso   1.000  H
  H47      1.0000 0.38770  0.05500  0.89270  Biso   1.000  H
  H48      1.0000 0.61230  0.05500  0.60730  Biso   1.000  H
  C41      1.0000 0.06858  0.00890  0.00880  Biso   1.000  C
  C42      1.0000 0.93142  0.00890  0.49120  Biso   1.000  C
  C43      1.0000 0.56858  0.50890  0.00880  Biso   1.000  C
  C44      1.0000 0.43142  0.50890  0.49120  Biso   1.000  C
  C45      1.0000 0.93142  0.99110  0.99120  Biso   1.000  C
  C46      1.0000 0.06858  0.99110  0.50880  Biso   1.000  C
  C47      1.0000 0.43142  0.49110  0.99120  Biso   1.000  C
  C48      1.0000 0.56858  0.49110  0.50880  Biso   1.000  C
  C49      1.0000 0.17147  0.42740  0.24130  Biso   1.000  C
  C50      1.0000 0.82853  0.42740  0.25870  Biso   1.000  C
  C51      1.0000 0.67147  0.92740  0.24130  Biso   1.000  C
  C52      1.0000 0.32853  0.92740  0.25870  Biso   1.000  C
  C53      1.0000 0.82853  0.57260  0.75870  Biso   1.000  C
  C54      1.0000 0.17147  0.57260  0.74130  Biso   1.000  C
  C55      1.0000 0.32853  0.07260  0.75870  Biso   1.000  C
  C56      1.0000 0.67147  0.07260  0.74130  Biso   1.000  C
  H49      1.0000 0.14630  0.49970  0.23720  Biso   1.000  H
  H50      1.0000 0.85370  0.49970  0.26280  Biso   1.000  H
  H51      1.0000 0.64630  0.99970  0.23720  Biso   1.000  H
  H52      1.0000 0.35370  0.99970  0.26280  Biso   1.000  H
  H53      1.0000 0.85370  0.50030  0.76280  Biso   1.000  H
  H54      1.0000 0.14630  0.50030  0.73720  Biso   1.000  H
  H55      1.0000 0.35370  0.00030  0.76280  Biso   1.000  H
  H56      1.0000 0.64630  0.00030  0.73720  Biso   1.000  H
  H57      1.0000 0.19500  0.47270  0.23090  Biso   1.000  H
  H58      1.0000 0.80500  0.47270  0.26910  Biso   1.000  H
  H59      1.0000 0.69500  0.97270  0.23090  Biso   1.000  H
  H60      1.0000 0.30500  0.97270  0.26910  Biso   1.000  H
  H61      1.0000 0.80500  0.52730  0.76910  Biso   1.000  H
  H62      1.0000 0.19500  0.52730  0.73090  Biso   1.000  H
  H63      1.0000 0.30500  0.02730  0.76910  Biso   1.000  H
  H64      1.0000 0.69500  0.02730  0.73090  Biso   1.000  H
  C57      1.0000 0.02752  0.07230  0.94280  Biso   1.000  C
  C58      1.0000 0.97248  0.07230  0.55720  Biso   1.000  C
  C59      1.0000 0.52752  0.57230  0.94280  Biso   1.000  C
  C60      1.0000 0.47248  0.57230  0.55720  Biso   1.000  C
  C61      1.0000 0.97248  0.92770  0.05720  Biso   1.000  C
  C62      1.0000 0.02752  0.92770  0.44280  Biso   1.000  C
  C63      1.0000 0.47248  0.42770  0.05720  Biso   1.000  C
  C64      1.0000 0.52752  0.42770  0.44280  Biso   1.000  C
  H65      1.0000 0.00590  0.01320  0.90310  Biso   1.000  H
  H66      1.0000 0.99410  0.01320  0.59690  Biso   1.000  H
  H67      1.0000 0.50590  0.51320  0.90310  Biso   1.000  H
  H68      1.0000 0.49410  0.51320  0.59690  Biso   1.000  H
  H69      1.0000 0.99410  0.98680  0.09690  Biso   1.000  H
  H70      1.0000 0.00590  0.98680  0.40310  Biso   1.000  H
  H71      1.0000 0.49410  0.48680  0.09690  Biso   1.000  H
  H72      1.0000 0.50590  0.48680  0.40310  Biso   1.000  H
  C65      1.0000 0.09736  0.11660  0.26620  Biso   1.000  C
  C66      1.0000 0.90264  0.11660  0.23380  Biso   1.000  C
  C67      1.0000 0.59736  0.61660  0.26620  Biso   1.000  C
  C68      1.0000 0.40264  0.61660  0.23380  Biso   1.000  C
  C69      1.0000 0.90264  0.88340  0.73380  Biso   1.000  C
  C70      1.0000 0.09736  0.88340  0.76620  Biso   1.000  C
  C71      1.0000 0.40264  0.38340  0.73380  Biso   1.000  C
  C72      1.0000 0.59736  0.38340  0.76620  Biso   1.000  C
  C73      1.0000 0.05012  0.30240  0.99290  Biso   1.000  C
  C74      1.0000 0.94988  0.30240  0.50710  Biso   1.000  C
  C75      1.0000 0.55012  0.80240  0.99290  Biso   1.000  C
  C76      1.0000 0.44988  0.80240  0.50710  Biso   1.000  C
  C77      1.0000 0.94988  0.69760  0.00710  Biso   1.000  C
  C78      1.0000 0.05012  0.69760  0.49290  Biso   1.000  C
  C79      1.0000 0.44988  0.19760  0.00710  Biso   1.000  C
  C80      1.0000 0.55012  0.19760  0.49290  Biso   1.000  C
  H73      1.0000 0.04380  0.40090  0.98790  Biso   1.000  H
  H74      1.0000 0.95620  0.40090  0.51210  Biso   1.000  H
  H75      1.0000 0.54380  0.90090  0.98790  Biso   1.000  H
  H76      1.0000 0.45620  0.90090  0.51210  Biso   1.000  H
  H77      1.0000 0.95620  0.59910  0.01210  Biso   1.000  H
  H78      1.0000 0.04380  0.59910  0.48790  Biso   1.000  H
  H79      1.0000 0.45620  0.09910  0.01210  Biso   1.000  H
  H80      1.0000 0.54380  0.09910  0.48790  Biso   1.000  H
  C81      1.0000 0.01767  0.21780  0.93390  Biso   1.000  C
  C82      1.0000 0.98233  0.21780  0.56610  Biso   1.000  C
  C83      1.0000 0.51767  0.71780  0.93390  Biso   1.000  C
  C84      1.0000 0.48233  0.71780  0.56610  Biso   1.000  C
  C85      1.0000 0.98233  0.78220  0.06610  Biso   1.000  C
  C86      1.0000 0.01767  0.78220  0.43390  Biso   1.000  C
  C87      1.0000 0.48233  0.28220  0.06610  Biso   1.000  C
  C88      1.0000 0.51767  0.28220  0.43390  Biso   1.000  C
  C89      1.0000 0.97220  0.28210  0.86240  Biso   1.000  C
  C90      1.0000 0.02780  0.28210  0.63760  Biso   1.000  C
  C91      1.0000 0.47220  0.78210  0.86240  Biso   1.000  C
  C92      1.0000 0.52780  0.78210  0.63760  Biso   1.000  C
  C93      1.0000 0.02780  0.71790  0.13760  Biso   1.000  C
  C94      1.0000 0.97220  0.71790  0.36240  Biso   1.000  C
  C95      1.0000 0.52780  0.21790  0.13760  Biso   1.000  C
  C96      1.0000 0.47220  0.21790  0.36240  Biso   1.000  C
  H81      1.0000 0.93610  0.25060  0.84800  Biso   1.000  H
  H82      1.0000 0.06390  0.25060  0.65200  Biso   1.000  H
  H83      1.0000 0.43610  0.75060  0.84800  Biso   1.000  H
  H84      1.0000 0.56390  0.75060  0.65200  Biso   1.000  H
  H85      1.0000 0.06390  0.74940  0.15200  Biso   1.000  H
  H86      1.0000 0.93610  0.74940  0.34800  Biso   1.000  H
  H87      1.0000 0.56390  0.24940  0.15200  Biso   1.000  H
  H88      1.0000 0.43610  0.24940  0.34800  Biso   1.000  H
  H89      1.0000 0.97740  0.25170  0.82780  Biso   1.000  H
  H90      1.0000 0.02260  0.25170  0.67220  Biso   1.000  H
  H91      1.0000 0.47740  0.75170  0.82780  Biso   1.000  H
  H92      1.0000 0.52260  0.75170  0.67220  Biso   1.000  H
  H93      1.0000 0.02260  0.74830  0.17220  Biso   1.000  H
  H94      1.0000 0.97740  0.74830  0.32780  Biso   1.000  H
  H95      1.0000 0.52260  0.24830  0.17220  Biso   1.000  H
  H96      1.0000 0.47740  0.24830  0.32780  Biso   1.000  H
  H97      1.0000 0.97420  0.38490  0.86580  Biso   1.000  H
  H98      1.0000 0.02580  0.38490  0.63420  Biso   1.000  H
  H99      1.0000 0.47420  0.88490  0.86580  Biso   1.000  H
  H100     1.0000 0.52580  0.88490  0.63420  Biso   1.000  H
  H101     1.0000 0.02580  0.61510  0.13420  Biso   1.000  H
  H102     1.0000 0.97420  0.61510  0.36580  Biso   1.000  H
  H103     1.0000 0.52580  0.11510  0.13420  Biso   1.000  H
  H104     1.0000 0.47420  0.11510  0.36580  Biso   1.000  H
  C97      1.0000 0.08707  0.25800  0.24110  Biso   1.000  C
  C98      1.0000 0.91293  0.25800  0.25890  Biso   1.000  C
  C99      1.0000 0.58707  0.75800  0.24110  Biso   1.000  C
  C100     1.0000 0.41293  0.75800  0.25890  Biso   1.000  C
  C101     1.0000 0.91293  0.74200  0.75890  Biso   1.000  C
  C102     1.0000 0.08707  0.74200  0.74110  Biso   1.000  C
  C103     1.0000 0.41293  0.24200  0.75890  Biso   1.000  C
  C104     1.0000 0.58707  0.24200  0.74110  Biso   1.000  C
  C105     1.0000 0.07824  0.36100  0.27590  Biso   1.000  C
  C106     1.0000 0.92176  0.36100  0.22410  Biso   1.000  C
  C107     1.0000 0.57824  0.86100  0.27590  Biso   1.000  C
  C108     1.0000 0.42176  0.86100  0.22410  Biso   1.000  C
  C109     1.0000 0.92176  0.63900  0.72410  Biso   1.000  C
  C110     1.0000 0.07824  0.63900  0.77590  Biso   1.000  C
  C111     1.0000 0.42176  0.13900  0.72410  Biso   1.000  C
  C112     1.0000 0.57824  0.13900  0.77590  Biso   1.000  C
  H105     1.0000 0.07040  0.45480  0.25890  Biso   1.000  H
  H106     1.0000 0.92960  0.45480  0.24110  Biso   1.000  H
  H107     1.0000 0.57040  0.95480  0.25890  Biso   1.000  H
  H108     1.0000 0.42960  0.95480  0.24110  Biso   1.000  H
  H109     1.0000 0.92960  0.54520  0.74110  Biso   1.000  H
  H110     1.0000 0.07040  0.54520  0.75890  Biso   1.000  H
  H111     1.0000 0.42960  0.04520  0.74110  Biso   1.000  H
  H112     1.0000 0.57040  0.04520  0.75890  Biso   1.000  H
  C113     1.0000 0.25454  0.16960  0.38600  Biso   1.000  C
  C114     1.0000 0.74546  0.16960  0.11400  Biso   1.000  C
  C115     1.0000 0.75454  0.66960  0.38600  Biso   1.000  C
  C116     1.0000 0.24546  0.66960  0.11400  Biso   1.000  C
  C117     1.0000 0.74546  0.83040  0.61400  Biso   1.000  C
  C118     1.0000 0.25454  0.83040  0.88600  Biso   1.000  C
  C119     1.0000 0.24546  0.33040  0.61400  Biso   1.000  C
  C120     1.0000 0.75454  0.33040  0.88600  Biso   1.000  C
  H113     1.0000 0.26390  0.07300  0.39020  Biso   1.000  H
  H114     1.0000 0.73610  0.07300  0.10980  Biso   1.000  H
  H115     1.0000 0.76390  0.57300  0.39020  Biso   1.000  H
  H116     1.0000 0.23610  0.57300  0.10980  Biso   1.000  H
  H117     1.0000 0.73610  0.92700  0.60980  Biso   1.000  H
  H118     1.0000 0.26390  0.92700  0.89020  Biso   1.000  H
  H119     1.0000 0.23610  0.42700  0.60980  Biso   1.000  H
  H120     1.0000 0.76390  0.42700  0.89020  Biso   1.000  H
  C121     1.0000 0.07700  0.84920  0.01550  Biso   1.000  C
  C122     1.0000 0.92300  0.84920  0.48450  Biso   1.000  C
  C123     1.0000 0.57700  0.34920  0.01550  Biso   1.000  C
  C124     1.0000 0.42300  0.34920  0.48450  Biso   1.000  C
  C125     1.0000 0.92300  0.15080  0.98450  Biso   1.000  C
  C126     1.0000 0.07700  0.15080  0.51550  Biso   1.000  C
  C127     1.0000 0.42300  0.65080  0.98450  Biso   1.000  C
  C128     1.0000 0.57700  0.65080  0.51550  Biso   1.000  C
  H121     1.0000 0.11430  0.82720  0.03160  Biso   1.000  H
  H122     1.0000 0.88570  0.82720  0.46840  Biso   1.000  H
  H123     1.0000 0.61430  0.32720  0.03160  Biso   1.000  H
  H124     1.0000 0.38570  0.32720  0.46840  Biso   1.000  H
  H125     1.0000 0.88570  0.17280  0.96840  Biso   1.000  H
  H126     1.0000 0.11430  0.17280  0.53160  Biso   1.000  H
  H127     1.0000 0.38570  0.67280  0.96840  Biso   1.000  H
  H128     1.0000 0.61430  0.67280  0.53160  Biso   1.000  H
  H129     1.0000 0.05020  0.80510  0.97010  Biso   1.000  H
  H130     1.0000 0.94980  0.80510  0.52990  Biso   1.000  H
  H131     1.0000 0.55020  0.30510  0.97010  Biso   1.000  H
  H132     1.0000 0.44980  0.30510  0.52990  Biso   1.000  H
  H133     1.0000 0.94980  0.19490  0.02990  Biso   1.000  H
  H134     1.0000 0.05020  0.19490  0.47010  Biso   1.000  H
  H135     1.0000 0.44980  0.69490  0.02990  Biso   1.000  H
  H136     1.0000 0.55020  0.69490  0.47010  Biso   1.000  H
  H137     1.0000 0.07170  0.81330  0.04920  Biso   1.000  H
  H138     1.0000 0.92830  0.81330  0.45080  Biso   1.000  H
  H139     1.0000 0.57170  0.31330  0.04920  Biso   1.000  H
  H140     1.0000 0.42830  0.31330  0.45080  Biso   1.000  H
  H141     1.0000 0.92830  0.18670  0.95080  Biso   1.000  H
  H142     1.0000 0.07170  0.18670  0.54920  Biso   1.000  H
  H143     1.0000 0.42830  0.68670  0.95080  Biso   1.000  H
  H144     1.0000 0.57170  0.68670  0.54920  Biso   1.000  H
  C129     1.0000 0.22730  0.45240  0.37550  Biso   1.000  C
  C130     1.0000 0.77270  0.45240  0.12450  Biso   1.000  C
  C131     1.0000 0.72730  0.95240  0.37550  Biso   1.000  C
  C132     1.0000 0.27270  0.95240  0.12450  Biso   1.000  C
  C133     1.0000 0.77270  0.54760  0.62450  Biso   1.000  C
  C134     1.0000 0.22730  0.54760  0.87550  Biso   1.000  C
  C135     1.0000 0.27270  0.04760  0.62450  Biso   1.000  C
  C136     1.0000 0.72730  0.04760  0.87550  Biso   1.000  C
  H145     1.0000 0.21710  0.54840  0.37080  Biso   1.000  H
  H146     1.0000 0.78290  0.54840  0.12920  Biso   1.000  H
  H147     1.0000 0.71710  0.04840  0.37080  Biso   1.000  H
  H148     1.0000 0.28290  0.04840  0.12920  Biso   1.000  H
  H149     1.0000 0.78290  0.45160  0.62920  Biso   1.000  H
  H150     1.0000 0.21710  0.45160  0.87080  Biso   1.000  H
  H151     1.0000 0.28290  0.95160  0.62920  Biso   1.000  H
  H152     1.0000 0.71710  0.95160  0.87080  Biso   1.000  H
  C137     1.0000 0.26190  0.38990  0.44160  Biso   1.000  C
  C138     1.0000 0.73810  0.38990  0.05840  Biso   1.000  C
  C139     1.0000 0.76190  0.88990  0.44160  Biso   1.000  C
  C140     1.0000 0.23810  0.88990  0.05840  Biso   1.000  C
  C141     1.0000 0.73810  0.61010  0.55840  Biso   1.000  C
  C142     1.0000 0.26190  0.61010  0.94160  Biso   1.000  C
  C143     1.0000 0.23810  0.11010  0.55840  Biso   1.000  C
  C144     1.0000 0.76190  0.11010  0.94160  Biso   1.000  C
  H153     1.0000 0.27580  0.44340  0.48240  Biso   1.000  H
  H154     1.0000 0.72420  0.44340  0.01760  Biso   1.000  H
  H155     1.0000 0.77580  0.94340  0.48240  Biso   1.000  H
  H156     1.0000 0.22420  0.94340  0.01760  Biso   1.000  H
  H157     1.0000 0.72420  0.55660  0.51760  Biso   1.000  H
  H158     1.0000 0.27580  0.55660  0.98240  Biso   1.000  H
  H159     1.0000 0.22420  0.05660  0.51760  Biso   1.000  H
  H160     1.0000 0.77580  0.05660  0.98240  Biso   1.000  H
  C145     1.0000 0.10530  0.92630  0.34730  Biso   1.000  C
  C146     1.0000 0.89470  0.92630  0.15270  Biso   1.000  C
  C147     1.0000 0.60530  0.42630  0.34730  Biso   1.000  C
  C148     1.0000 0.39470  0.42630  0.15270  Biso   1.000  C
  C149     1.0000 0.89470  0.07370  0.65270  Biso   1.000  C
  C150     1.0000 0.10530  0.07370  0.84730  Biso   1.000  C
  C151     1.0000 0.39470  0.57370  0.65270  Biso   1.000  C
  C152     1.0000 0.60530  0.57370  0.84730  Biso   1.000  C
  H161     1.0000 0.14460  0.90480  0.38050  Biso   1.000  H
  H162     1.0000 0.85540  0.90480  0.11950  Biso   1.000  H
  H163     1.0000 0.64460  0.40480  0.38050  Biso   1.000  H
  H164     1.0000 0.35540  0.40480  0.11950  Biso   1.000  H
  H165     1.0000 0.85540  0.09520  0.61950  Biso   1.000  H
  H166     1.0000 0.14460  0.09520  0.88050  Biso   1.000  H
  H167     1.0000 0.35540  0.59520  0.61950  Biso   1.000  H
  H168     1.0000 0.64460  0.59520  0.88050  Biso   1.000  H
  H169     1.0000 0.08850  0.86440  0.30670  Biso   1.000  H
  H170     1.0000 0.91150  0.86440  0.19330  Biso   1.000  H
  H171     1.0000 0.58850  0.36440  0.30670  Biso   1.000  H
  H172     1.0000 0.41150  0.36440  0.19330  Biso   1.000  H
  H173     1.0000 0.91150  0.13560  0.69330  Biso   1.000  H
  H174     1.0000 0.08850  0.13560  0.80670  Biso   1.000  H
  H175     1.0000 0.41150  0.63560  0.69330  Biso   1.000  H
  H176     1.0000 0.58850  0.63560  0.80670  Biso   1.000  H
  H177     1.0000 0.08760  0.91170  0.36980  Biso   1.000  H
  H178     1.0000 0.91240  0.91170  0.13020  Biso   1.000  H
  H179     1.0000 0.58760  0.41170  0.36980  Biso   1.000  H
  H180     1.0000 0.41240  0.41170  0.13020  Biso   1.000  H
  H181     1.0000 0.91240  0.08830  0.63020  Biso   1.000  H
  H182     1.0000 0.08760  0.08830  0.86980  Biso   1.000  H
  H183     1.0000 0.41240  0.58830  0.63020  Biso   1.000  H
  H184     1.0000 0.58760  0.58830  0.86980  Biso   1.000  H
  C153     1.0000 0.27540  0.25230  0.44640  Biso   1.000  C
  C154     1.0000 0.72460  0.25230  0.05360  Biso   1.000  C
  C155     1.0000 0.77540  0.75230  0.44640  Biso   1.000  C
  C156     1.0000 0.22460  0.75230  0.05360  Biso   1.000  C
  C157     1.0000 0.72460  0.74770  0.55360  Biso   1.000  C
  C158     1.0000 0.27540  0.74770  0.94640  Biso   1.000  C
  C159     1.0000 0.22460  0.24770  0.55360  Biso   1.000  C
  C160     1.0000 0.77540  0.24770  0.94640  Biso   1.000  C
  H185     1.0000 0.29930  0.21020  0.49110  Biso   1.000  H
  H186     1.0000 0.70070  0.21020  0.00890  Biso   1.000  H
  H187     1.0000 0.79930  0.71020  0.49110  Biso   1.000  H
  H188     1.0000 0.20070  0.71020  0.00890  Biso   1.000  H
  H189     1.0000 0.70070  0.78980  0.50890  Biso   1.000  H
  H190     1.0000 0.29930  0.78980  0.99110  Biso   1.000  H
  H191     1.0000 0.20070  0.28980  0.50890  Biso   1.000  H
  H192     1.0000 0.79930  0.28980  0.99110  Biso   1.000  H
  C161     1.0000 0.09800  0.08020  0.32380  Biso   1.000  C
  C162     1.0000 0.90200  0.08020  0.17620  Biso   1.000  C
  C163     1.0000 0.59800  0.58020  0.32380  Biso   1.000  C
  C164     1.0000 0.40200  0.58020  0.17620  Biso   1.000  C
  C165     1.0000 0.90200  0.91980  0.67620  Biso   1.000  C
  C166     1.0000 0.09800  0.91980  0.82380  Biso   1.000  C
  C167     1.0000 0.40200  0.41980  0.67620  Biso   1.000  C
  C168     1.0000 0.59800  0.41980  0.82380  Biso   1.000  C
  C169     1.0000 0.09060  0.18760  0.35720  Biso   1.000  C
  C170     1.0000 0.90940  0.18760  0.14280  Biso   1.000  C
  C171     1.0000 0.59060  0.68760  0.35720  Biso   1.000  C
  C172     1.0000 0.40940  0.68760  0.14280  Biso   1.000  C
  C173     1.0000 0.90940  0.81240  0.64280  Biso   1.000  C
  C174     1.0000 0.09060  0.81240  0.85720  Biso   1.000  C
  C175     1.0000 0.40940  0.31240  0.64280  Biso   1.000  C
  C176     1.0000 0.59060  0.31240  0.85720  Biso   1.000  C
  H193     1.0000 0.09230  0.16430  0.39680  Biso   1.000  H
  H194     1.0000 0.90770  0.16430  0.10320  Biso   1.000  H
  H195     1.0000 0.59230  0.66430  0.39680  Biso   1.000  H
  H196     1.0000 0.40770  0.66430  0.10320  Biso   1.000  H
  H197     1.0000 0.90770  0.83570  0.60320  Biso   1.000  H
  H198     1.0000 0.09230  0.83570  0.89680  Biso   1.000  H
  H199     1.0000 0.40770  0.33570  0.60320  Biso   1.000  H
  H200     1.0000 0.59230  0.33570  0.89680  Biso   1.000  H
  C177     1.0000 0.08070  0.32890  0.33460  Biso   1.000  C
  C178     1.0000 0.91930  0.32890  0.16540  Biso   1.000  C
  C179     1.0000 0.58070  0.82890  0.33460  Biso   1.000  C
  C180     1.0000 0.41930  0.82890  0.16540  Biso   1.000  C
  C181     1.0000 0.91930  0.67110  0.66540  Biso   1.000  C
  C182     1.0000 0.08070  0.67110  0.83460  Biso   1.000  C
  C183     1.0000 0.41930  0.17110  0.66540  Biso   1.000  C
  C184     1.0000 0.58070  0.17110  0.83460  Biso   1.000  C
  C185     1.0000 0.07280  0.44440  0.37360  Biso   1.000  C
  C186     1.0000 0.92720  0.44440  0.12640  Biso   1.000  C
  C187     1.0000 0.57280  0.94440  0.37360  Biso   1.000  C
  C188     1.0000 0.42720  0.94440  0.12640  Biso   1.000  C
  C189     1.0000 0.92720  0.55560  0.62640  Biso   1.000  C
  C190     1.0000 0.07280  0.55560  0.87360  Biso   1.000  C
  C191     1.0000 0.42720  0.05560  0.62640  Biso   1.000  C
  C192     1.0000 0.57280  0.05560  0.87360  Biso   1.000  C
  H201     1.0000 0.10110  0.43390  0.42390  Biso   1.000  H
  H202     1.0000 0.89890  0.43390  0.07610  Biso   1.000  H
  H203     1.0000 0.60110  0.93390  0.42390  Biso   1.000  H
  H204     1.0000 0.39890  0.93390  0.07610  Biso   1.000  H
  H205     1.0000 0.89890  0.56610  0.57610  Biso   1.000  H
  H206     1.0000 0.10110  0.56610  0.92390  Biso   1.000  H
  H207     1.0000 0.39890  0.06610  0.57610  Biso   1.000  H
  H208     1.0000 0.60110  0.06610  0.92390  Biso   1.000  H
  H209     1.0000 0.03630  0.43470  0.36250  Biso   1.000  H
  H210     1.0000 0.96370  0.43470  0.13750  Biso   1.000  H
  H211     1.0000 0.53630  0.93470  0.36250  Biso   1.000  H
  H212     1.0000 0.46370  0.93470  0.13750  Biso   1.000  H
  H213     1.0000 0.96370  0.56530  0.63750  Biso   1.000  H
  H214     1.0000 0.03630  0.56530  0.86250  Biso   1.000  H
  H215     1.0000 0.46370  0.06530  0.63750  Biso   1.000  H
  H216     1.0000 0.53630  0.06530  0.86250  Biso   1.000  H
  H217     1.0000 0.07600  0.53750  0.35890  Biso   1.000  H
  H218     1.0000 0.92400  0.53750  0.14110  Biso   1.000  H
  H219     1.0000 0.57600  0.03750  0.35890  Biso   1.000  H
  H220     1.0000 0.42400  0.03750  0.14110  Biso   1.000  H
  H221     1.0000 0.92400  0.46250  0.64110  Biso   1.000  H
  H222     1.0000 0.07600  0.46250  0.85890  Biso   1.000  H
  H223     1.0000 0.42400  0.96250  0.64110  Biso   1.000  H
  H224     1.0000 0.57600  0.96250  0.85890  Biso   1.000  H
  C193     1.0000 0.24130  0.34170  0.04380  Biso   1.000  C
  C194     1.0000 0.75870  0.34170  0.45620  Biso   1.000  C
  C195     1.0000 0.74130  0.84170  0.04380  Biso   1.000  C
  C196     1.0000 0.25870  0.84170  0.45620  Biso   1.000  C
  C197     1.0000 0.75870  0.65830  0.95620  Biso   1.000  C
  C198     1.0000 0.24130  0.65830  0.54380  Biso   1.000  C
  C199     1.0000 0.25870  0.15830  0.95620  Biso   1.000  C
  C200     1.0000 0.74130  0.15830  0.54380  Biso   1.000  C
  H225     1.0000 0.26650  0.26140  0.06160  Biso   1.000  H
  H226     1.0000 0.73350  0.26140  0.43840  Biso   1.000  H
  H227     1.0000 0.76650  0.76140  0.06160  Biso   1.000  H
  H228     1.0000 0.23350  0.76140  0.43840  Biso   1.000  H
  H229     1.0000 0.73350  0.73860  0.93840  Biso   1.000  H
  H230     1.0000 0.26650  0.73860  0.56160  Biso   1.000  H
  H231     1.0000 0.23350  0.23860  0.93840  Biso   1.000  H
  H232     1.0000 0.76650  0.23860  0.56160  Biso   1.000  H
  H233     1.0000 0.25690  0.41490  0.07960  Biso   1.000  H
  H234     1.0000 0.74310  0.41490  0.42040  Biso   1.000  H
  H235     1.0000 0.75690  0.91490  0.07960  Biso   1.000  H
  H236     1.0000 0.24310  0.91490  0.42040  Biso   1.000  H
  H237     1.0000 0.74310  0.58510  0.92040  Biso   1.000  H
  H238     1.0000 0.25690  0.58510  0.57960  Biso   1.000  H
  H239     1.0000 0.24310  0.08510  0.92040  Biso   1.000  H
  H240     1.0000 0.75690  0.08510  0.57960  Biso   1.000  H
  H241     1.0000 0.23590  0.37920  0.00220  Biso   1.000  H
  H242     1.0000 0.76410  0.37920  0.49780  Biso   1.000  H
  H243     1.0000 0.73590  0.87920  0.00220  Biso   1.000  H
  H244     1.0000 0.26410  0.87920  0.49780  Biso   1.000  H
  H245     1.0000 0.76410  0.62080  0.99780  Biso   1.000  H
  H246     1.0000 0.23590  0.62080  0.50220  Biso   1.000  H
  H247     1.0000 0.26410  0.12080  0.99780  Biso   1.000  H
  H248     1.0000 0.73590  0.12080  0.50220  Biso   1.000  H
  O49      1.0000 0.19580  0.30250  0.02830  Biso   1.000  O
  O50      1.0000 0.80420  0.30250  0.47170  Biso   1.000  O
  O51      1.0000 0.69580  0.80250  0.02830  Biso   1.000  O
  O52      1.0000 0.30420  0.80250  0.47170  Biso   1.000  O
  O53      1.0000 0.80420  0.69750  0.97170  Biso   1.000  O
  O54      1.0000 0.19580  0.69750  0.52830  Biso   1.000  O
  O55      1.0000 0.30420  0.19750  0.97170  Biso   1.000  O
  O56      1.0000 0.69580  0.19750  0.52830  Biso   1.000  O
  H249     1.0000 0.17430  0.37110  0.01310  Biso   1.000  H
  H250     1.0000 0.82570  0.37110  0.48690  Biso   1.000  H
  H251     1.0000 0.67430  0.87110  0.01310  Biso   1.000  H
  H252     1.0000 0.32570  0.87110  0.48690  Biso   1.000  H
  H253     1.0000 0.82570  0.62890  0.98690  Biso   1.000  H
  H254     1.0000 0.17430  0.62890  0.51310  Biso   1.000  H
  H255     1.0000 0.32570  0.12890  0.98690  Biso   1.000  H
  H256     1.0000 0.67430  0.12890  0.51310  Biso   1.000  H
