data_image0
_cell_length_a       14.376
_cell_length_b       7.133
_cell_length_c       17.5921
_cell_angle_alpha    90
_cell_angle_beta     112.429
_cell_angle_gamma    90

_symmetry_space_group_name_H-M    "P 1"
_symmetry_int_tables_number       1

loop_
  _symmetry_equiv_pos_as_xyz
  'x, y, z'

loop_
  _atom_site_label
  _atom_site_occupancy
  _atom_site_fract_x
  _atom_site_fract_y
  _atom_site_fract_z
  _atom_site_thermal_displace_type
  _atom_site_B_iso_or_equiv
  _atom_site_type_symbol
  Cu1      1.0000 0.13801  0.71507  0.31337  Biso   1.000  Cu
  Cu2      1.0000 0.13801  0.28493  0.81337  Biso   1.000  Cu
  Cl1      1.0000 0.04598  0.51404  0.20847  Biso   1.000  Cl
  Cl2      1.0000 0.04598  0.48596  0.70847  Biso   1.000  Cl
  N1       1.0000 0.03490  0.74260  0.36290  Biso   1.000  N
  N2       1.0000 0.03490  0.25740  0.86290  Biso   1.000  N
  C1       1.0000 0.05140  0.74840  0.44330  Biso   1.000  C
  C2       1.0000 0.05140  0.25160  0.94330  Biso   1.000  C
  C3       1.0000 0.97290  0.76170  0.47080  Biso   1.000  C
  C4       1.0000 0.97290  0.23830  0.97080  Biso   1.000  C
  H1       1.0000 0.98600  0.75860  0.52680  Biso   1.000  H
  H2       1.0000 0.98600  0.24140  0.02680  Biso   1.000  H
  C5       1.0000 0.87450  0.77980  0.41390  Biso   1.000  C
  C6       1.0000 0.87450  0.22020  0.91390  Biso   1.000  C
  C7       1.0000 0.85750  0.78350  0.33010  Biso   1.000  C
  C8       1.0000 0.85750  0.21650  0.83010  Biso   1.000  C
  H3       1.0000 0.79310  0.79980  0.29040  Biso   1.000  H
  H4       1.0000 0.79310  0.20020  0.79040  Biso   1.000  H
  C9       1.0000 0.93820  0.76260  0.30880  Biso   1.000  C
  C10      1.0000 0.93820  0.23740  0.80880  Biso   1.000  C
  H5       1.0000 0.92640  0.76180  0.25300  Biso   1.000  H
  H6       1.0000 0.92640  0.23820  0.75300  Biso   1.000  H
  O1       1.0000 0.80210  0.79400  0.44390  Biso   1.000  O
  O2       1.0000 0.80210  0.20600  0.94390  Biso   1.000  O
  C11      1.0000 0.69860  0.81010  0.38480  Biso   1.000  C
  C12      1.0000 0.69860  0.18990  0.88480  Biso   1.000  C
  H7       1.0000 0.68130  0.70280  0.34820  Biso   1.000  H
  H8       1.0000 0.68130  0.29720  0.84820  Biso   1.000  H
  H9       1.0000 0.69080  0.92270  0.35210  Biso   1.000  H
  H10      1.0000 0.69080  0.07730  0.85210  Biso   1.000  H
  C13      1.0000 0.63150  0.81800  0.43160  Biso   1.000  C
  C14      1.0000 0.63150  0.18200  0.93160  Biso   1.000  C
  H11      1.0000 0.63310  0.70010  0.45820  Biso   1.000  H
  H12      1.0000 0.63310  0.29990  0.95820  Biso   1.000  H
  H13      1.0000 0.56390  0.84470  0.39460  Biso   1.000  H
  H14      1.0000 0.56390  0.15530  0.89460  Biso   1.000  H
  H15      1.0000 0.65420  0.91550  0.47240  Biso   1.000  H
  H16      1.0000 0.65420  0.08450  0.97240  Biso   1.000  H
  N3       1.0000 0.14910  0.74190  0.50040  Biso   1.000  N
  N4       1.0000 0.14910  0.25810  0.00040  Biso   1.000  N
  C15      1.0000 0.23680  0.77570  0.48850  Biso   1.000  C
  C16      1.0000 0.23680  0.22430  0.98850  Biso   1.000  C
  N5       1.0000 0.31330  0.79040  0.56160  Biso   1.000  N
  N6       1.0000 0.31330  0.20960  0.06160  Biso   1.000  N
  H17      1.0000 0.38090  0.80830  0.56980  Biso   1.000  H
  H18      1.0000 0.38090  0.19170  0.06980  Biso   1.000  H
  C17      1.0000 0.28350  0.75560  0.63040  Biso   1.000  C
  C18      1.0000 0.28350  0.24440  0.13040  Biso   1.000  C
  H19      1.0000 0.30530  0.85620  0.67050  Biso   1.000  H
  H20      1.0000 0.30530  0.14380  0.17050  Biso   1.000  H
  H21      1.0000 0.31050  0.63780  0.65720  Biso   1.000  H
  H22      1.0000 0.31050  0.36220  0.15720  Biso   1.000  H
  C19      1.0000 0.17060  0.74870  0.58970  Biso   1.000  C
  C20      1.0000 0.17060  0.25130  0.08970  Biso   1.000  C
  H23      1.0000 0.14450  0.63810  0.60680  Biso   1.000  H
  H24      1.0000 0.14450  0.36190  0.10680  Biso   1.000  H
  H25      1.0000 0.14070  0.85910  0.60320  Biso   1.000  H
  H26      1.0000 0.14070  0.14090  0.10320  Biso   1.000  H
  N7       1.0000 0.24200  0.79290  0.41730  Biso   1.000  N
  N8       1.0000 0.24200  0.20710  0.91730  Biso   1.000  N
  C21      1.0000 0.34060  0.82450  0.41440  Biso   1.000  C
  C22      1.0000 0.34060  0.17550  0.91440  Biso   1.000  C
  H27      1.0000 0.38340  0.71580  0.43530  Biso   1.000  H
  H28      1.0000 0.38340  0.28420  0.93530  Biso   1.000  H
  H29      1.0000 0.37270  0.93240  0.44760  Biso   1.000  H
  H30      1.0000 0.37270  0.06760  0.94760  Biso   1.000  H
  C23      1.0000 0.32450  0.85810  0.32630  Biso   1.000  C
  C24      1.0000 0.32450  0.14190  0.82630  Biso   1.000  C
  H31      1.0000 0.29570  0.98140  0.30900  Biso   1.000  H
  H32      1.0000 0.29570  0.01860  0.80900  Biso   1.000  H
  H33      1.0000 0.38790  0.85050  0.31880  Biso   1.000  H
  H34      1.0000 0.38790  0.14950  0.81880  Biso   1.000  H
  N9       1.0000 0.25450  0.71040  0.27770  Biso   1.000  N
  N10      1.0000 0.25450  0.28960  0.77770  Biso   1.000  N
  H35      1.0000 0.28440  0.59880  0.28770  Biso   1.000  H
  H36      1.0000 0.28440  0.40120  0.78770  Biso   1.000  H
  H37      1.0000 0.23410  0.73440  0.22410  Biso   1.000  H
  H38      1.0000 0.23410  0.26560  0.72410  Biso   1.000  H
  Cu3      1.0000 0.96991  0.21656  0.26007  Biso   1.000  Cu
  Cu4      1.0000 0.96991  0.78344  0.76007  Biso   1.000  Cu
  Cl3      1.0000 0.06340  0.01454  0.21509  Biso   1.000  Cl
  Cl4      1.0000 0.06340  0.98546  0.71509  Biso   1.000  Cl
  N11      1.0000 0.07010  0.24480  0.37590  Biso   1.000  N
  N12      1.0000 0.07010  0.75520  0.87590  Biso   1.000  N
  C25      1.0000 0.05070  0.24820  0.44510  Biso   1.000  C
  C26      1.0000 0.05070  0.75180  0.94510  Biso   1.000  C
  C27      1.0000 0.12690  0.25050  0.52250  Biso   1.000  C
  C28      1.0000 0.12690  0.74950  0.02250  Biso   1.000  C
  H39      1.0000 0.11190  0.24560  0.56940  Biso   1.000  H
  H40      1.0000 0.11190  0.75440  0.06940  Biso   1.000  H
  C29      1.0000 0.22760  0.26030  0.52930  Biso   1.000  C
  C30      1.0000 0.22760  0.73970  0.02930  Biso   1.000  C
  C31      1.0000 0.24770  0.27240  0.45850  Biso   1.000  C
  C32      1.0000 0.24770  0.72760  0.95850  Biso   1.000  C
  H41      1.0000 0.31300  0.28900  0.46120  Biso   1.000  H
  H42      1.0000 0.31300  0.71100  0.96120  Biso   1.000  H
  C33      1.0000 0.16870  0.25910  0.38480  Biso   1.000  C
  C34      1.0000 0.16870  0.74090  0.88480  Biso   1.000  C
  H43      1.0000 0.18270  0.25980  0.33740  Biso   1.000  H
  H44      1.0000 0.18270  0.74020  0.83740  Biso   1.000  H
  O3       1.0000 0.29740  0.26090  0.60560  Biso   1.000  O
  O4       1.0000 0.29740  0.73910  0.10560  Biso   1.000  O
  C35      1.0000 0.40360  0.27480  0.61260  Biso   1.000  C
  C36      1.0000 0.40360  0.72520  0.11260  Biso   1.000  C
  H45      1.0000 0.41530  0.39560  0.59260  Biso   1.000  H
  H46      1.0000 0.41530  0.60440  0.09260  Biso   1.000  H
  H47      1.0000 0.41780  0.17750  0.58000  Biso   1.000  H
  H48      1.0000 0.41780  0.82250  0.08000  Biso   1.000  H
  C37      1.0000 0.47000  0.25230  0.70080  Biso   1.000  C
  C38      1.0000 0.47000  0.74770  0.20080  Biso   1.000  C
  H49      1.0000 0.45000  0.33940  0.73340  Biso   1.000  H
  H50      1.0000 0.45000  0.66060  0.23340  Biso   1.000  H
  H51      1.0000 0.53850  0.27630  0.70790  Biso   1.000  H
  H52      1.0000 0.53850  0.72370  0.20790  Biso   1.000  H
  H53      1.0000 0.46420  0.12670  0.71820  Biso   1.000  H
  H54      1.0000 0.46420  0.87330  0.21820  Biso   1.000  H
  N13      1.0000 0.95210  0.25160  0.43890  Biso   1.000  N
  N14      1.0000 0.95210  0.74840  0.93890  Biso   1.000  N
  C39      1.0000 0.86620  0.28800  0.36930  Biso   1.000  C
  C40      1.0000 0.86620  0.71200  0.86930  Biso   1.000  C
  N15      1.0000 0.78790  0.30800  0.39180  Biso   1.000  N
  N16      1.0000 0.78790  0.69200  0.89180  Biso   1.000  N
  H55      1.0000 0.72800  0.33420  0.35800  Biso   1.000  H
  H56      1.0000 0.72800  0.66580  0.85800  Biso   1.000  H
  C41      1.0000 0.81430  0.28120  0.47880  Biso   1.000  C
  C42      1.0000 0.81430  0.71880  0.97880  Biso   1.000  C
  H57      1.0000 0.78160  0.17070  0.48920  Biso   1.000  H
  H58      1.0000 0.78160  0.82930  0.98920  Biso   1.000  H
  H59      1.0000 0.79520  0.38930  0.50310  Biso   1.000  H
  H60      1.0000 0.79520  0.61070  0.00310  Biso   1.000  H
  C43      1.0000 0.92820  0.25690  0.51300  Biso   1.000  C
  C44      1.0000 0.92820  0.74310  0.01300  Biso   1.000  C
  H61      1.0000 0.96150  0.36120  0.54820  Biso   1.000  H
  H62      1.0000 0.96150  0.63880  0.04820  Biso   1.000  H
  H63      1.0000 0.94800  0.14120  0.54410  Biso   1.000  H
  H64      1.0000 0.94800  0.85880  0.04410  Biso   1.000  H
  N17      1.0000 0.86540  0.30280  0.29610  Biso   1.000  N
  N18      1.0000 0.86540  0.69720  0.79610  Biso   1.000  N
  C45      1.0000 0.76710  0.33850  0.22910  Biso   1.000  C
  C46      1.0000 0.76710  0.66150  0.72910  Biso   1.000  C
  H65      1.0000 0.73670  0.45100  0.24030  Biso   1.000  H
  H66      1.0000 0.73670  0.54900  0.74030  Biso   1.000  H
  H67      1.0000 0.72180  0.23400  0.22360  Biso   1.000  H
  H68      1.0000 0.72180  0.76600  0.72360  Biso   1.000  H
  C47      1.0000 0.78680  0.36230  0.15120  Biso   1.000  C
  C48      1.0000 0.78680  0.63770  0.65120  Biso   1.000  C
  H69      1.0000 0.72440  0.35450  0.10340  Biso   1.000  H
  H70      1.0000 0.72440  0.64550  0.60340  Biso   1.000  H
  H71      1.0000 0.81770  0.48310  0.15090  Biso   1.000  H
  H72      1.0000 0.81770  0.51690  0.65090  Biso   1.000  H
  N19      1.0000 0.85560  0.20870  0.15040  Biso   1.000  N
  N20      1.0000 0.85560  0.79130  0.65040  Biso   1.000  N
  H73      1.0000 0.87790  0.22580  0.11020  Biso   1.000  H
  H74      1.0000 0.87790  0.77420  0.61020  Biso   1.000  H
  H75      1.0000 0.82420  0.09870  0.14300  Biso   1.000  H
  H76      1.0000 0.82420  0.90130  0.64300  Biso   1.000  H
  O5       1.0000 0.52590  0.78270  0.61240  Biso   1.000  O
  O6       1.0000 0.52590  0.21730  0.11240  Biso   1.000  O
  H77      1.0000 0.53780  0.69390  0.58510  Biso   1.000  H
  H78      1.0000 0.53780  0.30610  0.08510  Biso   1.000  H
  H79      1.0000 0.56160  0.87840  0.61350  Biso   1.000  H
  H80      1.0000 0.56160  0.12160  0.11350  Biso   1.000  H
  O7       1.0000 0.55240  0.46510  0.53130  Biso   1.000  O
  O8       1.0000 0.55240  0.53490  0.03130  Biso   1.000  O
  H81      1.0000 0.53130  0.46560  0.47910  Biso   1.000  H
  H82      1.0000 0.53130  0.53440  0.97910  Biso   1.000  H
  H83      1.0000 0.60560  0.39890  0.54760  Biso   1.000  H
  H84      1.0000 0.60560  0.60110  0.04760  Biso   1.000  H
  O9       1.0000 0.58410  0.72320  0.79090  Biso   1.000  O
  O10      1.0000 0.58410  0.27680  0.29090  Biso   1.000  O
  H85      1.0000 0.53910  0.70730  0.81060  Biso   1.000  H
  H86      1.0000 0.53910  0.29270  0.31060  Biso   1.000  H
  H87      1.0000 0.56550  0.70990  0.73920  Biso   1.000  H
  H88      1.0000 0.56550  0.29010  0.23920  Biso   1.000  H
  Cl5      1.0000 0.40581  0.64900  0.84896  Biso   1.000  Cl
  Cl6      1.0000 0.40581  0.35100  0.34896  Biso   1.000  Cl
  Cl7      1.0000 0.68384  0.12020  0.62705  Biso   1.000  Cl
  Cl8      1.0000 0.68384  0.87980  0.12705  Biso   1.000  Cl
