data_image0
_cell_length_a       17.448
_cell_length_b       11.95
_cell_length_c       11.898
_cell_angle_alpha    90
_cell_angle_beta     128.532
_cell_angle_gamma    90

_symmetry_space_group_name_H-M    "P 1"
_symmetry_int_tables_number       1

loop_
  _symmetry_equiv_pos_as_xyz
  'x, y, z'

loop_
  _atom_site_label
  _atom_site_occupancy
  _atom_site_fract_x
  _atom_site_fract_y
  _atom_site_fract_z
  _atom_site_thermal_displace_type
  _atom_site_B_iso_or_equiv
  _atom_site_type_symbol
  Cu1      1.0000 0.21741  0.01137  0.78580  Biso   1.000  Cu
  Cu2      1.0000 0.78259  0.01137  0.71420  Biso   1.000  Cu
  Cu3      1.0000 0.71741  0.51137  0.78580  Biso   1.000  Cu
  Cu4      1.0000 0.28259  0.51137  0.71420  Biso   1.000  Cu
  Cu5      1.0000 0.78259  0.98863  0.21420  Biso   1.000  Cu
  Cu6      1.0000 0.21741  0.98863  0.28580  Biso   1.000  Cu
  Cu7      1.0000 0.28259  0.48863  0.21420  Biso   1.000  Cu
  Cu8      1.0000 0.71741  0.48863  0.28580  Biso   1.000  Cu
  C1       1.0000 0.10637  0.81290  0.65450  Biso   1.000  C
  C2       1.0000 0.89363  0.81290  0.84550  Biso   1.000  C
  C3       1.0000 0.60637  0.31290  0.65450  Biso   1.000  C
  C4       1.0000 0.39363  0.31290  0.84550  Biso   1.000  C
  C5       1.0000 0.89363  0.18710  0.34550  Biso   1.000  C
  C6       1.0000 0.10637  0.18710  0.15450  Biso   1.000  C
  C7       1.0000 0.39363  0.68710  0.34550  Biso   1.000  C
  C8       1.0000 0.60637  0.68710  0.15450  Biso   1.000  C
  C9       1.0000 0.14043  0.84830  0.56930  Biso   1.000  C
  C10      1.0000 0.85957  0.84830  0.93070  Biso   1.000  C
  C11      1.0000 0.64043  0.34830  0.56930  Biso   1.000  C
  C12      1.0000 0.35957  0.34830  0.93070  Biso   1.000  C
  C13      1.0000 0.85957  0.15170  0.43070  Biso   1.000  C
  C14      1.0000 0.14043  0.15170  0.06930  Biso   1.000  C
  C15      1.0000 0.35957  0.65170  0.43070  Biso   1.000  C
  C16      1.0000 0.64043  0.65170  0.06930  Biso   1.000  C
  C17      1.0000 0.11960  0.78560  0.45540  Biso   1.000  C
  C18      1.0000 0.88040  0.78560  0.04460  Biso   1.000  C
  C19      1.0000 0.61960  0.28560  0.45540  Biso   1.000  C
  C20      1.0000 0.38040  0.28560  0.04460  Biso   1.000  C
  C21      1.0000 0.88040  0.21440  0.54460  Biso   1.000  C
  C22      1.0000 0.11960  0.21440  0.95540  Biso   1.000  C
  C23      1.0000 0.38040  0.71440  0.54460  Biso   1.000  C
  C24      1.0000 0.61960  0.71440  0.95540  Biso   1.000  C
  H1       1.0000 0.08430  0.71720  0.42640  Biso   1.000  H
  H2       1.0000 0.91570  0.71720  0.07360  Biso   1.000  H
  H3       1.0000 0.58430  0.21720  0.42640  Biso   1.000  H
  H4       1.0000 0.41570  0.21720  0.07360  Biso   1.000  H
  H5       1.0000 0.91570  0.28280  0.57360  Biso   1.000  H
  H6       1.0000 0.08430  0.28280  0.92640  Biso   1.000  H
  H7       1.0000 0.41570  0.78280  0.57360  Biso   1.000  H
  H8       1.0000 0.58430  0.78280  0.92640  Biso   1.000  H
  C25      1.0000 0.15418  0.83010  0.38660  Biso   1.000  C
  C26      1.0000 0.84582  0.83010  0.11340  Biso   1.000  C
  C27      1.0000 0.65418  0.33010  0.38660  Biso   1.000  C
  C28      1.0000 0.34582  0.33010  0.11340  Biso   1.000  C
  C29      1.0000 0.84582  0.16990  0.61340  Biso   1.000  C
  C30      1.0000 0.15418  0.16990  0.88660  Biso   1.000  C
  C31      1.0000 0.34582  0.66990  0.61340  Biso   1.000  C
  C32      1.0000 0.65418  0.66990  0.88660  Biso   1.000  C
  C33      1.0000 0.13734  0.77110  0.25870  Biso   1.000  C
  C34      1.0000 0.86266  0.77110  0.24130  Biso   1.000  C
  C35      1.0000 0.63734  0.27110  0.25870  Biso   1.000  C
  C36      1.0000 0.36266  0.27110  0.24130  Biso   1.000  C
  C37      1.0000 0.86266  0.22890  0.74130  Biso   1.000  C
  C38      1.0000 0.13734  0.22890  0.75870  Biso   1.000  C
  C39      1.0000 0.36266  0.72890  0.74130  Biso   1.000  C
  C40      1.0000 0.63734  0.72890  0.75870  Biso   1.000  C
  C41      1.0000 0.22540  0.98500  0.54280  Biso   1.000  C
  C42      1.0000 0.77460  0.98500  0.95720  Biso   1.000  C
  C43      1.0000 0.72540  0.48500  0.54280  Biso   1.000  C
  C44      1.0000 0.27460  0.48500  0.95720  Biso   1.000  C
  C45      1.0000 0.77460  0.01500  0.45720  Biso   1.000  C
  C46      1.0000 0.22540  0.01500  0.04280  Biso   1.000  C
  C47      1.0000 0.27460  0.51500  0.45720  Biso   1.000  C
  C48      1.0000 0.72540  0.51500  0.04280  Biso   1.000  C
  N1       1.0000 0.87660  0.73557  0.55800  Biso   1.000  N
  N2       1.0000 0.12340  0.73557  0.94200  Biso   1.000  N
  N3       1.0000 0.37660  0.23557  0.55800  Biso   1.000  N
  N4       1.0000 0.62340  0.23557  0.94200  Biso   1.000  N
  N5       1.0000 0.12340  0.26443  0.44200  Biso   1.000  N
  N6       1.0000 0.87660  0.26443  0.05800  Biso   1.000  N
  N7       1.0000 0.62340  0.76443  0.44200  Biso   1.000  N
  N8       1.0000 0.37660  0.76443  0.05800  Biso   1.000  N
  N9       1.0000 0.36619  0.00751  0.90760  Biso   1.000  N
  N10      1.0000 0.63381  0.00751  0.59240  Biso   1.000  N
  N11      1.0000 0.86619  0.50751  0.90760  Biso   1.000  N
  N12      1.0000 0.13381  0.50751  0.59240  Biso   1.000  N
  N13      1.0000 0.63381  0.99249  0.09240  Biso   1.000  N
  N14      1.0000 0.36619  0.99249  0.40760  Biso   1.000  N
  N15      1.0000 0.13381  0.49249  0.09240  Biso   1.000  N
  N16      1.0000 0.86619  0.49249  0.40760  Biso   1.000  N
  N17      1.0000 0.19152  0.94350  0.61330  Biso   1.000  N
  N18      1.0000 0.80848  0.94350  0.88670  Biso   1.000  N
  N19      1.0000 0.69152  0.44350  0.61330  Biso   1.000  N
  N20      1.0000 0.30848  0.44350  0.88670  Biso   1.000  N
  N21      1.0000 0.80848  0.05650  0.38670  Biso   1.000  N
  N22      1.0000 0.19152  0.05650  0.11330  Biso   1.000  N
  N23      1.0000 0.30848  0.55650  0.38670  Biso   1.000  N
  N24      1.0000 0.69152  0.55650  0.11330  Biso   1.000  N
  N25      1.0000 0.20319  0.92606  0.42590  Biso   1.000  N
  N26      1.0000 0.79681  0.92606  0.07410  Biso   1.000  N
  N27      1.0000 0.70319  0.42606  0.42590  Biso   1.000  N
  N28      1.0000 0.29681  0.42606  0.07410  Biso   1.000  N
  N29      1.0000 0.79681  0.07394  0.57410  Biso   1.000  N
  N30      1.0000 0.20319  0.07394  0.92590  Biso   1.000  N
  N31      1.0000 0.29681  0.57394  0.57410  Biso   1.000  N
  N32      1.0000 0.70319  0.57394  0.92590  Biso   1.000  N
  O1       1.0000 0.00000  0.49790  0.75000  Biso   1.000  O
  O2       1.0000 0.50000  0.99790  0.75000  Biso   1.000  O
  O3       1.0000 0.00000  0.50210  0.25000  Biso   1.000  O
  O4       1.0000 0.50000  0.00210  0.25000  Biso   1.000  O
  O5       1.0000 0.06154  0.72348  0.62420  Biso   1.000  O
  O6       1.0000 0.93846  0.72348  0.87580  Biso   1.000  O
  O7       1.0000 0.56154  0.22348  0.62420  Biso   1.000  O
  O8       1.0000 0.43846  0.22348  0.87580  Biso   1.000  O
  O9       1.0000 0.93846  0.27652  0.37580  Biso   1.000  O
  O10      1.0000 0.06154  0.27652  0.12420  Biso   1.000  O
  O11      1.0000 0.43846  0.77652  0.37580  Biso   1.000  O
  O12      1.0000 0.56154  0.77652  0.12420  Biso   1.000  O
  O13      1.0000 0.12748  0.88089  0.75250  Biso   1.000  O
  O14      1.0000 0.87252  0.88089  0.74750  Biso   1.000  O
  O15      1.0000 0.62748  0.38089  0.75250  Biso   1.000  O
  O16      1.0000 0.37252  0.38089  0.74750  Biso   1.000  O
  O17      1.0000 0.87252  0.11911  0.24750  Biso   1.000  O
  O18      1.0000 0.12748  0.11911  0.25250  Biso   1.000  O
  O19      1.0000 0.37252  0.61911  0.24750  Biso   1.000  O
  O20      1.0000 0.62748  0.61911  0.25250  Biso   1.000  O
  O21      1.0000 0.27330  0.07277  0.58340  Biso   1.000  O
  O22      1.0000 0.72670  0.07277  0.91660  Biso   1.000  O
  O23      1.0000 0.77330  0.57277  0.58340  Biso   1.000  O
  O24      1.0000 0.22670  0.57277  0.91660  Biso   1.000  O
  O25      1.0000 0.72670  0.92723  0.41660  Biso   1.000  O
  O26      1.0000 0.27330  0.92723  0.08340  Biso   1.000  O
  O27      1.0000 0.22670  0.42723  0.41660  Biso   1.000  O
  O28      1.0000 0.77330  0.42723  0.08340  Biso   1.000  O
  O29      1.0000 0.15954  0.82849  0.19320  Biso   1.000  O
  O30      1.0000 0.84046  0.82849  0.30680  Biso   1.000  O
  O31      1.0000 0.65954  0.32849  0.19320  Biso   1.000  O
  O32      1.0000 0.34046  0.32849  0.30680  Biso   1.000  O
  O33      1.0000 0.84046  0.17151  0.80680  Biso   1.000  O
  O34      1.0000 0.15954  0.17151  0.69320  Biso   1.000  O
  O35      1.0000 0.34046  0.67151  0.80680  Biso   1.000  O
  O36      1.0000 0.65954  0.67151  0.69320  Biso   1.000  O
  O37      1.0000 0.10696  0.67319  0.23290  Biso   1.000  O
  O38      1.0000 0.89304  0.67319  0.26710  Biso   1.000  O
  O39      1.0000 0.60696  0.17319  0.23290  Biso   1.000  O
  O40      1.0000 0.39304  0.17319  0.26710  Biso   1.000  O
  O41      1.0000 0.89304  0.32681  0.76710  Biso   1.000  O
  O42      1.0000 0.10696  0.32681  0.73290  Biso   1.000  O
  O43      1.0000 0.39304  0.82681  0.76710  Biso   1.000  O
  O44      1.0000 0.60696  0.82681  0.73290  Biso   1.000  O
