data_image0
_cell_length_a       13.049
_cell_length_b       13.334
_cell_length_c       21.562
_cell_angle_alpha    91.46
_cell_angle_beta     101.6
_cell_angle_gamma    99.41

_symmetry_space_group_name_H-M    "P 1"
_symmetry_int_tables_number       1

loop_
  _symmetry_equiv_pos_as_xyz
  'x, y, z'

loop_
  _atom_site_label
  _atom_site_occupancy
  _atom_site_fract_x
  _atom_site_fract_y
  _atom_site_fract_z
  _atom_site_thermal_displace_type
  _atom_site_B_iso_or_equiv
  _atom_site_type_symbol
  C1       1.0000 0.26440  0.30140  0.58931  Biso   1.000  C
  C2       1.0000 0.73560  0.69860  0.41069  Biso   1.000  C
  H1       1.0000 0.33600  0.32830  0.59370  Biso   1.000  H
  H2       1.0000 0.66400  0.67170  0.40630  Biso   1.000  H
  C3       1.0000 0.10760  0.22170  0.55211  Biso   1.000  C
  C4       1.0000 0.89240  0.77830  0.44789  Biso   1.000  C
  H3       1.0000 0.04940  0.18240  0.52520  Biso   1.000  H
  H4       1.0000 0.95060  0.81760  0.47480  Biso   1.000  H
  C5       1.0000 0.10730  0.26380  0.61023  Biso   1.000  C
  C6       1.0000 0.89270  0.73620  0.38977  Biso   1.000  C
  H5       1.0000 0.05010  0.25900  0.63030  Biso   1.000  H
  H6       1.0000 0.94990  0.74100  0.36970  Biso   1.000  H
  C7       1.0000 0.24740  0.37390  0.69431  Biso   1.000  C
  C8       1.0000 0.75260  0.62610  0.30569  Biso   1.000  C
  H7       1.0000 0.20510  0.42670  0.69660  Biso   1.000  H
  H8       1.0000 0.79490  0.57330  0.30340  Biso   1.000  H
  H9       1.0000 0.32010  0.40690  0.69640  Biso   1.000  H
  H10      1.0000 0.67990  0.59310  0.30360  Biso   1.000  H
  C9       1.0000 0.24370  0.31020  0.74974  Biso   1.000  C
  C10      1.0000 0.75630  0.68980  0.25026  Biso   1.000  C
  H11      1.0000 0.26550  0.35430  0.78820  Biso   1.000  H
  H12      1.0000 0.73450  0.64570  0.21180  Biso   1.000  H
  H13      1.0000 0.17080  0.27760  0.74750  Biso   1.000  H
  H14      1.0000 0.82920  0.72240  0.25250  Biso   1.000  H
  C11      1.0000 0.31130  0.23090  0.75413  Biso   1.000  C
  C12      1.0000 0.68870  0.76910  0.24587  Biso   1.000  C
  H15      1.0000 0.38500  0.26400  0.76200  Biso   1.000  H
  H16      1.0000 0.61500  0.73600  0.23800  Biso   1.000  H
  H17      1.0000 0.29600  0.19280  0.71350  Biso   1.000  H
  H18      1.0000 0.70400  0.80720  0.28650  Biso   1.000  H
  C13      1.0000 0.29810  0.15670  0.80487  Biso   1.000  C
  C14      1.0000 0.70190  0.84330  0.19513  Biso   1.000  C
  H19      1.0000 0.22550  0.12040  0.79590  Biso   1.000  H
  H20      1.0000 0.77450  0.87960  0.20410  Biso   1.000  H
  H21      1.0000 0.34440  0.10720  0.80330  Biso   1.000  H
  H22      1.0000 0.65560  0.89280  0.19670  Biso   1.000  H
  C15      1.0000 0.25420  0.20590  0.90810  Biso   1.000  C
  C16      1.0000 0.74580  0.79410  0.09190  Biso   1.000  C
  H23      1.0000 0.18360  0.17380  0.89760  Biso   1.000  H
  H24      1.0000 0.81640  0.82620  0.10240  Biso   1.000  H
  C17      1.0000 0.40160  0.28990  0.95856  Biso   1.000  C
  C18      1.0000 0.59840  0.71010  0.04144  Biso   1.000  C
  H25      1.0000 0.45310  0.32760  0.99050  Biso   1.000  H
  H26      1.0000 0.54690  0.67240  0.00950  Biso   1.000  H
  C19      1.0000 0.41780  0.26030  0.90153  Biso   1.000  C
  C20      1.0000 0.58220  0.73970  0.09847  Biso   1.000  C
  H27      1.0000 0.48070  0.27380  0.88690  Biso   1.000  H
  H28      1.0000 0.51930  0.72620  0.11310  Biso   1.000  H
  C21      1.0000 0.28030  0.10310  0.34210  Biso   1.000  C
  C22      1.0000 0.71970  0.89690  0.65790  Biso   1.000  C
  H29      1.0000 0.24260  0.04290  0.35270  Biso   1.000  H
  H30      1.0000 0.75740  0.95710  0.64730  Biso   1.000  H
  C23      1.0000 0.35470  0.25770  0.34352  Biso   1.000  C
  C24      1.0000 0.64530  0.74230  0.65648  Biso   1.000  C
  H31      1.0000 0.37880  0.32620  0.35590  Biso   1.000  H
  H32      1.0000 0.62120  0.67380  0.64410  Biso   1.000  H
  C25      1.0000 0.37120  0.21040  0.29171  Biso   1.000  C
  C26      1.0000 0.62880  0.78960  0.70829  Biso   1.000  C
  H33      1.0000 0.40790  0.23950  0.26200  Biso   1.000  H
  H34      1.0000 0.59210  0.76050  0.73800  Biso   1.000  H
  C27      1.0000 0.32410  0.02850  0.24481  Biso   1.000  C
  C28      1.0000 0.67590  0.97150  0.75519  Biso   1.000  C
  H35      1.0000 0.30730  0.05220  0.20240  Biso   1.000  H
  H36      1.0000 0.69270  0.94780  0.79760  Biso   1.000  H
  H37      1.0000 0.26850  0.97230  0.24840  Biso   1.000  H
  H38      1.0000 0.73150  0.02770  0.75160  Biso   1.000  H
  C29      1.0000 0.42740  0.99000  0.25301  Biso   1.000  C
  C30      1.0000 0.57260  0.01000  0.74699  Biso   1.000  C
  H39      1.0000 0.48360  0.04740  0.25290  Biso   1.000  H
  H40      1.0000 0.51640  0.95260  0.74710  Biso   1.000  H
  H41      1.0000 0.42450  0.94440  0.21670  Biso   1.000  H
  H42      1.0000 0.57550  0.05560  0.78330  Biso   1.000  H
  C31      1.0000 0.45690  0.93370  0.31342  Biso   1.000  C
  C32      1.0000 0.54310  0.06630  0.68658  Biso   1.000  C
  H43      1.0000 0.39210  0.89710  0.32320  Biso   1.000  H
  H44      1.0000 0.60790  0.10290  0.67680  Biso   1.000  H
  H45      1.0000 0.49920  0.88360  0.30480  Biso   1.000  H
  H46      1.0000 0.50080  0.11640  0.69520  Biso   1.000  H
  C33      1.0000 0.51700  0.99930  0.37072  Biso   1.000  C
  C34      1.0000 0.48300  0.00070  0.62928  Biso   1.000  C
  H47      1.0000 0.58220  0.03640  0.36170  Biso   1.000  H
  H48      1.0000 0.41780  0.96360  0.63830  Biso   1.000  H
  H49      1.0000 0.47470  0.04840  0.38090  Biso   1.000  H
  H50      1.0000 0.52530  0.95160  0.61910  Biso   1.000  H
  C35      1.0000 0.63550  0.91010  0.44794  Biso   1.000  C
  C36      1.0000 0.36450  0.08990  0.55206  Biso   1.000  C
  H51      1.0000 0.69670  0.93140  0.43260  Biso   1.000  H
  H52      1.0000 0.30330  0.06860  0.56740  Biso   1.000  H
  C37      1.0000 0.52760  0.83620  0.50127  Biso   1.000  C
  C38      1.0000 0.47240  0.16380  0.49873  Biso   1.000  C
  H53      1.0000 0.49970  0.79640  0.53070  Biso   1.000  H
  H54      1.0000 0.50030  0.20360  0.46930  Biso   1.000  H
  C39      1.0000 0.47250  0.89000  0.45861  Biso   1.000  C
  C40      1.0000 0.52750  0.11000  0.54139  Biso   1.000  C
  H55      1.0000 0.40070  0.89390  0.45310  Biso   1.000  H
  H56      1.0000 0.59930  0.10610  0.54690  Biso   1.000  H
  C41      1.0000 0.13820  0.38660  0.42551  Biso   1.000  C
  C42      1.0000 0.86180  0.61340  0.57449  Biso   1.000  C
  H57      1.0000 0.19490  0.43200  0.44950  Biso   1.000  H
  H58      1.0000 0.80510  0.56800  0.55050  Biso   1.000  H
  C43      1.0000 0.04220  0.25170  0.37651  Biso   1.000  C
  C44      1.0000 0.95780  0.74830  0.62349  Biso   1.000  C
  H59      1.0000 0.02020  0.18480  0.35990  Biso   1.000  H
  H60      1.0000 0.97980  0.81520  0.64010  Biso   1.000  H
  C45      1.0000 0.98190  0.32530  0.36868  Biso   1.000  C
  C46      1.0000 0.01810  0.67470  0.63132  Biso   1.000  C
  H61      1.0000 0.91200  0.31890  0.34650  Biso   1.000  H
  H62      1.0000 0.08800  0.68110  0.65350  Biso   1.000  H
  C47      1.0000 0.01140  0.50920  0.41187  Biso   1.000  C
  C48      1.0000 0.98860  0.49080  0.58813  Biso   1.000  C
  H63      1.0000 0.95860  0.52190  0.37570  Biso   1.000  H
  H64      1.0000 0.04140  0.47810  0.62430  Biso   1.000  H
  H65      1.0000 0.07210  0.56360  0.41660  Biso   1.000  H
  H66      1.0000 0.92790  0.43640  0.58340  Biso   1.000  H
  C49      1.0000 0.96560  0.50960  0.47051  Biso   1.000  C
  C50      1.0000 0.03440  0.49040  0.52949  Biso   1.000  C
  H67      1.0000 0.94480  0.57530  0.47590  Biso   1.000  H
  H68      1.0000 0.05520  0.42470  0.52410  Biso   1.000  H
  H69      1.0000 0.90160  0.45860  0.46350  Biso   1.000  H
  H70      1.0000 0.09840  0.54140  0.53650  Biso   1.000  H
  C51      1.0000 0.20390  0.37940  0.15804  Biso   1.000  C
  C52      1.0000 0.79610  0.62060  0.84196  Biso   1.000  C
  H71      1.0000 0.24090  0.44150  0.14950  Biso   1.000  H
  H72      1.0000 0.75910  0.55850  0.85050  Biso   1.000  H
  C53      1.0000 0.13260  0.22220  0.15222  Biso   1.000  C
  C54      1.0000 0.86740  0.77780  0.84778  Biso   1.000  C
  H73      1.0000 0.11050  0.15410  0.13820  Biso   1.000  H
  H74      1.0000 0.88950  0.84590  0.86180  Biso   1.000  H
  C55      1.0000 0.11480  0.26510  0.20546  Biso   1.000  C
  C56      1.0000 0.88520  0.73490  0.79454  Biso   1.000  C
  H75      1.0000 0.07860  0.23270  0.23450  Biso   1.000  H
  H76      1.0000 0.92140  0.76730  0.76550  Biso   1.000  H
  C57      1.0000 0.15670  0.44290  0.25733  Biso   1.000  C
  C58      1.0000 0.84330  0.55710  0.74267  Biso   1.000  C
  H77      1.0000 0.21650  0.49750  0.25920  Biso   1.000  H
  H78      1.0000 0.78350  0.50250  0.74080  Biso   1.000  H
  H79      1.0000 0.16520  0.41310  0.29830  Biso   1.000  H
  H80      1.0000 0.83480  0.58690  0.70170  Biso   1.000  H
  C59      1.0000 0.05720  0.48680  0.24611  Biso   1.000  C
  C60      1.0000 0.94280  0.51320  0.75389  Biso   1.000  C
  H81      1.0000 0.05770  0.52910  0.28350  Biso   1.000  H
  H82      1.0000 0.94230  0.47090  0.71650  Biso   1.000  H
  H83      1.0000 0.99770  0.43120  0.24200  Biso   1.000  H
  H84      1.0000 0.00230  0.56880  0.75800  Biso   1.000  H
  C61      1.0000 0.03640  0.55330  0.18560  Biso   1.000  C
  C62      1.0000 0.96360  0.44670  0.81440  Biso   1.000  C
  H85      1.0000 0.99980  0.60750  0.19520  Biso   1.000  H
  H86      1.0000 0.00020  0.39250  0.80480  Biso   1.000  H
  H87      1.0000 0.10420  0.58440  0.17680  Biso   1.000  H
  H88      1.0000 0.89580  0.41560  0.82320  Biso   1.000  H
  C63      1.0000 0.97590  0.49550  0.13110  Biso   1.000  C
  C64      1.0000 0.02410  0.50450  0.86890  Biso   1.000  C
  H89      1.0000 0.90880  0.46160  0.13950  Biso   1.000  H
  H90      1.0000 0.09120  0.53840  0.86050  Biso   1.000  H
  H91      1.0000 0.01390  0.44400  0.11890  Biso   1.000  H
  H92      1.0000 0.98610  0.55600  0.88110  Biso   1.000  H
  C65      1.0000 0.86400  0.59750  0.05450  Biso   1.000  C
  C66      1.0000 0.13600  0.40250  0.94550  Biso   1.000  C
  H93      1.0000 0.80160  0.57890  0.06910  Biso   1.000  H
  H94      1.0000 0.19840  0.42110  0.93090  Biso   1.000  H
  C67      1.0000 0.97870  0.66670  0.00270  Biso   1.000  C
  C68      1.0000 0.02130  0.33330  0.99730  Biso   1.000  C
  H95      1.0000 0.00850  0.70400  0.97300  Biso   1.000  H
  H96      1.0000 0.99150  0.29600  0.02700  Biso   1.000  H
  C69      1.0000 0.03070  0.61470  0.04700  Biso   1.000  C
  C70      1.0000 0.96930  0.38530  0.95300  Biso   1.000  C
  H97      1.0000 0.10270  0.61110  0.05500  Biso   1.000  H
  H98      1.0000 0.89730  0.38890  0.94500  Biso   1.000  H
  C71      1.0000 0.34670  0.09950  0.07096  Biso   1.000  C
  C72      1.0000 0.65330  0.90050  0.92904  Biso   1.000  C
  H99      1.0000 0.29190  0.05610  0.04400  Biso   1.000  H
  H100     1.0000 0.70810  0.94390  0.95600  Biso   1.000  H
  C73      1.0000 0.43790  0.23110  0.12638  Biso   1.000  C
  C74      1.0000 0.56210  0.76890  0.87362  Biso   1.000  C
  H101     1.0000 0.45800  0.29650  0.14550  Biso   1.000  H
  H102     1.0000 0.54200  0.70350  0.85450  Biso   1.000  H
  C75      1.0000 0.49710  0.15660  0.13407  Biso   1.000  C
  C76      1.0000 0.50290  0.84340  0.86593  Biso   1.000  C
  H103     1.0000 0.56530  0.16140  0.15860  Biso   1.000  H
  H104     1.0000 0.43470  0.83860  0.84140  Biso   1.000  H
  C77      1.0000 0.47320  0.97700  0.08479  Biso   1.000  C
  C78      1.0000 0.52680  0.02300  0.91521  Biso   1.000  C
  H105     1.0000 0.41210  0.92280  0.07370  Biso   1.000  H
  H106     1.0000 0.58790  0.07720  0.92630  Biso   1.000  H
  H107     1.0000 0.51960  0.95900  0.12240  Biso   1.000  H
  H108     1.0000 0.48040  0.04100  0.87760  Biso   1.000  H
  C79      1.0000 0.53180  0.98630  0.03068  Biso   1.000  C
  C80      1.0000 0.46820  0.01370  0.96932  Biso   1.000  C
  H109     1.0000 0.59510  0.03770  0.04330  Biso   1.000  H
  H110     1.0000 0.40490  0.96230  0.95670  Biso   1.000  H
  H111     1.0000 0.55460  0.92200  0.02360  Biso   1.000  H
  H112     1.0000 0.44540  0.07800  0.97640  Biso   1.000  H
  C81      1.0000 0.74470  0.28150  0.71029  Biso   1.000  C
  C82      1.0000 0.25530  0.71850  0.28971  Biso   1.000  C
  C83      1.0000 0.75000  0.28510  0.64101  Biso   1.000  C
  C84      1.0000 0.25000  0.71490  0.35899  Biso   1.000  C
  C85      1.0000 0.80160  0.21760  0.61295  Biso   1.000  C
  C86      1.0000 0.19840  0.78240  0.38705  Biso   1.000  C
  H113     1.0000 0.83850  0.17400  0.63800  Biso   1.000  H
  H114     1.0000 0.16150  0.82600  0.36200  Biso   1.000  H
  C87      1.0000 0.79800  0.21520  0.54864  Biso   1.000  C
  C88      1.0000 0.20200  0.78480  0.45136  Biso   1.000  C
  H115     1.0000 0.83190  0.16910  0.53090  Biso   1.000  H
  H116     1.0000 0.16810  0.83090  0.46910  Biso   1.000  H
  C89      1.0000 0.74530  0.27940  0.50997  Biso   1.000  C
  C90      1.0000 0.25470  0.72060  0.49003  Biso   1.000  C
  C91      1.0000 0.73410  0.27200  0.43838  Biso   1.000  C
  C92      1.0000 0.26590  0.72800  0.56162  Biso   1.000  C
  C93      1.0000 0.69800  0.34940  0.53835  Biso   1.000  C
  C94      1.0000 0.30200  0.65060  0.46165  Biso   1.000  C
  H117     1.0000 0.66480  0.39580  0.51370  Biso   1.000  H
  H118     1.0000 0.33520  0.60420  0.48630  Biso   1.000  H
  C95      1.0000 0.70000  0.35080  0.60240  Biso   1.000  C
  C96      1.0000 0.30000  0.64920  0.39760  Biso   1.000  C
  H119     1.0000 0.66660  0.39740  0.62010  Biso   1.000  H
  H120     1.0000 0.33340  0.60260  0.37990  Biso   1.000  H
  C97      1.0000 0.09710  0.93800  0.80649  Biso   1.000  C
  C98      1.0000 0.90290  0.06200  0.19351  Biso   1.000  C
  C99      1.0000 0.14700  0.87560  0.85757  Biso   1.000  C
  C100     1.0000 0.85300  0.12440  0.14243  Biso   1.000  C
  C101     1.0000 0.18860  0.79080  0.84202  Biso   1.000  C
  C102     1.0000 0.81140  0.20920  0.15798  Biso   1.000  C
  H121     1.0000 0.18560  0.77290  0.79960  Biso   1.000  H
  H122     1.0000 0.81440  0.22710  0.20040  Biso   1.000  H
  C103     1.0000 0.23410  0.73300  0.88826  Biso   1.000  C
  C104     1.0000 0.76590  0.26700  0.11174  Biso   1.000  C
  H123     1.0000 0.26110  0.67660  0.87660  Biso   1.000  H
  H124     1.0000 0.73890  0.32340  0.12340  Biso   1.000  H
  C105     1.0000 0.24030  0.75730  0.95191  Biso   1.000  C
  C106     1.0000 0.75970  0.24270  0.04809  Biso   1.000  C
  C107     1.0000 0.29000  0.69380  0.00263  Biso   1.000  C
  C108     1.0000 0.71000  0.30620  0.99737  Biso   1.000  C
  C109     1.0000 0.19840  0.84210  0.96764  Biso   1.000  C
  C110     1.0000 0.80160  0.15790  0.03236  Biso   1.000  C
  H125     1.0000 0.20140  0.85970  0.01000  Biso   1.000  H
  H126     1.0000 0.79860  0.14030  0.99000  Biso   1.000  H
  C111     1.0000 0.15290  0.90020  0.92136  Biso   1.000  C
  C112     1.0000 0.84710  0.09980  0.07864  Biso   1.000  C
  H127     1.0000 0.12580  0.95660  0.93300  Biso   1.000  H
  H128     1.0000 0.87420  0.04340  0.06700  Biso   1.000  H
  N1       1.0000 0.20700  0.24630  0.53941  Biso   1.000  N
  N2       1.0000 0.79300  0.75370  0.46059  Biso   1.000  N
  N3       1.0000 0.20780  0.31430  0.63306  Biso   1.000  N
  N4       1.0000 0.79220  0.68570  0.36694  Biso   1.000  N
  N5       1.0000 0.32240  0.20590  0.86945  Biso   1.000  N
  N6       1.0000 0.67760  0.79410  0.13055  Biso   1.000  N
  N7       1.0000 0.29820  0.25630  0.96277  Biso   1.000  N
  N8       1.0000 0.70180  0.74370  0.03723  Biso   1.000  N
  N9       1.0000 0.29710  0.18984  0.37531  Biso   1.000  N
  N10      1.0000 0.70290  0.81016  0.62469  Biso   1.000  N
  N11      1.0000 0.32390  0.11160  0.29105  Biso   1.000  N
  N12      1.0000 0.67610  0.88840  0.70895  Biso   1.000  N
  N13      1.0000 0.54240  0.93760  0.42529  Biso   1.000  N
  N14      1.0000 0.45760  0.06240  0.57471  Biso   1.000  N
  N15      1.0000 0.63070  0.84910  0.49473  Biso   1.000  N
  N16      1.0000 0.36930  0.15090  0.50527  Biso   1.000  N
  N17      1.0000 0.14060  0.28991  0.41254  Biso   1.000  N
  N18      1.0000 0.85940  0.71009  0.58746  Biso   1.000  N
  N19      1.0000 0.04460  0.41125  0.40002  Biso   1.000  N
  N20      1.0000 0.95540  0.58875  0.59998  Biso   1.000  N
  N21      1.0000 0.34330  0.19470  0.08586  Biso   1.000  N
  N22      1.0000 0.65670  0.80530  0.91414  Biso   1.000  N
  N23      1.0000 0.43760  0.07250  0.09880  Biso   1.000  N
  N24      1.0000 0.56240  0.92750  0.90120  Biso   1.000  N
  N25      1.0000 0.18840  0.29480  0.12181  Biso   1.000  N
  N26      1.0000 0.81160  0.70520  0.87819  Biso   1.000  N
  N27      1.0000 0.15980  0.36430  0.20845  Biso   1.000  N
  N28      1.0000 0.84020  0.63570  0.79155  Biso   1.000  N
  N29      1.0000 0.95640  0.56770  0.07834  Biso   1.000  N
  N30      1.0000 0.04360  0.43230  0.92166  Biso   1.000  N
  N31      1.0000 0.87380  0.65650  0.00785  Biso   1.000  N
  N32      1.0000 0.12620  0.34350  0.99215  Biso   1.000  N
  O1       1.0000 0.68290  0.33148  0.72943  Biso   1.000  O
  O2       1.0000 0.31710  0.66852  0.27057  Biso   1.000  O
  O3       1.0000 0.80010  0.22769  0.74407  Biso   1.000  O
  O4       1.0000 0.19990  0.77231  0.25593  Biso   1.000  O
  O5       1.0000 0.69830  0.34150  0.40807  Biso   1.000  O
  O6       1.0000 0.30170  0.65850  0.59193  Biso   1.000  O
  O7       1.0000 0.76090  0.19740  0.41449  Biso   1.000  O
  O8       1.0000 0.23910  0.80260  0.58551  Biso   1.000  O
  O9       1.0000 0.29870  0.72500  0.05907  Biso   1.000  O
  O10      1.0000 0.70130  0.27500  0.94093  Biso   1.000  O
  O11      1.0000 0.31940  0.61526  0.98599  Biso   1.000  O
  O12      1.0000 0.68060  0.38474  0.01401  Biso   1.000  O
  O13      1.0000 0.05180  0.00768  0.82200  Biso   1.000  O
  O14      1.0000 0.94820  0.99232  0.17800  Biso   1.000  O
  O15      1.0000 0.10540  0.91735  0.75130  Biso   1.000  O
  O16      1.0000 0.89460  0.08265  0.24870  Biso   1.000  O
  O17      1.0000 0.14180  0.05135  0.44278  Biso   1.000  O
  O18      1.0000 0.85820  0.94865  0.55722  Biso   1.000  O
  O19      1.0000 0.11040  0.11006  0.01356  Biso   1.000  O
  O20      1.0000 0.88960  0.88994  0.98644  Biso   1.000  O
  O21      1.0000 0.29160  0.87520  0.71311  Biso   1.000  O
  O22      1.0000 0.70840  0.12480  0.28689  Biso   1.000  O
  O23      1.0000 0.93880  0.05150  0.91043  Biso   1.000  O
  O24      1.0000 0.06120  0.94850  0.08957  Biso   1.000  O
  O25      1.0000 0.03190  0.01980  0.65450  Biso   1.000  O
  O26      1.0000 0.96810  0.98020  0.34550  Biso   1.000  O
  O27      1.0000 0.21690  0.84280  0.13903  Biso   1.000  O
  O28      1.0000 0.78310  0.15720  0.86097  Biso   1.000  O
  O29      1.0000 0.52780  0.45550  0.69503  Biso   1.000  O
  O30      1.0000 0.47220  0.54450  0.30497  Biso   1.000  O
  O31      1.0000 0.87480  0.04150  0.44569  Biso   1.000  O
  O32      1.0000 0.12520  0.95850  0.55431  Biso   1.000  O
  O33      1.0000 0.70490  0.33910  0.28361  Biso   1.000  O
  O34      1.0000 0.29510  0.66090  0.71639  Biso   1.000  O
  O35      1.0000 0.99130  0.16330  0.74127  Biso   1.000  O
  O36      1.0000 0.00870  0.83670  0.25873  Biso   1.000  O
  O37      1.0000 0.64620  0.39060  0.84320  Biso   1.000  O
  O38      1.0000 0.35380  0.60940  0.15680  Biso   1.000  O
  O39      1.0000 0.62160  0.53790  0.93390  Biso   1.000  O
  O40      1.0000 0.37840  0.46210  0.06610  Biso   1.000  O
  O41      1.0000 0.37860  0.51090  0.89329  Biso   1.000  O
  O42      1.0000 0.62140  0.48910  0.10671  Biso   1.000  O
  O43      1.0000 0.44470  0.55850  0.78064  Biso   1.000  O
  O44      1.0000 0.55530  0.44150  0.21936  Biso   1.000  O
  O45      1.0000 0.61620  0.60580  0.52280  Biso   1.000  O
  O46      1.0000 0.38380  0.39420  0.47720  Biso   1.000  O
  O47      1.0000 0.55340  0.47000  0.41444  Biso   1.000  O
  O48      1.0000 0.44660  0.53000  0.58556  Biso   1.000  O
  Cu1      1.0000 0.25204  0.21456  0.45732  Biso   1.000  Cu
  Cu2      1.0000 0.74796  0.78544  0.54268  Biso   1.000  Cu
  Cu3      1.0000 0.23571  0.27191  0.04052  Biso   1.000  Cu
  Cu4      1.0000 0.76429  0.72809  0.95948  Biso   1.000  Cu
  H129     1.0000 0.61000  0.33050  0.82310  Biso   1.000  H
  H130     1.0000 0.39000  0.66950  0.17690  Biso   1.000  H
  H131     1.0000 0.92500  0.17700  0.73980  Biso   1.000  H
  H132     1.0000 0.07500  0.82300  0.26020  Biso   1.000  H
  H133     1.0000 0.01500  0.12500  0.77240  Biso   1.000  H
  H134     1.0000 0.98500  0.87500  0.22760  Biso   1.000  H
  H135     1.0000 0.28300  0.84900  0.67180  Biso   1.000  H
  H136     1.0000 0.71700  0.15100  0.32820  Biso   1.000  H
  H137     1.0000 0.23900  0.80100  0.11510  Biso   1.000  H
  H138     1.0000 0.76100  0.19900  0.88490  Biso   1.000  H
  H139     1.0000 0.19800  0.80400  0.16980  Biso   1.000  H
  H140     1.0000 0.80200  0.19600  0.83020  Biso   1.000  H
  H141     1.0000 0.01700  0.07780  0.66980  Biso   1.000  H
  H142     1.0000 0.98300  0.92220  0.33020  Biso   1.000  H
  H143     1.0000 0.04500  0.98500  0.69060  Biso   1.000  H
  H144     1.0000 0.95500  0.01500  0.30940  Biso   1.000  H
  H145     1.0000 0.52400  0.48200  0.37540  Biso   1.000  H
  H146     1.0000 0.47600  0.51800  0.62460  Biso   1.000  H
  H147     1.0000 0.05200  0.10500  0.98460  Biso   1.000  H
  H148     1.0000 0.94800  0.89500  0.01540  Biso   1.000  H
  H149     1.0000 0.35190  0.53900  0.85180  Biso   1.000  H
  H150     1.0000 0.64810  0.46100  0.14820  Biso   1.000  H
  H151     1.0000 0.89800  0.08800  0.89100  Biso   1.000  H
  H152     1.0000 0.10200  0.91200  0.10900  Biso   1.000  H
  H153     1.0000 0.64000  0.29300  0.27790  Biso   1.000  H
  H154     1.0000 0.36000  0.70700  0.72210  Biso   1.000  H
  H155     1.0000 0.72100  0.36400  0.32040  Biso   1.000  H
  H156     1.0000 0.27900  0.63600  0.67960  Biso   1.000  H
  H157     1.0000 0.56100  0.59100  0.53870  Biso   1.000  H
  H158     1.0000 0.43900  0.40900  0.46130  Biso   1.000  H
  H159     1.0000 0.59500  0.56700  0.48770  Biso   1.000  H
  H160     1.0000 0.40500  0.43300  0.51230  Biso   1.000  H
  H161     1.0000 0.62600  0.49100  0.95800  Biso   1.000  H
  H162     1.0000 0.37400  0.50900  0.04200  Biso   1.000  H
  H163     1.0000 0.84300  0.09400  0.43700  Biso   1.000  H
  H164     1.0000 0.15700  0.90600  0.56300  Biso   1.000  H
  H165     1.0000 0.56800  0.40700  0.70200  Biso   1.000  H
  H166     1.0000 0.43200  0.59300  0.29800  Biso   1.000  H
  H167     1.0000 0.54900  0.50200  0.72420  Biso   1.000  H
  H168     1.0000 0.45100  0.49800  0.27580  Biso   1.000  H
  H169     1.0000 0.07900  0.03000  0.41900  Biso   1.000  H
  H170     1.0000 0.92100  0.97000  0.58100  Biso   1.000  H
  H171     1.0000 0.12900  0.03000  0.47550  Biso   1.000  H
  H172     1.0000 0.87100  0.97000  0.52450  Biso   1.000  H
  H173     1.0000 0.66700  0.35300  0.87720  Biso   1.000  H
  H174     1.0000 0.33300  0.64700  0.12280  Biso   1.000  H
  H175     1.0000 0.96300  0.03800  0.87670  Biso   1.000  H
  H176     1.0000 0.03700  0.96200  0.12330  Biso   1.000  H
  H177     1.0000 0.88000  0.01200  0.40850  Biso   1.000  H
  H178     1.0000 0.12000  0.98800  0.59150  Biso   1.000  H
  H179     1.0000 0.40050  0.55010  0.74820  Biso   1.000  H
  H180     1.0000 0.59950  0.44990  0.25180  Biso   1.000  H
  H181     1.0000 0.48000  0.51500  0.80690  Biso   1.000  H
  H182     1.0000 0.52000  0.48500  0.19310  Biso   1.000  H
  H183     1.0000 0.58700  0.49300  0.90170  Biso   1.000  H
  H184     1.0000 0.41300  0.50700  0.09830  Biso   1.000  H
  H185     1.0000 0.09200  0.06300  0.03800  Biso   1.000  H
  H186     1.0000 0.90800  0.93700  0.96200  Biso   1.000  H
  H187     1.0000 0.37400  0.55200  0.92410  Biso   1.000  H
  H188     1.0000 0.62600  0.44800  0.07590  Biso   1.000  H
  H189     1.0000 0.59700  0.42700  0.41000  Biso   1.000  H
  H190     1.0000 0.40300  0.57300  0.59000  Biso   1.000  H
  H191     1.0000 0.23000  0.87900  0.72220  Biso   1.000  H
  H192     1.0000 0.77000  0.12100  0.27780  Biso   1.000  H
