data_image0
_cell_length_a       25.86
_cell_length_b       10.185
_cell_length_c       22.79
_cell_angle_alpha    90
_cell_angle_beta     97.671
_cell_angle_gamma    90

_symmetry_space_group_name_H-M    "P 1"
_symmetry_int_tables_number       1

loop_
  _symmetry_equiv_pos_as_xyz
  'x, y, z'

loop_
  _atom_site_label
  _atom_site_occupancy
  _atom_site_fract_x
  _atom_site_fract_y
  _atom_site_fract_z
  _atom_site_thermal_displace_type
  _atom_site_B_iso_or_equiv
  _atom_site_type_symbol
  C1       1.0000 0.64063  0.96690  0.61679  Biso   1.000  C
  C2       1.0000 0.14063  0.46690  0.61679  Biso   1.000  C
  C3       1.0000 0.35937  0.96690  0.88321  Biso   1.000  C
  C4       1.0000 0.85937  0.46690  0.88321  Biso   1.000  C
  C5       1.0000 0.35937  0.03310  0.38321  Biso   1.000  C
  C6       1.0000 0.85937  0.53310  0.38321  Biso   1.000  C
  C7       1.0000 0.64063  0.03310  0.11679  Biso   1.000  C
  C8       1.0000 0.14063  0.53310  0.11679  Biso   1.000  C
  H1       1.0000 0.63650  0.88000  0.62780  Biso   1.000  H
  H2       1.0000 0.13650  0.38000  0.62780  Biso   1.000  H
  H3       1.0000 0.36350  0.88000  0.87220  Biso   1.000  H
  H4       1.0000 0.86350  0.38000  0.87220  Biso   1.000  H
  H5       1.0000 0.36350  0.12000  0.37220  Biso   1.000  H
  H6       1.0000 0.86350  0.62000  0.37220  Biso   1.000  H
  H7       1.0000 0.63650  0.12000  0.12780  Biso   1.000  H
  H8       1.0000 0.13650  0.62000  0.12780  Biso   1.000  H
  C9       1.0000 0.67083  0.99710  0.57177  Biso   1.000  C
  C10      1.0000 0.17083  0.49710  0.57177  Biso   1.000  C
  C11      1.0000 0.32917  0.99710  0.92823  Biso   1.000  C
  C12      1.0000 0.82917  0.49710  0.92823  Biso   1.000  C
  C13      1.0000 0.32917  0.00290  0.42823  Biso   1.000  C
  C14      1.0000 0.82917  0.50290  0.42823  Biso   1.000  C
  C15      1.0000 0.67083  0.00290  0.07177  Biso   1.000  C
  C16      1.0000 0.17083  0.50290  0.07177  Biso   1.000  C
  C17      1.0000 0.67754  0.12420  0.55627  Biso   1.000  C
  C18      1.0000 0.17754  0.62420  0.55627  Biso   1.000  C
  C19      1.0000 0.32246  0.12420  0.94373  Biso   1.000  C
  C20      1.0000 0.82246  0.62420  0.94373  Biso   1.000  C
  C21      1.0000 0.32246  0.87580  0.44373  Biso   1.000  C
  C22      1.0000 0.82246  0.37580  0.44373  Biso   1.000  C
  C23      1.0000 0.67754  0.87580  0.05627  Biso   1.000  C
  C24      1.0000 0.17754  0.37580  0.05627  Biso   1.000  C
  H9       1.0000 0.69820  0.14320  0.52690  Biso   1.000  H
  H10      1.0000 0.19820  0.64320  0.52690  Biso   1.000  H
  H11      1.0000 0.30180  0.14320  0.97310  Biso   1.000  H
  H12      1.0000 0.80180  0.64320  0.97310  Biso   1.000  H
  H13      1.0000 0.30180  0.85680  0.47310  Biso   1.000  H
  H14      1.0000 0.80180  0.35680  0.47310  Biso   1.000  H
  H15      1.0000 0.69820  0.85680  0.02690  Biso   1.000  H
  H16      1.0000 0.19820  0.35680  0.02690  Biso   1.000  H
  C25      1.0000 0.65400  0.22690  0.58350  Biso   1.000  C
  C26      1.0000 0.15400  0.72690  0.58350  Biso   1.000  C
  C27      1.0000 0.34600  0.22690  0.91650  Biso   1.000  C
  C28      1.0000 0.84600  0.72690  0.91650  Biso   1.000  C
  C29      1.0000 0.34600  0.77310  0.41650  Biso   1.000  C
  C30      1.0000 0.84600  0.27310  0.41650  Biso   1.000  C
  C31      1.0000 0.65400  0.77310  0.08350  Biso   1.000  C
  C32      1.0000 0.15400  0.27310  0.08350  Biso   1.000  C
  C33      1.0000 0.62404  0.19620  0.62870  Biso   1.000  C
  C34      1.0000 0.12404  0.69620  0.62870  Biso   1.000  C
  C35      1.0000 0.37596  0.19620  0.87130  Biso   1.000  C
  C36      1.0000 0.87596  0.69620  0.87130  Biso   1.000  C
  C37      1.0000 0.37596  0.80380  0.37130  Biso   1.000  C
  C38      1.0000 0.87596  0.30380  0.37130  Biso   1.000  C
  C39      1.0000 0.62404  0.80380  0.12870  Biso   1.000  C
  C40      1.0000 0.12404  0.30380  0.12870  Biso   1.000  C
  H17      1.0000 0.60880  0.26330  0.64810  Biso   1.000  H
  H18      1.0000 0.10880  0.76330  0.64810  Biso   1.000  H
  H19      1.0000 0.39120  0.26330  0.85190  Biso   1.000  H
  H20      1.0000 0.89120  0.76330  0.85190  Biso   1.000  H
  H21      1.0000 0.39120  0.73670  0.35190  Biso   1.000  H
  H22      1.0000 0.89120  0.23670  0.35190  Biso   1.000  H
  H23      1.0000 0.60880  0.73670  0.14810  Biso   1.000  H
  H24      1.0000 0.10880  0.23670  0.14810  Biso   1.000  H
  C41      1.0000 0.61703  0.06680  0.64470  Biso   1.000  C
  C42      1.0000 0.11703  0.56680  0.64470  Biso   1.000  C
  C43      1.0000 0.38297  0.06680  0.85530  Biso   1.000  C
  C44      1.0000 0.88297  0.56680  0.85530  Biso   1.000  C
  C45      1.0000 0.38297  0.93320  0.35530  Biso   1.000  C
  C46      1.0000 0.88297  0.43320  0.35530  Biso   1.000  C
  C47      1.0000 0.61703  0.93320  0.14470  Biso   1.000  C
  C48      1.0000 0.11703  0.43320  0.14470  Biso   1.000  C
  C49      1.0000 0.69550  0.88650  0.54090  Biso   1.000  C
  C50      1.0000 0.19550  0.38650  0.54090  Biso   1.000  C
  C51      1.0000 0.30450  0.88650  0.95910  Biso   1.000  C
  C52      1.0000 0.80450  0.38650  0.95910  Biso   1.000  C
  C53      1.0000 0.30450  0.11350  0.45910  Biso   1.000  C
  C54      1.0000 0.80450  0.61350  0.45910  Biso   1.000  C
  C55      1.0000 0.69550  0.11350  0.04090  Biso   1.000  C
  C56      1.0000 0.19550  0.61350  0.04090  Biso   1.000  C
  C57      1.0000 0.66160  0.36870  0.56920  Biso   1.000  C
  C58      1.0000 0.16160  0.86870  0.56920  Biso   1.000  C
  C59      1.0000 0.33840  0.36870  0.93080  Biso   1.000  C
  C60      1.0000 0.83840  0.86870  0.93080  Biso   1.000  C
  C61      1.0000 0.33840  0.63130  0.43080  Biso   1.000  C
  C62      1.0000 0.83840  0.13130  0.43080  Biso   1.000  C
  C63      1.0000 0.66160  0.63130  0.06920  Biso   1.000  C
  C64      1.0000 0.16160  0.13130  0.06920  Biso   1.000  C
  C65      1.0000 0.58270  0.03740  0.69150  Biso   1.000  C
  C66      1.0000 0.08270  0.53740  0.69150  Biso   1.000  C
  C67      1.0000 0.41730  0.03740  0.80850  Biso   1.000  C
  C68      1.0000 0.91730  0.53740  0.80850  Biso   1.000  C
  C69      1.0000 0.41730  0.96260  0.30850  Biso   1.000  C
  C70      1.0000 0.91730  0.46260  0.30850  Biso   1.000  C
  C71      1.0000 0.58270  0.96260  0.19150  Biso   1.000  C
  C72      1.0000 0.08270  0.46260  0.19150  Biso   1.000  C
  C73      1.0000 0.42070  0.03540  0.65070  Biso   1.000  C
  C74      1.0000 0.92070  0.53540  0.65070  Biso   1.000  C
  C75      1.0000 0.57930  0.03540  0.84930  Biso   1.000  C
  C76      1.0000 0.07930  0.53540  0.84930  Biso   1.000  C
  C77      1.0000 0.57930  0.96460  0.34930  Biso   1.000  C
  C78      1.0000 0.07930  0.46460  0.34930  Biso   1.000  C
  C79      1.0000 0.42070  0.96460  0.15070  Biso   1.000  C
  C80      1.0000 0.92070  0.46460  0.15070  Biso   1.000  C
  H25      1.0000 0.40220  0.98690  0.67560  Biso   1.000  H
  H26      1.0000 0.90220  0.48690  0.67560  Biso   1.000  H
  H27      1.0000 0.59780  0.98690  0.82440  Biso   1.000  H
  H28      1.0000 0.09780  0.48690  0.82440  Biso   1.000  H
  H29      1.0000 0.59780  0.01310  0.32440  Biso   1.000  H
  H30      1.0000 0.09780  0.51310  0.32440  Biso   1.000  H
  H31      1.0000 0.40220  0.01310  0.17560  Biso   1.000  H
  H32      1.0000 0.90220  0.51310  0.17560  Biso   1.000  H
  C81      1.0000 0.47660  0.16460  0.62060  Biso   1.000  C
  C82      1.0000 0.97660  0.66460  0.62060  Biso   1.000  C
  C83      1.0000 0.52340  0.16460  0.87940  Biso   1.000  C
  C84      1.0000 0.02340  0.66460  0.87940  Biso   1.000  C
  C85      1.0000 0.52340  0.83540  0.37940  Biso   1.000  C
  C86      1.0000 0.02340  0.33540  0.37940  Biso   1.000  C
  C87      1.0000 0.47660  0.83540  0.12060  Biso   1.000  C
  C88      1.0000 0.97660  0.33540  0.12060  Biso   1.000  C
  H33      1.0000 0.50430  0.22290  0.62020  Biso   1.000  H
  H34      1.0000 0.00430  0.72290  0.62020  Biso   1.000  H
  H35      1.0000 0.49570  0.22290  0.87980  Biso   1.000  H
  H36      1.0000 0.99570  0.72290  0.87980  Biso   1.000  H
  H37      1.0000 0.49570  0.77710  0.37980  Biso   1.000  H
  H38      1.0000 0.99570  0.27710  0.37980  Biso   1.000  H
  H39      1.0000 0.50430  0.77710  0.12020  Biso   1.000  H
  H40      1.0000 0.00430  0.27710  0.12020  Biso   1.000  H
  C89      1.0000 0.40960  0.03970  0.59140  Biso   1.000  C
  C90      1.0000 0.90960  0.53970  0.59140  Biso   1.000  C
  C91      1.0000 0.59040  0.03970  0.90860  Biso   1.000  C
  C92      1.0000 0.09040  0.53970  0.90860  Biso   1.000  C
  C93      1.0000 0.59040  0.96030  0.40860  Biso   1.000  C
  C94      1.0000 0.09040  0.46030  0.40860  Biso   1.000  C
  C95      1.0000 0.40960  0.96030  0.09140  Biso   1.000  C
  C96      1.0000 0.90960  0.46030  0.09140  Biso   1.000  C
  H41      1.0000 0.38280  0.99560  0.56800  Biso   1.000  H
  H42      1.0000 0.88280  0.49560  0.56800  Biso   1.000  H
  H43      1.0000 0.61720  0.99560  0.93200  Biso   1.000  H
  H44      1.0000 0.11720  0.49560  0.93200  Biso   1.000  H
  H45      1.0000 0.61720  0.00440  0.43200  Biso   1.000  H
  H46      1.0000 0.11720  0.50440  0.43200  Biso   1.000  H
  H47      1.0000 0.38280  0.00440  0.06800  Biso   1.000  H
  H48      1.0000 0.88280  0.50440  0.06800  Biso   1.000  H
  C97      1.0000 0.45450  0.14890  0.51160  Biso   1.000  C
  C98      1.0000 0.95450  0.64890  0.51160  Biso   1.000  C
  C99      1.0000 0.54550  0.14890  0.98840  Biso   1.000  C
  C100     1.0000 0.04550  0.64890  0.98840  Biso   1.000  C
  C101     1.0000 0.54550  0.85110  0.48840  Biso   1.000  C
  C102     1.0000 0.04550  0.35110  0.48840  Biso   1.000  C
  C103     1.0000 0.45450  0.85110  0.01160  Biso   1.000  C
  C104     1.0000 0.95450  0.35110  0.01160  Biso   1.000  C
  H49      1.0000 0.47980  0.21890  0.51100  Biso   1.000  H
  H50      1.0000 0.97980  0.71890  0.51100  Biso   1.000  H
  H51      1.0000 0.52020  0.21890  0.98900  Biso   1.000  H
  H52      1.0000 0.02020  0.71890  0.98900  Biso   1.000  H
  H53      1.0000 0.52020  0.78110  0.48900  Biso   1.000  H
  H54      1.0000 0.02020  0.28110  0.48900  Biso   1.000  H
  H55      1.0000 0.47980  0.78110  0.01100  Biso   1.000  H
  H56      1.0000 0.97980  0.28110  0.01100  Biso   1.000  H
  H57      1.0000 0.42210  0.17700  0.48860  Biso   1.000  H
  H58      1.0000 0.92210  0.67700  0.48860  Biso   1.000  H
  H59      1.0000 0.57790  0.17700  0.01140  Biso   1.000  H
  H60      1.0000 0.07790  0.67700  0.01140  Biso   1.000  H
  H61      1.0000 0.57790  0.82300  0.51140  Biso   1.000  H
  H62      1.0000 0.07790  0.32300  0.51140  Biso   1.000  H
  H63      1.0000 0.42210  0.82300  0.98860  Biso   1.000  H
  H64      1.0000 0.92210  0.32300  0.98860  Biso   1.000  H
  C105     1.0000 0.47390  0.02770  0.48500  Biso   1.000  C
  C106     1.0000 0.97390  0.52770  0.48500  Biso   1.000  C
  C107     1.0000 0.52610  0.02770  0.01500  Biso   1.000  C
  C108     1.0000 0.02610  0.52770  0.01500  Biso   1.000  C
  C109     1.0000 0.52610  0.97230  0.51500  Biso   1.000  C
  C110     1.0000 0.02610  0.47230  0.51500  Biso   1.000  C
  C111     1.0000 0.47390  0.97230  0.98500  Biso   1.000  C
  C112     1.0000 0.97390  0.47230  0.98500  Biso   1.000  C
  H65      1.0000 0.47740  0.04610  0.44390  Biso   1.000  H
  H66      1.0000 0.97740  0.54610  0.44390  Biso   1.000  H
  H67      1.0000 0.52260  0.04610  0.05610  Biso   1.000  H
  H68      1.0000 0.02260  0.54610  0.05610  Biso   1.000  H
  H69      1.0000 0.52260  0.95390  0.55610  Biso   1.000  H
  H70      1.0000 0.02260  0.45390  0.55610  Biso   1.000  H
  H71      1.0000 0.47740  0.95390  0.94390  Biso   1.000  H
  H72      1.0000 0.97740  0.45390  0.94390  Biso   1.000  H
  H73      1.0000 0.44760  0.95990  0.48510  Biso   1.000  H
  H74      1.0000 0.94760  0.45990  0.48510  Biso   1.000  H
  H75      1.0000 0.55240  0.95990  0.01490  Biso   1.000  H
  H76      1.0000 0.05240  0.45990  0.01490  Biso   1.000  H
  H77      1.0000 0.55240  0.04010  0.51490  Biso   1.000  H
  H78      1.0000 0.05240  0.54010  0.51490  Biso   1.000  H
  H79      1.0000 0.44760  0.04010  0.98510  Biso   1.000  H
  H80      1.0000 0.94760  0.54010  0.98510  Biso   1.000  H
  C113     1.0000 0.72490  0.62130  0.67100  Biso   1.000  C
  C114     1.0000 0.22490  0.12130  0.67100  Biso   1.000  C
  C115     1.0000 0.27510  0.62130  0.82900  Biso   1.000  C
  C116     1.0000 0.77510  0.12130  0.82900  Biso   1.000  C
  C117     1.0000 0.27510  0.37870  0.32900  Biso   1.000  C
  C118     1.0000 0.77510  0.87870  0.32900  Biso   1.000  C
  C119     1.0000 0.72490  0.37870  0.17100  Biso   1.000  C
  C120     1.0000 0.22490  0.87870  0.17100  Biso   1.000  C
  H81      1.0000 0.69760  0.68100  0.67030  Biso   1.000  H
  H82      1.0000 0.19760  0.18100  0.67030  Biso   1.000  H
  H83      1.0000 0.30240  0.68100  0.82970  Biso   1.000  H
  H84      1.0000 0.80240  0.18100  0.82970  Biso   1.000  H
  H85      1.0000 0.30240  0.31900  0.32970  Biso   1.000  H
  H86      1.0000 0.80240  0.81900  0.32970  Biso   1.000  H
  H87      1.0000 0.69760  0.31900  0.17030  Biso   1.000  H
  H88      1.0000 0.19760  0.81900  0.17030  Biso   1.000  H
  C121     1.0000 0.78140  0.49060  0.64400  Biso   1.000  C
  C122     1.0000 0.28140  0.99060  0.64400  Biso   1.000  C
  C123     1.0000 0.21860  0.49060  0.85600  Biso   1.000  C
  C124     1.0000 0.71860  0.99060  0.85600  Biso   1.000  C
  C125     1.0000 0.21860  0.50940  0.35600  Biso   1.000  C
  C126     1.0000 0.71860  0.00940  0.35600  Biso   1.000  C
  C127     1.0000 0.78140  0.50940  0.14400  Biso   1.000  C
  C128     1.0000 0.28140  0.00940  0.14400  Biso   1.000  C
  H89      1.0000 0.80110  0.44190  0.62050  Biso   1.000  H
  H90      1.0000 0.30110  0.94190  0.62050  Biso   1.000  H
  H91      1.0000 0.19890  0.44190  0.87950  Biso   1.000  H
  H92      1.0000 0.69890  0.94190  0.87950  Biso   1.000  H
  H93      1.0000 0.19890  0.55810  0.37950  Biso   1.000  H
  H94      1.0000 0.69890  0.05810  0.37950  Biso   1.000  H
  H95      1.0000 0.80110  0.55810  0.12050  Biso   1.000  H
  H96      1.0000 0.30110  0.05810  0.12050  Biso   1.000  H
  C129     1.0000 0.78810  0.49040  0.70380  Biso   1.000  C
  C130     1.0000 0.28810  0.99040  0.70380  Biso   1.000  C
  C131     1.0000 0.21190  0.49040  0.79620  Biso   1.000  C
  C132     1.0000 0.71190  0.99040  0.79620  Biso   1.000  C
  C133     1.0000 0.21190  0.50960  0.29620  Biso   1.000  C
  C134     1.0000 0.71190  0.00960  0.29620  Biso   1.000  C
  C135     1.0000 0.78810  0.50960  0.20380  Biso   1.000  C
  C136     1.0000 0.28810  0.00960  0.20380  Biso   1.000  C
  H97      1.0000 0.81250  0.44240  0.72870  Biso   1.000  H
  H98      1.0000 0.31250  0.94240  0.72870  Biso   1.000  H
  H99      1.0000 0.18750  0.44240  0.77130  Biso   1.000  H
  H100     1.0000 0.68750  0.94240  0.77130  Biso   1.000  H
  H101     1.0000 0.18750  0.55760  0.27130  Biso   1.000  H
  H102     1.0000 0.68750  0.05760  0.27130  Biso   1.000  H
  H103     1.0000 0.81250  0.55760  0.22870  Biso   1.000  H
  H104     1.0000 0.31250  0.05760  0.22870  Biso   1.000  H
  C137     1.0000 0.74270  0.60070  0.78140  Biso   1.000  C
  C138     1.0000 0.24270  0.10070  0.78140  Biso   1.000  C
  C139     1.0000 0.25730  0.60070  0.71860  Biso   1.000  C
  C140     1.0000 0.75730  0.10070  0.71860  Biso   1.000  C
  C141     1.0000 0.25730  0.39930  0.21860  Biso   1.000  C
  C142     1.0000 0.75730  0.89930  0.21860  Biso   1.000  C
  C143     1.0000 0.74270  0.39930  0.28140  Biso   1.000  C
  C144     1.0000 0.24270  0.89930  0.28140  Biso   1.000  C
  H105     1.0000 0.71860  0.67360  0.78160  Biso   1.000  H
  H106     1.0000 0.21860  0.17360  0.78160  Biso   1.000  H
  H107     1.0000 0.28140  0.67360  0.71840  Biso   1.000  H
  H108     1.0000 0.78140  0.17360  0.71840  Biso   1.000  H
  H109     1.0000 0.28140  0.32640  0.21840  Biso   1.000  H
  H110     1.0000 0.78140  0.82640  0.21840  Biso   1.000  H
  H111     1.0000 0.71860  0.32640  0.28160  Biso   1.000  H
  H112     1.0000 0.21860  0.82640  0.28160  Biso   1.000  H
  H113     1.0000 0.77530  0.62570  0.80480  Biso   1.000  H
  H114     1.0000 0.27530  0.12570  0.80480  Biso   1.000  H
  H115     1.0000 0.22470  0.62570  0.69520  Biso   1.000  H
  H116     1.0000 0.72470  0.12570  0.69520  Biso   1.000  H
  H117     1.0000 0.22470  0.37430  0.19520  Biso   1.000  H
  H118     1.0000 0.72470  0.87430  0.19520  Biso   1.000  H
  H119     1.0000 0.77530  0.37430  0.30480  Biso   1.000  H
  H120     1.0000 0.27530  0.87430  0.30480  Biso   1.000  H
  C145     1.0000 0.72050  0.48170  0.80910  Biso   1.000  C
  C146     1.0000 0.22050  0.98170  0.80910  Biso   1.000  C
  C147     1.0000 0.27950  0.48170  0.69090  Biso   1.000  C
  C148     1.0000 0.77950  0.98170  0.69090  Biso   1.000  C
  C149     1.0000 0.27950  0.51830  0.19090  Biso   1.000  C
  C150     1.0000 0.77950  0.01830  0.19090  Biso   1.000  C
  C151     1.0000 0.72050  0.51830  0.30910  Biso   1.000  C
  C152     1.0000 0.22050  0.01830  0.30910  Biso   1.000  C
  H121     1.0000 0.74580  0.41110  0.81090  Biso   1.000  H
  H122     1.0000 0.24580  0.91110  0.81090  Biso   1.000  H
  H123     1.0000 0.25420  0.41110  0.68910  Biso   1.000  H
  H124     1.0000 0.75420  0.91110  0.68910  Biso   1.000  H
  H125     1.0000 0.25420  0.58890  0.18910  Biso   1.000  H
  H126     1.0000 0.75420  0.08890  0.18910  Biso   1.000  H
  H127     1.0000 0.74580  0.58890  0.31090  Biso   1.000  H
  H128     1.0000 0.24580  0.08890  0.31090  Biso   1.000  H
  H129     1.0000 0.71560  0.50330  0.84950  Biso   1.000  H
  H130     1.0000 0.21560  0.00330  0.84950  Biso   1.000  H
  H131     1.0000 0.28440  0.50330  0.65050  Biso   1.000  H
  H132     1.0000 0.78440  0.00330  0.65050  Biso   1.000  H
  H133     1.0000 0.28440  0.49670  0.15050  Biso   1.000  H
  H134     1.0000 0.78440  0.99670  0.15050  Biso   1.000  H
  H135     1.0000 0.71560  0.49670  0.34950  Biso   1.000  H
  H136     1.0000 0.21560  0.99670  0.34950  Biso   1.000  H
  C153     1.0000 0.66940  0.43250  0.77730  Biso   1.000  C
  C154     1.0000 0.16940  0.93250  0.77730  Biso   1.000  C
  C155     1.0000 0.33060  0.43250  0.72270  Biso   1.000  C
  C156     1.0000 0.83060  0.93250  0.72270  Biso   1.000  C
  C157     1.0000 0.33060  0.56750  0.22270  Biso   1.000  C
  C158     1.0000 0.83060  0.06750  0.22270  Biso   1.000  C
  C159     1.0000 0.66940  0.56750  0.27730  Biso   1.000  C
  C160     1.0000 0.16940  0.06750  0.27730  Biso   1.000  C
  H137     1.0000 0.67490  0.40380  0.73800  Biso   1.000  H
  H138     1.0000 0.17490  0.90380  0.73800  Biso   1.000  H
  H139     1.0000 0.32510  0.40380  0.76200  Biso   1.000  H
  H140     1.0000 0.82510  0.90380  0.76200  Biso   1.000  H
  H141     1.0000 0.32510  0.59620  0.26200  Biso   1.000  H
  H142     1.0000 0.82510  0.09620  0.26200  Biso   1.000  H
  H143     1.0000 0.67490  0.59620  0.23800  Biso   1.000  H
  H144     1.0000 0.17490  0.09620  0.23800  Biso   1.000  H
  H145     1.0000 0.64480  0.50490  0.77260  Biso   1.000  H
  H146     1.0000 0.14480  0.00490  0.77260  Biso   1.000  H
  H147     1.0000 0.35520  0.50490  0.72740  Biso   1.000  H
  H148     1.0000 0.85520  0.00490  0.72740  Biso   1.000  H
  H149     1.0000 0.35520  0.49510  0.22740  Biso   1.000  H
  H150     1.0000 0.85520  0.99510  0.22740  Biso   1.000  H
  H151     1.0000 0.64480  0.49510  0.27260  Biso   1.000  H
  H152     1.0000 0.14480  0.99510  0.27260  Biso   1.000  H
  C161     1.0000 0.64550  0.32110  0.80780  Biso   1.000  C
  C162     1.0000 0.14550  0.82110  0.80780  Biso   1.000  C
  C163     1.0000 0.35450  0.32110  0.69220  Biso   1.000  C
  C164     1.0000 0.85450  0.82110  0.69220  Biso   1.000  C
  C165     1.0000 0.35450  0.67890  0.19220  Biso   1.000  C
  C166     1.0000 0.85450  0.17890  0.19220  Biso   1.000  C
  C167     1.0000 0.64550  0.67890  0.30780  Biso   1.000  C
  C168     1.0000 0.14550  0.17890  0.30780  Biso   1.000  C
  H153     1.0000 0.61190  0.29860  0.78580  Biso   1.000  H
  H154     1.0000 0.11190  0.79860  0.78580  Biso   1.000  H
  H155     1.0000 0.38810  0.29860  0.71420  Biso   1.000  H
  H156     1.0000 0.88810  0.79860  0.71420  Biso   1.000  H
  H157     1.0000 0.38810  0.70140  0.21420  Biso   1.000  H
  H158     1.0000 0.88810  0.20140  0.21420  Biso   1.000  H
  H159     1.0000 0.61190  0.70140  0.28580  Biso   1.000  H
  H160     1.0000 0.11190  0.20140  0.28580  Biso   1.000  H
  H161     1.0000 0.66780  0.24450  0.80860  Biso   1.000  H
  H162     1.0000 0.16780  0.74450  0.80860  Biso   1.000  H
  H163     1.0000 0.33220  0.24450  0.69140  Biso   1.000  H
  H164     1.0000 0.83220  0.74450  0.69140  Biso   1.000  H
  H165     1.0000 0.33220  0.75550  0.19140  Biso   1.000  H
  H166     1.0000 0.83220  0.25550  0.19140  Biso   1.000  H
  H167     1.0000 0.66780  0.75550  0.30860  Biso   1.000  H
  H168     1.0000 0.16780  0.25550  0.30860  Biso   1.000  H
  C169     1.0000 0.67310  0.33250  0.91680  Biso   1.000  C
  C170     1.0000 0.17310  0.83250  0.91680  Biso   1.000  C
  C171     1.0000 0.32690  0.33250  0.58320  Biso   1.000  C
  C172     1.0000 0.82690  0.83250  0.58320  Biso   1.000  C
  C173     1.0000 0.32690  0.66750  0.08320  Biso   1.000  C
  C174     1.0000 0.82690  0.16750  0.08320  Biso   1.000  C
  C175     1.0000 0.67310  0.66750  0.41680  Biso   1.000  C
  C176     1.0000 0.17310  0.16750  0.41680  Biso   1.000  C
  H169     1.0000 0.70220  0.27860  0.91690  Biso   1.000  H
  H170     1.0000 0.20220  0.77860  0.91690  Biso   1.000  H
  H171     1.0000 0.29780  0.27860  0.58310  Biso   1.000  H
  H172     1.0000 0.79780  0.77860  0.58310  Biso   1.000  H
  H173     1.0000 0.29780  0.72140  0.08310  Biso   1.000  H
  H174     1.0000 0.79780  0.22140  0.08310  Biso   1.000  H
  H175     1.0000 0.70220  0.72140  0.41690  Biso   1.000  H
  H176     1.0000 0.20220  0.22140  0.41690  Biso   1.000  H
  C177     1.0000 0.60150  0.43730  0.88520  Biso   1.000  C
  C178     1.0000 0.10150  0.93730  0.88520  Biso   1.000  C
  C179     1.0000 0.39850  0.43730  0.61480  Biso   1.000  C
  C180     1.0000 0.89850  0.93730  0.61480  Biso   1.000  C
  C181     1.0000 0.39850  0.56270  0.11480  Biso   1.000  C
  C182     1.0000 0.89850  0.06270  0.11480  Biso   1.000  C
  C183     1.0000 0.60150  0.56270  0.38520  Biso   1.000  C
  C184     1.0000 0.10150  0.06270  0.38520  Biso   1.000  C
  H177     1.0000 0.57240  0.47020  0.86140  Biso   1.000  H
  H178     1.0000 0.07240  0.97020  0.86140  Biso   1.000  H
  H179     1.0000 0.42760  0.47020  0.63860  Biso   1.000  H
  H180     1.0000 0.92760  0.97020  0.63860  Biso   1.000  H
  H181     1.0000 0.42760  0.52980  0.13860  Biso   1.000  H
  H182     1.0000 0.92760  0.02980  0.13860  Biso   1.000  H
  H183     1.0000 0.57240  0.52980  0.36140  Biso   1.000  H
  H184     1.0000 0.07240  0.02980  0.36140  Biso   1.000  H
  C185     1.0000 0.61580  0.45990  0.94450  Biso   1.000  C
  C186     1.0000 0.11580  0.95990  0.94450  Biso   1.000  C
  C187     1.0000 0.38420  0.45990  0.55550  Biso   1.000  C
  C188     1.0000 0.88420  0.95990  0.55550  Biso   1.000  C
  C189     1.0000 0.38420  0.54010  0.05550  Biso   1.000  C
  C190     1.0000 0.88420  0.04010  0.05550  Biso   1.000  C
  C191     1.0000 0.61580  0.54010  0.44450  Biso   1.000  C
  C192     1.0000 0.11580  0.04010  0.44450  Biso   1.000  C
  H185     1.0000 0.59740  0.51240  0.96800  Biso   1.000  H
  H186     1.0000 0.09740  0.01240  0.96800  Biso   1.000  H
  H187     1.0000 0.40260  0.51240  0.53200  Biso   1.000  H
  H188     1.0000 0.90260  0.01240  0.53200  Biso   1.000  H
  H189     1.0000 0.40260  0.48760  0.03200  Biso   1.000  H
  H190     1.0000 0.90260  0.98760  0.03200  Biso   1.000  H
  H191     1.0000 0.59740  0.48760  0.46800  Biso   1.000  H
  H192     1.0000 0.09740  0.98760  0.46800  Biso   1.000  H
  N1       1.0000 0.46232  0.11120  0.66905  Biso   1.000  N
  N2       1.0000 0.96232  0.61120  0.66905  Biso   1.000  N
  N3       1.0000 0.53768  0.11120  0.83095  Biso   1.000  N
  N4       1.0000 0.03768  0.61120  0.83095  Biso   1.000  N
  N5       1.0000 0.53768  0.88880  0.33095  Biso   1.000  N
  N6       1.0000 0.03768  0.38880  0.33095  Biso   1.000  N
  N7       1.0000 0.46232  0.88880  0.16905  Biso   1.000  N
  N8       1.0000 0.96232  0.38880  0.16905  Biso   1.000  N
  N9       1.0000 0.44578  0.12270  0.57252  Biso   1.000  N
  N10      1.0000 0.94578  0.62270  0.57252  Biso   1.000  N
  N11      1.0000 0.55422  0.12270  0.92748  Biso   1.000  N
  N12      1.0000 0.05422  0.62270  0.92748  Biso   1.000  N
  N13      1.0000 0.55422  0.87730  0.42748  Biso   1.000  N
  N14      1.0000 0.05422  0.37730  0.42748  Biso   1.000  N
  N15      1.0000 0.44578  0.87730  0.07252  Biso   1.000  N
  N16      1.0000 0.94578  0.37730  0.07252  Biso   1.000  N
  N17      1.0000 0.74143  0.57270  0.62309  Biso   1.000  N
  N18      1.0000 0.24143  0.07270  0.62309  Biso   1.000  N
  N19      1.0000 0.25857  0.57270  0.87691  Biso   1.000  N
  N20      1.0000 0.75857  0.07270  0.87691  Biso   1.000  N
  N21      1.0000 0.25857  0.42730  0.37691  Biso   1.000  N
  N22      1.0000 0.75857  0.92730  0.37691  Biso   1.000  N
  N23      1.0000 0.74143  0.42730  0.12309  Biso   1.000  N
  N24      1.0000 0.24143  0.92730  0.12309  Biso   1.000  N
  N25      1.0000 0.75187  0.57460  0.72025  Biso   1.000  N
  N26      1.0000 0.25187  0.07460  0.72025  Biso   1.000  N
  N27      1.0000 0.24813  0.57460  0.77975  Biso   1.000  N
  N28      1.0000 0.74813  0.07460  0.77975  Biso   1.000  N
  N29      1.0000 0.24813  0.42540  0.27975  Biso   1.000  N
  N30      1.0000 0.74813  0.92540  0.27975  Biso   1.000  N
  N31      1.0000 0.75187  0.42540  0.22025  Biso   1.000  N
  N32      1.0000 0.25187  0.92540  0.22025  Biso   1.000  N
  N33      1.0000 0.63848  0.35740  0.86883  Biso   1.000  N
  N34      1.0000 0.13848  0.85740  0.86883  Biso   1.000  N
  N35      1.0000 0.36152  0.35740  0.63117  Biso   1.000  N
  N36      1.0000 0.86152  0.85740  0.63117  Biso   1.000  N
  N37      1.0000 0.36152  0.64260  0.13117  Biso   1.000  N
  N38      1.0000 0.86152  0.14260  0.13117  Biso   1.000  N
  N39      1.0000 0.63848  0.64260  0.36883  Biso   1.000  N
  N40      1.0000 0.13848  0.14260  0.36883  Biso   1.000  N
  N41      1.0000 0.66059  0.39430  0.96383  Biso   1.000  N
  N42      1.0000 0.16059  0.89430  0.96383  Biso   1.000  N
  N43      1.0000 0.33941  0.39430  0.53617  Biso   1.000  N
  N44      1.0000 0.83941  0.89430  0.53617  Biso   1.000  N
  N45      1.0000 0.33941  0.60570  0.03617  Biso   1.000  N
  N46      1.0000 0.83941  0.10570  0.03617  Biso   1.000  N
  N47      1.0000 0.66059  0.60570  0.46383  Biso   1.000  N
  N48      1.0000 0.16059  0.10570  0.46383  Biso   1.000  N
  O1       1.0000 0.69143  0.77380  0.56318  Biso   1.000  O
  O2       1.0000 0.19143  0.27380  0.56318  Biso   1.000  O
  O3       1.0000 0.30857  0.77380  0.93682  Biso   1.000  O
  O4       1.0000 0.80857  0.27380  0.93682  Biso   1.000  O
  O5       1.0000 0.30857  0.22620  0.43682  Biso   1.000  O
  O6       1.0000 0.80857  0.72620  0.43682  Biso   1.000  O
  O7       1.0000 0.69143  0.22620  0.06318  Biso   1.000  O
  O8       1.0000 0.19143  0.72620  0.06318  Biso   1.000  O
  O9       1.0000 0.71738  0.91290  0.49739  Biso   1.000  O
  O10      1.0000 0.21738  0.41290  0.49739  Biso   1.000  O
  O11      1.0000 0.28262  0.91290  0.00261  Biso   1.000  O
  O12      1.0000 0.78262  0.41290  0.00261  Biso   1.000  O
  O13      1.0000 0.28262  0.08710  0.50261  Biso   1.000  O
  O14      1.0000 0.78262  0.58710  0.50261  Biso   1.000  O
  O15      1.0000 0.71738  0.08710  0.99739  Biso   1.000  O
  O16      1.0000 0.21738  0.58710  0.99739  Biso   1.000  O
  O17      1.0000 0.69867  0.39530  0.53913  Biso   1.000  O
  O18      1.0000 0.19867  0.89530  0.53913  Biso   1.000  O
  O19      1.0000 0.30133  0.39530  0.96087  Biso   1.000  O
  O20      1.0000 0.80133  0.89530  0.96087  Biso   1.000  O
  O21      1.0000 0.30133  0.60470  0.46087  Biso   1.000  O
  O22      1.0000 0.80133  0.10470  0.46087  Biso   1.000  O
  O23      1.0000 0.69867  0.60470  0.03913  Biso   1.000  O
  O24      1.0000 0.19867  0.10470  0.03913  Biso   1.000  O
  O25      1.0000 0.63244  0.45140  0.58617  Biso   1.000  O
  O26      1.0000 0.13244  0.95140  0.58617  Biso   1.000  O
  O27      1.0000 0.36756  0.45140  0.91383  Biso   1.000  O
  O28      1.0000 0.86756  0.95140  0.91383  Biso   1.000  O
  O29      1.0000 0.36756  0.54860  0.41383  Biso   1.000  O
  O30      1.0000 0.86756  0.04860  0.41383  Biso   1.000  O
  O31      1.0000 0.63244  0.54860  0.08617  Biso   1.000  O
  O32      1.0000 0.13244  0.04860  0.08617  Biso   1.000  O
  O33      1.0000 0.56468  0.13370  0.71581  Biso   1.000  O
  O34      1.0000 0.06468  0.63370  0.71581  Biso   1.000  O
  O35      1.0000 0.43532  0.13370  0.78419  Biso   1.000  O
  O36      1.0000 0.93532  0.63370  0.78419  Biso   1.000  O
  O37      1.0000 0.43532  0.86630  0.28419  Biso   1.000  O
  O38      1.0000 0.93532  0.36630  0.28419  Biso   1.000  O
  O39      1.0000 0.56468  0.86630  0.21581  Biso   1.000  O
  O40      1.0000 0.06468  0.36630  0.21581  Biso   1.000  O
  O41      1.0000 0.57180  0.92260  0.70040  Biso   1.000  O
  O42      1.0000 0.07180  0.42260  0.70040  Biso   1.000  O
  O43      1.0000 0.42820  0.92260  0.79960  Biso   1.000  O
  O44      1.0000 0.92820  0.42260  0.79960  Biso   1.000  O
  O45      1.0000 0.42820  0.07740  0.29960  Biso   1.000  O
  O46      1.0000 0.92820  0.57740  0.29960  Biso   1.000  O
  O47      1.0000 0.57180  0.07740  0.20040  Biso   1.000  O
  O48      1.0000 0.07180  0.57740  0.20040  Biso   1.000  O
  O49      1.0000 0.50000  0.35820  0.75000  Biso   1.000  O
  O50      1.0000 0.00000  0.85820  0.75000  Biso   1.000  O
  O51      1.0000 0.50000  0.64180  0.25000  Biso   1.000  O
  O52      1.0000 0.00000  0.14180  0.25000  Biso   1.000  O
  O53      1.0000 0.70080  0.28010  0.42410  Biso   1.000  O
  O54      1.0000 0.20080  0.78010  0.42410  Biso   1.000  O
  O55      1.0000 0.29920  0.28010  0.07590  Biso   1.000  O
  O56      1.0000 0.79920  0.78010  0.07590  Biso   1.000  O
  O57      1.0000 0.29920  0.71990  0.57590  Biso   1.000  O
  O58      1.0000 0.79920  0.21990  0.57590  Biso   1.000  O
  O59      1.0000 0.70080  0.71990  0.92410  Biso   1.000  O
  O60      1.0000 0.20080  0.21990  0.92410  Biso   1.000  O
  O61      1.0000 0.55430  0.49910  0.66260  Biso   1.000  O
  O62      1.0000 0.05430  0.99910  0.66260  Biso   1.000  O
  O63      1.0000 0.44570  0.49910  0.83740  Biso   1.000  O
  O64      1.0000 0.94570  0.99910  0.83740  Biso   1.000  O
  O65      1.0000 0.44570  0.50090  0.33740  Biso   1.000  O
  O66      1.0000 0.94570  0.00090  0.33740  Biso   1.000  O
  O67      1.0000 0.55430  0.50090  0.16260  Biso   1.000  O
  O68      1.0000 0.05430  0.00090  0.16260  Biso   1.000  O
  O69      1.0000 0.62130  0.72220  0.72870  Biso   1.000  O
  O70      1.0000 0.12130  0.22220  0.72870  Biso   1.000  O
  O71      1.0000 0.37870  0.72220  0.77130  Biso   1.000  O
  O72      1.0000 0.87870  0.22220  0.77130  Biso   1.000  O
  O73      1.0000 0.37870  0.27780  0.27130  Biso   1.000  O
  O74      1.0000 0.87870  0.77780  0.27130  Biso   1.000  O
  O75      1.0000 0.62130  0.27780  0.22870  Biso   1.000  O
  O76      1.0000 0.12130  0.77780  0.22870  Biso   1.000  O
  O77      1.0000 0.49600  0.73320  0.63470  Biso   1.000  O
  O78      1.0000 0.99600  0.23320  0.63470  Biso   1.000  O
  O79      1.0000 0.50400  0.73320  0.86530  Biso   1.000  O
  O80      1.0000 0.00400  0.23320  0.86530  Biso   1.000  O
  O81      1.0000 0.50400  0.26680  0.36530  Biso   1.000  O
  O82      1.0000 0.00400  0.76680  0.36530  Biso   1.000  O
  O83      1.0000 0.49600  0.26680  0.13470  Biso   1.000  O
  O84      1.0000 0.99600  0.76680  0.13470  Biso   1.000  O
  Cu1      1.0000 0.70410  0.59256  0.54121  Biso   1.000  Cu
  Cu2      1.0000 0.20410  0.09256  0.54121  Biso   1.000  Cu
  Cu3      1.0000 0.29590  0.59256  0.95879  Biso   1.000  Cu
  Cu4      1.0000 0.79590  0.09256  0.95879  Biso   1.000  Cu
  Cu5      1.0000 0.29590  0.40744  0.45879  Biso   1.000  Cu
  Cu6      1.0000 0.79590  0.90744  0.45879  Biso   1.000  Cu
  Cu7      1.0000 0.70410  0.40744  0.04121  Biso   1.000  Cu
  Cu8      1.0000 0.20410  0.90744  0.04121  Biso   1.000  Cu
  Cu9      1.0000 0.50000  0.13042  0.75000  Biso   1.000  Cu
  Cu10     1.0000 0.00000  0.63042  0.75000  Biso   1.000  Cu
  Cu11     1.0000 0.50000  0.86958  0.25000  Biso   1.000  Cu
  Cu12     1.0000 0.00000  0.36958  0.25000  Biso   1.000  Cu
  H193     1.0000 0.70200  0.33300  0.45900  Biso   1.000  H
  H194     1.0000 0.20200  0.83300  0.45900  Biso   1.000  H
  H195     1.0000 0.29800  0.33300  0.04100  Biso   1.000  H
  H196     1.0000 0.79800  0.83300  0.04100  Biso   1.000  H
  H197     1.0000 0.29800  0.66700  0.54100  Biso   1.000  H
  H198     1.0000 0.79800  0.16700  0.54100  Biso   1.000  H
  H199     1.0000 0.70200  0.66700  0.95900  Biso   1.000  H
  H200     1.0000 0.20200  0.16700  0.95900  Biso   1.000  H
  H201     1.0000 0.73560  0.27800  0.41600  Biso   1.000  H
  H202     1.0000 0.23560  0.77800  0.41600  Biso   1.000  H
  H203     1.0000 0.26440  0.27800  0.08400  Biso   1.000  H
  H204     1.0000 0.76440  0.77800  0.08400  Biso   1.000  H
  H205     1.0000 0.26440  0.72200  0.58400  Biso   1.000  H
  H206     1.0000 0.76440  0.22200  0.58400  Biso   1.000  H
  H207     1.0000 0.73560  0.72200  0.91600  Biso   1.000  H
  H208     1.0000 0.23560  0.22200  0.91600  Biso   1.000  H
  H209     1.0000 0.52510  0.53900  0.67200  Biso   1.000  H
  H210     1.0000 0.02510  0.03900  0.67200  Biso   1.000  H
  H211     1.0000 0.47490  0.53900  0.82800  Biso   1.000  H
  H212     1.0000 0.97490  0.03900  0.82800  Biso   1.000  H
  H213     1.0000 0.47490  0.46100  0.32800  Biso   1.000  H
  H214     1.0000 0.97490  0.96100  0.32800  Biso   1.000  H
  H215     1.0000 0.52510  0.46100  0.17200  Biso   1.000  H
  H216     1.0000 0.02510  0.96100  0.17200  Biso   1.000  H
  H217     1.0000 0.57640  0.56100  0.65300  Biso   1.000  H
  H218     1.0000 0.07640  0.06100  0.65300  Biso   1.000  H
  H219     1.0000 0.42360  0.56100  0.84700  Biso   1.000  H
  H220     1.0000 0.92360  0.06100  0.84700  Biso   1.000  H
  H221     1.0000 0.42360  0.43900  0.34700  Biso   1.000  H
  H222     1.0000 0.92360  0.93900  0.34700  Biso   1.000  H
  H223     1.0000 0.57640  0.43900  0.15300  Biso   1.000  H
  H224     1.0000 0.07640  0.93900  0.15300  Biso   1.000  H
  H225     1.0000 0.60900  0.80600  0.71800  Biso   1.000  H
  H226     1.0000 0.10900  0.30600  0.71800  Biso   1.000  H
  H227     1.0000 0.39100  0.80600  0.78200  Biso   1.000  H
  H228     1.0000 0.89100  0.30600  0.78200  Biso   1.000  H
  H229     1.0000 0.39100  0.19400  0.28200  Biso   1.000  H
  H230     1.0000 0.89100  0.69400  0.28200  Biso   1.000  H
  H231     1.0000 0.60900  0.19400  0.21800  Biso   1.000  H
  H232     1.0000 0.10900  0.69400  0.21800  Biso   1.000  H
  H233     1.0000 0.61400  0.67200  0.69300  Biso   1.000  H
  H234     1.0000 0.11400  0.17200  0.69300  Biso   1.000  H
  H235     1.0000 0.38600  0.67200  0.80700  Biso   1.000  H
  H236     1.0000 0.88600  0.17200  0.80700  Biso   1.000  H
  H237     1.0000 0.38600  0.32800  0.30700  Biso   1.000  H
  H238     1.0000 0.88600  0.82800  0.30700  Biso   1.000  H
  H239     1.0000 0.61400  0.32800  0.19300  Biso   1.000  H
  H240     1.0000 0.11400  0.82800  0.19300  Biso   1.000  H
  H241     1.0000 0.47000  0.72100  0.60400  Biso   1.000  H
  H242     1.0000 0.97000  0.22100  0.60400  Biso   1.000  H
  H243     1.0000 0.53000  0.72100  0.89600  Biso   1.000  H
  H244     1.0000 0.03000  0.22100  0.89600  Biso   1.000  H
  H245     1.0000 0.53000  0.27900  0.39600  Biso   1.000  H
  H246     1.0000 0.03000  0.77900  0.39600  Biso   1.000  H
  H247     1.0000 0.47000  0.27900  0.10400  Biso   1.000  H
  H248     1.0000 0.97000  0.77900  0.10400  Biso   1.000  H
  H249     1.0000 0.49500  0.65600  0.65700  Biso   1.000  H
  H250     1.0000 0.99500  0.15600  0.65700  Biso   1.000  H
  H251     1.0000 0.50500  0.65600  0.84300  Biso   1.000  H
  H252     1.0000 0.00500  0.15600  0.84300  Biso   1.000  H
  H253     1.0000 0.50500  0.34400  0.34300  Biso   1.000  H
  H254     1.0000 0.00500  0.84400  0.34300  Biso   1.000  H
  H255     1.0000 0.49500  0.34400  0.15700  Biso   1.000  H
  H256     1.0000 0.99500  0.84400  0.15700  Biso   1.000  H
  H257     1.0000 0.52890  0.39400  0.74360  Biso   1.000  H
  H258     1.0000 0.02890  0.89400  0.74360  Biso   1.000  H
  H259     1.0000 0.47110  0.39400  0.75640  Biso   1.000  H
  H260     1.0000 0.97110  0.89400  0.75640  Biso   1.000  H
  H261     1.0000 0.47110  0.60600  0.25640  Biso   1.000  H
  H262     1.0000 0.97110  0.10600  0.25640  Biso   1.000  H
  H263     1.0000 0.52890  0.60600  0.24360  Biso   1.000  H
  H264     1.0000 0.02890  0.10600  0.24360  Biso   1.000  H
  H265     1.0000 0.48300  0.42500  0.76600  Biso   1.000  H
  H266     1.0000 0.98300  0.92500  0.76600  Biso   1.000  H
  H267     1.0000 0.51700  0.42500  0.73400  Biso   1.000  H
  H268     1.0000 0.01700  0.92500  0.73400  Biso   1.000  H
  H269     1.0000 0.51700  0.57500  0.23400  Biso   1.000  H
  H270     1.0000 0.01700  0.07500  0.23400  Biso   1.000  H
  H271     1.0000 0.48300  0.57500  0.26600  Biso   1.000  H
  H272     1.0000 0.98300  0.07500  0.26600  Biso   1.000  H
