data_image0
_cell_length_a       8.9493
_cell_length_b       9.621
_cell_length_c       7.059
_cell_angle_alpha    90
_cell_angle_beta     89.829
_cell_angle_gamma    90

_symmetry_space_group_name_H-M    "P 1"
_symmetry_int_tables_number       1

loop_
  _symmetry_equiv_pos_as_xyz
  'x, y, z'

loop_
  _atom_site_label
  _atom_site_occupancy
  _atom_site_fract_x
  _atom_site_fract_y
  _atom_site_fract_z
  _atom_site_thermal_displace_type
  _atom_site_B_iso_or_equiv
  _atom_site_type_symbol
  Cu1      1.0000 0.24400  0.00660  0.85680  Biso   1.000  Cu
  Cu2      1.0000 0.74400  0.50660  0.85680  Biso   1.000  Cu
  Cu3      1.0000 0.75600  0.00660  0.14320  Biso   1.000  Cu
  Cu4      1.0000 0.25600  0.50660  0.14320  Biso   1.000  Cu
  C1       1.0000 0.32650  0.76600  0.68200  Biso   1.000  C
  C2       1.0000 0.82650  0.26600  0.68200  Biso   1.000  C
  C3       1.0000 0.67350  0.76600  0.31800  Biso   1.000  C
  C4       1.0000 0.17350  0.26600  0.31800  Biso   1.000  C
  C5       1.0000 0.22620  0.83770  0.53800  Biso   1.000  C
  C6       1.0000 0.72620  0.33770  0.53800  Biso   1.000  C
  C7       1.0000 0.77380  0.83770  0.46200  Biso   1.000  C
  C8       1.0000 0.27380  0.33770  0.46200  Biso   1.000  C
  C9       1.0000 0.32400  0.91170  0.39600  Biso   1.000  C
  C10      1.0000 0.82400  0.41170  0.39600  Biso   1.000  C
  C11      1.0000 0.67600  0.91170  0.60400  Biso   1.000  C
  C12      1.0000 0.17600  0.41170  0.60400  Biso   1.000  C
  C13      1.0000 0.25190  0.94860  0.20700  Biso   1.000  C
  C14      1.0000 0.75190  0.44860  0.20700  Biso   1.000  C
  C15      1.0000 0.74810  0.94860  0.79300  Biso   1.000  C
  C16      1.0000 0.24810  0.44860  0.79300  Biso   1.000  C
  O1       1.0000 0.34860  0.83030  0.84000  Biso   1.000  O
  O2       1.0000 0.84860  0.33030  0.84000  Biso   1.000  O
  O3       1.0000 0.65140  0.83030  0.16000  Biso   1.000  O
  O4       1.0000 0.15140  0.33030  0.16000  Biso   1.000  O
  O5       1.0000 0.39020  0.65630  0.64000  Biso   1.000  O
  O6       1.0000 0.89020  0.15630  0.64000  Biso   1.000  O
  O7       1.0000 0.60980  0.65630  0.36000  Biso   1.000  O
  O8       1.0000 0.10980  0.15630  0.36000  Biso   1.000  O
  O9       1.0000 0.32710  0.03510  0.10800  Biso   1.000  O
  O10      1.0000 0.82710  0.53510  0.10800  Biso   1.000  O
  O11      1.0000 0.67290  0.03510  0.89200  Biso   1.000  O
  O12      1.0000 0.17290  0.53510  0.89200  Biso   1.000  O
  O13      1.0000 0.13470  0.89240  0.15500  Biso   1.000  O
  O14      1.0000 0.63470  0.39240  0.15500  Biso   1.000  O
  O15      1.0000 0.86530  0.89240  0.84500  Biso   1.000  O
  O16      1.0000 0.36530  0.39240  0.84500  Biso   1.000  O
  O17      1.0000 0.12820  0.17400  0.85900  Biso   1.000  O
  O18      1.0000 0.62820  0.67400  0.85900  Biso   1.000  O
  O19      1.0000 0.87180  0.17400  0.14100  Biso   1.000  O
  O20      1.0000 0.37180  0.67400  0.14100  Biso   1.000  O
  O21      1.0000 0.43160  0.13280  0.75000  Biso   1.000  O
  O22      1.0000 0.93160  0.63280  0.75000  Biso   1.000  O
  O23      1.0000 0.56840  0.13280  0.25000  Biso   1.000  O
  O24      1.0000 0.06840  0.63280  0.25000  Biso   1.000  O
  N1       1.0000 0.13210  0.94060  0.64000  Biso   1.000  N
  N2       1.0000 0.63210  0.44060  0.64000  Biso   1.000  N
  N3       1.0000 0.86790  0.94060  0.36000  Biso   1.000  N
  N4       1.0000 0.36790  0.44060  0.36000  Biso   1.000  N
  H1       1.0000 0.36110  0.99550  0.45440  Biso   1.000  H
  H2       1.0000 0.86110  0.49550  0.45440  Biso   1.000  H
  H3       1.0000 0.63890  0.99550  0.54560  Biso   1.000  H
  H4       1.0000 0.13890  0.49550  0.54560  Biso   1.000  H
  H5       1.0000 0.40680  0.84980  0.36730  Biso   1.000  H
  H6       1.0000 0.90680  0.34980  0.36730  Biso   1.000  H
  H7       1.0000 0.59320  0.84980  0.63270  Biso   1.000  H
  H8       1.0000 0.09320  0.34980  0.63270  Biso   1.000  H
  H9       1.0000 0.16180  0.76920  0.47460  Biso   1.000  H
  H10      1.0000 0.66180  0.26920  0.47460  Biso   1.000  H
  H11      1.0000 0.83820  0.76920  0.52540  Biso   1.000  H
  H12      1.0000 0.33820  0.26920  0.52540  Biso   1.000  H
  H13      1.0000 0.11190  0.00870  0.56650  Biso   1.000  H
  H14      1.0000 0.61190  0.50870  0.56650  Biso   1.000  H
  H15      1.0000 0.88810  0.00870  0.43350  Biso   1.000  H
  H16      1.0000 0.38810  0.50870  0.43350  Biso   1.000  H
  H17      1.0000 0.05000  0.90250  0.67840  Biso   1.000  H
  H18      1.0000 0.55000  0.40250  0.67840  Biso   1.000  H
  H19      1.0000 0.95000  0.90250  0.32160  Biso   1.000  H
  H20      1.0000 0.45000  0.40250  0.32160  Biso   1.000  H
  H21      1.0000 0.41120  0.21750  0.73720  Biso   1.000  H
  H22      1.0000 0.91120  0.71750  0.73720  Biso   1.000  H
  H23      1.0000 0.58880  0.21750  0.26280  Biso   1.000  H
  H24      1.0000 0.08880  0.71750  0.26280  Biso   1.000  H
  H25      1.0000 0.50800  0.12860  0.81850  Biso   1.000  H
  H26      1.0000 0.00800  0.62860  0.81850  Biso   1.000  H
  H27      1.0000 0.49200  0.12860  0.18150  Biso   1.000  H
  H28      1.0000 0.99200  0.62860  0.18150  Biso   1.000  H
  H29      1.0000 0.15080  0.24190  0.92760  Biso   1.000  H
  H30      1.0000 0.65080  0.74190  0.92760  Biso   1.000  H
  H31      1.0000 0.84920  0.24190  0.07240  Biso   1.000  H
  H32      1.0000 0.34920  0.74190  0.07240  Biso   1.000  H
  H33      1.0000 0.03890  0.18400  0.82480  Biso   1.000  H
  H34      1.0000 0.53890  0.68400  0.82480  Biso   1.000  H
  H35      1.0000 0.96110  0.18400  0.17520  Biso   1.000  H
  H36      1.0000 0.46110  0.68400  0.17520  Biso   1.000  H
