data_image0
_cell_length_a       8.9747
_cell_length_b       9.5739
_cell_length_c       7.2465
_cell_angle_alpha    90
_cell_angle_beta     91.332
_cell_angle_gamma    90

_symmetry_space_group_name_H-M    "P 1"
_symmetry_int_tables_number       1

loop_
  _symmetry_equiv_pos_as_xyz
  'x, y, z'

loop_
  _atom_site_label
  _atom_site_occupancy
  _atom_site_fract_x
  _atom_site_fract_y
  _atom_site_fract_z
  _atom_site_thermal_displace_type
  _atom_site_B_iso_or_equiv
  _atom_site_type_symbol
  Cu1      1.0000 0.24203  0.00677  0.86260  Biso   1.000  Cu
  Cu2      1.0000 0.74203  0.50677  0.86260  Biso   1.000  Cu
  Cu3      1.0000 0.75797  0.00677  0.13740  Biso   1.000  Cu
  Cu4      1.0000 0.25797  0.50677  0.13740  Biso   1.000  Cu
  C1       1.0000 0.32340  0.77020  0.68240  Biso   1.000  C
  C2       1.0000 0.82340  0.27020  0.68240  Biso   1.000  C
  C3       1.0000 0.67660  0.77020  0.31760  Biso   1.000  C
  C4       1.0000 0.17660  0.27020  0.31760  Biso   1.000  C
  C5       1.0000 0.22350  0.84320  0.54180  Biso   1.000  C
  C6       1.0000 0.72350  0.34320  0.54180  Biso   1.000  C
  C7       1.0000 0.77650  0.84320  0.45820  Biso   1.000  C
  C8       1.0000 0.27650  0.34320  0.45820  Biso   1.000  C
  C9       1.0000 0.32100  0.91430  0.40250  Biso   1.000  C
  C10      1.0000 0.82100  0.41430  0.40250  Biso   1.000  C
  C11      1.0000 0.67900  0.91430  0.59750  Biso   1.000  C
  C12      1.0000 0.17900  0.41430  0.59750  Biso   1.000  C
  C13      1.0000 0.24960  0.94430  0.21330  Biso   1.000  C
  C14      1.0000 0.74960  0.44430  0.21330  Biso   1.000  C
  C15      1.0000 0.75040  0.94430  0.78670  Biso   1.000  C
  C16      1.0000 0.25040  0.44430  0.78670  Biso   1.000  C
  O1       1.0000 0.34110  0.82910  0.84040  Biso   1.000  O
  O2       1.0000 0.84110  0.32910  0.84040  Biso   1.000  O
  O3       1.0000 0.65890  0.82910  0.15960  Biso   1.000  O
  O4       1.0000 0.15890  0.32910  0.15960  Biso   1.000  O
  O5       1.0000 0.39090  0.66280  0.63750  Biso   1.000  O
  O6       1.0000 0.89090  0.16280  0.63750  Biso   1.000  O
  O7       1.0000 0.60910  0.66280  0.36250  Biso   1.000  O
  O8       1.0000 0.10910  0.16280  0.36250  Biso   1.000  O
  O9       1.0000 0.32340  0.02490  0.10940  Biso   1.000  O
  O10      1.0000 0.82340  0.52490  0.10940  Biso   1.000  O
  O11      1.0000 0.67660  0.02490  0.89060  Biso   1.000  O
  O12      1.0000 0.17660  0.52490  0.89060  Biso   1.000  O
  O13      1.0000 0.12730  0.89150  0.16580  Biso   1.000  O
  O14      1.0000 0.62730  0.39150  0.16580  Biso   1.000  O
  O15      1.0000 0.87270  0.89150  0.83420  Biso   1.000  O
  O16      1.0000 0.37270  0.39150  0.83420  Biso   1.000  O
  O17      1.0000 0.12540  0.17370  0.86830  Biso   1.000  O
  O18      1.0000 0.62540  0.67370  0.86830  Biso   1.000  O
  O19      1.0000 0.87460  0.17370  0.13170  Biso   1.000  O
  O20      1.0000 0.37460  0.67370  0.13170  Biso   1.000  O
  O21      1.0000 0.43120  0.12790  0.74620  Biso   1.000  O
  O22      1.0000 0.93120  0.62790  0.74620  Biso   1.000  O
  O23      1.0000 0.56880  0.12790  0.25380  Biso   1.000  O
  O24      1.0000 0.06880  0.62790  0.25380  Biso   1.000  O
  N1       1.0000 0.13500  0.95090  0.63950  Biso   1.000  N
  N2       1.0000 0.63500  0.45090  0.63950  Biso   1.000  N
  N3       1.0000 0.86500  0.95090  0.36050  Biso   1.000  N
  N4       1.0000 0.36500  0.45090  0.36050  Biso   1.000  N
  H1       1.0000 0.35300  0.00300  0.45490  Biso   1.000  H
  H2       1.0000 0.85300  0.50300  0.45490  Biso   1.000  H
  H3       1.0000 0.64700  0.00300  0.54510  Biso   1.000  H
  H4       1.0000 0.14700  0.50300  0.54510  Biso   1.000  H
  H5       1.0000 0.40710  0.85540  0.38400  Biso   1.000  H
  H6       1.0000 0.90710  0.35540  0.38400  Biso   1.000  H
  H7       1.0000 0.59290  0.85540  0.61600  Biso   1.000  H
  H8       1.0000 0.09290  0.35540  0.61600  Biso   1.000  H
  H9       1.0000 0.15720  0.77580  0.47930  Biso   1.000  H
  H10      1.0000 0.65720  0.27580  0.47930  Biso   1.000  H
  H11      1.0000 0.84280  0.77580  0.52070  Biso   1.000  H
  H12      1.0000 0.34280  0.27580  0.52070  Biso   1.000  H
  H13      1.0000 0.12230  0.02210  0.56890  Biso   1.000  H
  H14      1.0000 0.62230  0.52210  0.56890  Biso   1.000  H
  H15      1.0000 0.87770  0.02210  0.43110  Biso   1.000  H
  H16      1.0000 0.37770  0.52210  0.43110  Biso   1.000  H
  H17      1.0000 0.05020  0.91640  0.66720  Biso   1.000  H
  H18      1.0000 0.55020  0.41640  0.66720  Biso   1.000  H
  H19      1.0000 0.94980  0.91640  0.33280  Biso   1.000  H
  H20      1.0000 0.44980  0.41640  0.33280  Biso   1.000  H
  H21      1.0000 0.41750  0.20950  0.78470  Biso   1.000  H
  H22      1.0000 0.91750  0.70950  0.78470  Biso   1.000  H
  H23      1.0000 0.58250  0.20950  0.21530  Biso   1.000  H
  H24      1.0000 0.08250  0.70950  0.21530  Biso   1.000  H
  H25      1.0000 0.51150  0.10100  0.79660  Biso   1.000  H
  H26      1.0000 0.01150  0.60100  0.79660  Biso   1.000  H
  H27      1.0000 0.48850  0.10100  0.20340  Biso   1.000  H
  H28      1.0000 0.98850  0.60100  0.20340  Biso   1.000  H
  H29      1.0000 0.13810  0.24480  0.93470  Biso   1.000  H
  H30      1.0000 0.63810  0.74480  0.93470  Biso   1.000  H
  H31      1.0000 0.86190  0.24480  0.06530  Biso   1.000  H
  H32      1.0000 0.36190  0.74480  0.06530  Biso   1.000  H
  H33      1.0000 0.03560  0.17030  0.83330  Biso   1.000  H
  H34      1.0000 0.53560  0.67030  0.83330  Biso   1.000  H
  H35      1.0000 0.96440  0.17030  0.16670  Biso   1.000  H
  H36      1.0000 0.46440  0.67030  0.16670  Biso   1.000  H
