data_image0
_cell_length_a       9.5172
_cell_length_b       10.0418
_cell_length_c       7.5621
_cell_angle_alpha    90
_cell_angle_beta     93.984
_cell_angle_gamma    90

_symmetry_space_group_name_H-M    "P 1"
_symmetry_int_tables_number       1

loop_
  _symmetry_equiv_pos_as_xyz
  'x, y, z'

loop_
  _atom_site_label
  _atom_site_occupancy
  _atom_site_fract_x
  _atom_site_fract_y
  _atom_site_fract_z
  _atom_site_thermal_displace_type
  _atom_site_B_iso_or_equiv
  _atom_site_type_symbol
  Cu1      1.0000 0.23637  0.00044  0.87457  Biso   1.000  Cu
  Cu2      1.0000 0.73637  0.50044  0.87457  Biso   1.000  Cu
  Cu3      1.0000 0.76363  0.00044  0.12543  Biso   1.000  Cu
  Cu4      1.0000 0.26363  0.50044  0.12543  Biso   1.000  Cu
  O1       1.0000 0.32890  0.82851  0.84580  Biso   1.000  O
  O2       1.0000 0.82890  0.32851  0.84580  Biso   1.000  O
  O3       1.0000 0.67110  0.82851  0.15420  Biso   1.000  O
  O4       1.0000 0.17110  0.32851  0.15420  Biso   1.000  O
  O5       1.0000 0.38990  0.68340  0.64490  Biso   1.000  O
  O6       1.0000 0.88990  0.18340  0.64490  Biso   1.000  O
  O7       1.0000 0.61010  0.68340  0.35510  Biso   1.000  O
  O8       1.0000 0.11010  0.18340  0.35510  Biso   1.000  O
  O9       1.0000 0.30706  0.00810  0.12264  Biso   1.000  O
  O10      1.0000 0.80706  0.50810  0.12264  Biso   1.000  O
  O11      1.0000 0.69294  0.00810  0.87736  Biso   1.000  O
  O12      1.0000 0.19294  0.50810  0.87736  Biso   1.000  O
  O13      1.0000 0.11850  0.89240  0.19150  Biso   1.000  O
  O14      1.0000 0.61850  0.39240  0.19150  Biso   1.000  O
  O15      1.0000 0.88150  0.89240  0.80850  Biso   1.000  O
  O16      1.0000 0.38150  0.39240  0.80850  Biso   1.000  O
  O17      1.0000 0.12850  0.16570  0.87690  Biso   1.000  O
  O18      1.0000 0.62850  0.66570  0.87690  Biso   1.000  O
  O19      1.0000 0.87150  0.16570  0.12310  Biso   1.000  O
  O20      1.0000 0.37150  0.66570  0.12310  Biso   1.000  O
  O21      1.0000 0.42700  0.11470  0.77700  Biso   1.000  O
  O22      1.0000 0.92700  0.61470  0.77700  Biso   1.000  O
  O23      1.0000 0.57300  0.11470  0.22300  Biso   1.000  O
  O24      1.0000 0.07300  0.61470  0.22300  Biso   1.000  O
  N1       1.0000 0.14540  0.95790  0.63590  Biso   1.000  N
  N2       1.0000 0.64540  0.45790  0.63590  Biso   1.000  N
  N3       1.0000 0.85460  0.95790  0.36410  Biso   1.000  N
  N4       1.0000 0.35460  0.45790  0.36410  Biso   1.000  N
  C1       1.0000 0.32200  0.78140  0.68730  Biso   1.000  C
  C2       1.0000 0.82200  0.28140  0.68730  Biso   1.000  C
  C3       1.0000 0.67800  0.78140  0.31270  Biso   1.000  C
  C4       1.0000 0.17800  0.28140  0.31270  Biso   1.000  C
  C5       1.0000 0.22580  0.85360  0.54860  Biso   1.000  C
  C6       1.0000 0.72580  0.35360  0.54860  Biso   1.000  C
  C7       1.0000 0.77420  0.85360  0.45140  Biso   1.000  C
  C8       1.0000 0.27420  0.35360  0.45140  Biso   1.000  C
  C9       1.0000 0.31480  0.91410  0.40850  Biso   1.000  C
  C10      1.0000 0.81480  0.41410  0.40850  Biso   1.000  C
  C11      1.0000 0.68520  0.91410  0.59150  Biso   1.000  C
  C12      1.0000 0.18520  0.41410  0.59150  Biso   1.000  C
  C13      1.0000 0.23650  0.94020  0.23050  Biso   1.000  C
  C14      1.0000 0.73650  0.44020  0.23050  Biso   1.000  C
  C15      1.0000 0.76350  0.94020  0.76950  Biso   1.000  C
  C16      1.0000 0.26350  0.44020  0.76950  Biso   1.000  C
  H1       1.0000 0.35310  0.99930  0.45320  Biso   1.000  H
  H2       1.0000 0.85310  0.49930  0.45320  Biso   1.000  H
  H3       1.0000 0.64690  0.99930  0.54680  Biso   1.000  H
  H4       1.0000 0.14690  0.49930  0.54680  Biso   1.000  H
  H5       1.0000 0.38950  0.85250  0.38820  Biso   1.000  H
  H6       1.0000 0.88950  0.35250  0.38820  Biso   1.000  H
  H7       1.0000 0.61050  0.85250  0.61180  Biso   1.000  H
  H8       1.0000 0.11050  0.35250  0.61180  Biso   1.000  H
  H9       1.0000 0.15740  0.79120  0.49140  Biso   1.000  H
  H10      1.0000 0.65740  0.29120  0.49140  Biso   1.000  H
  H11      1.0000 0.84260  0.79120  0.50860  Biso   1.000  H
  H12      1.0000 0.34260  0.29120  0.50860  Biso   1.000  H
  H13      1.0000 0.13830  0.02920  0.57040  Biso   1.000  H
  H14      1.0000 0.63830  0.52920  0.57040  Biso   1.000  H
  H15      1.0000 0.86170  0.02920  0.42960  Biso   1.000  H
  H16      1.0000 0.36170  0.52920  0.42960  Biso   1.000  H
  H17      1.0000 0.06200  0.92960  0.65040  Biso   1.000  H
  H18      1.0000 0.56200  0.42960  0.65040  Biso   1.000  H
  H19      1.0000 0.93800  0.92960  0.34960  Biso   1.000  H
  H20      1.0000 0.43800  0.42960  0.34960  Biso   1.000  H
  H21      1.0000 0.13110  0.21000  0.97150  Biso   1.000  H
  H22      1.0000 0.63110  0.71000  0.97150  Biso   1.000  H
  H23      1.0000 0.86890  0.21000  0.02850  Biso   1.000  H
  H24      1.0000 0.36890  0.71000  0.02850  Biso   1.000  H
  H25      1.0000 0.05010  0.16710  0.82060  Biso   1.000  H
  H26      1.0000 0.55010  0.66710  0.82060  Biso   1.000  H
  H27      1.0000 0.94990  0.16710  0.17940  Biso   1.000  H
  H28      1.0000 0.44990  0.66710  0.17940  Biso   1.000  H
  H29      1.0000 0.50910  0.09250  0.81280  Biso   1.000  H
  H30      1.0000 0.00910  0.59250  0.81280  Biso   1.000  H
  H31      1.0000 0.49090  0.09250  0.18720  Biso   1.000  H
  H32      1.0000 0.99090  0.59250  0.18720  Biso   1.000  H
  H33      1.0000 0.41370  0.19680  0.78960  Biso   1.000  H
  H34      1.0000 0.91370  0.69680  0.78960  Biso   1.000  H
  H35      1.0000 0.58630  0.19680  0.21040  Biso   1.000  H
  H36      1.0000 0.08630  0.69680  0.21040  Biso   1.000  H
