data_image0
_cell_length_a       9.0447
_cell_length_b       9.6337
_cell_length_c       7.3016
_cell_angle_alpha    90
_cell_angle_beta     91.765
_cell_angle_gamma    90

_symmetry_space_group_name_H-M    "P 1"
_symmetry_int_tables_number       1

loop_
  _symmetry_equiv_pos_as_xyz
  'x, y, z'

loop_
  _atom_site_label
  _atom_site_occupancy
  _atom_site_fract_x
  _atom_site_fract_y
  _atom_site_fract_z
  _atom_site_thermal_displace_type
  _atom_site_B_iso_or_equiv
  _atom_site_type_symbol
  Cu1      1.0000 0.24128  0.00711  0.86420  Biso   1.000  Cu
  Cu2      1.0000 0.74128  0.50711  0.86420  Biso   1.000  Cu
  Cu3      1.0000 0.75872  0.00711  0.13580  Biso   1.000  Cu
  Cu4      1.0000 0.25872  0.50711  0.13580  Biso   1.000  Cu
  C1       1.0000 0.32360  0.77240  0.68210  Biso   1.000  C
  C2       1.0000 0.82360  0.27240  0.68210  Biso   1.000  C
  C3       1.0000 0.67640  0.77240  0.31790  Biso   1.000  C
  C4       1.0000 0.17640  0.27240  0.31790  Biso   1.000  C
  C5       1.0000 0.22370  0.84570  0.54220  Biso   1.000  C
  C6       1.0000 0.72370  0.34570  0.54220  Biso   1.000  C
  C7       1.0000 0.77630  0.84570  0.45780  Biso   1.000  C
  C8       1.0000 0.27630  0.34570  0.45780  Biso   1.000  C
  C9       1.0000 0.32000  0.91540  0.40270  Biso   1.000  C
  C10      1.0000 0.82000  0.41540  0.40270  Biso   1.000  C
  C11      1.0000 0.68000  0.91540  0.59730  Biso   1.000  C
  C12      1.0000 0.18000  0.41540  0.59730  Biso   1.000  C
  C13      1.0000 0.24730  0.94530  0.21560  Biso   1.000  C
  C14      1.0000 0.74730  0.44530  0.21560  Biso   1.000  C
  C15      1.0000 0.75270  0.94530  0.78440  Biso   1.000  C
  C16      1.0000 0.25270  0.44530  0.78440  Biso   1.000  C
  O1       1.0000 0.34030  0.82960  0.84050  Biso   1.000  O
  O2       1.0000 0.84030  0.32960  0.84050  Biso   1.000  O
  O3       1.0000 0.65970  0.82960  0.15950  Biso   1.000  O
  O4       1.0000 0.15970  0.32960  0.15950  Biso   1.000  O
  O5       1.0000 0.39130  0.66660  0.63740  Biso   1.000  O
  O6       1.0000 0.89130  0.16660  0.63740  Biso   1.000  O
  O7       1.0000 0.60870  0.66660  0.36260  Biso   1.000  O
  O8       1.0000 0.10870  0.16660  0.36260  Biso   1.000  O
  O9       1.0000 0.32100  0.02420  0.11150  Biso   1.000  O
  O10      1.0000 0.82100  0.52420  0.11150  Biso   1.000  O
  O11      1.0000 0.67900  0.02420  0.88850  Biso   1.000  O
  O12      1.0000 0.17900  0.52420  0.88850  Biso   1.000  O
  O13      1.0000 0.12550  0.89300  0.16910  Biso   1.000  O
  O14      1.0000 0.62550  0.39300  0.16910  Biso   1.000  O
  O15      1.0000 0.87450  0.89300  0.83090  Biso   1.000  O
  O16      1.0000 0.37450  0.39300  0.83090  Biso   1.000  O
  O17      1.0000 0.12670  0.17420  0.87090  Biso   1.000  O
  O18      1.0000 0.62670  0.67420  0.87090  Biso   1.000  O
  O19      1.0000 0.87330  0.17420  0.12910  Biso   1.000  O
  O20      1.0000 0.37330  0.67420  0.12910  Biso   1.000  O
  O21      1.0000 0.43030  0.12610  0.74840  Biso   1.000  O
  O22      1.0000 0.93030  0.62610  0.74840  Biso   1.000  O
  O23      1.0000 0.56970  0.12610  0.25160  Biso   1.000  O
  O24      1.0000 0.06970  0.62610  0.25160  Biso   1.000  O
  N1       1.0000 0.13590  0.95280  0.63830  Biso   1.000  N
  N2       1.0000 0.63590  0.45280  0.63830  Biso   1.000  N
  N3       1.0000 0.86410  0.95280  0.36170  Biso   1.000  N
  N4       1.0000 0.36410  0.45280  0.36170  Biso   1.000  N
  H1       1.0000 0.35300  0.00330  0.45440  Biso   1.000  H
  H2       1.0000 0.85300  0.50330  0.45440  Biso   1.000  H
  H3       1.0000 0.64700  0.00330  0.54560  Biso   1.000  H
  H4       1.0000 0.14700  0.50330  0.54560  Biso   1.000  H
  H5       1.0000 0.40490  0.85620  0.38410  Biso   1.000  H
  H6       1.0000 0.90490  0.35620  0.38410  Biso   1.000  H
  H7       1.0000 0.59510  0.85620  0.61590  Biso   1.000  H
  H8       1.0000 0.09510  0.35620  0.61590  Biso   1.000  H
  H9       1.0000 0.15760  0.77850  0.48010  Biso   1.000  H
  H10      1.0000 0.65760  0.27850  0.48010  Biso   1.000  H
  H11      1.0000 0.84240  0.77850  0.51990  Biso   1.000  H
  H12      1.0000 0.34240  0.27850  0.51990  Biso   1.000  H
  H13      1.0000 0.12420  0.02400  0.56820  Biso   1.000  H
  H14      1.0000 0.62420  0.52400  0.56820  Biso   1.000  H
  H15      1.0000 0.87580  0.02400  0.43180  Biso   1.000  H
  H16      1.0000 0.37580  0.52400  0.43180  Biso   1.000  H
  H17      1.0000 0.05110  0.91890  0.66330  Biso   1.000  H
  H18      1.0000 0.55110  0.41890  0.66330  Biso   1.000  H
  H19      1.0000 0.94890  0.91890  0.33670  Biso   1.000  H
  H20      1.0000 0.44890  0.41890  0.33670  Biso   1.000  H
  H21      1.0000 0.41410  0.19470  0.81540  Biso   1.000  H
  H22      1.0000 0.91410  0.69470  0.81540  Biso   1.000  H
  H23      1.0000 0.58590  0.19470  0.18460  Biso   1.000  H
  H24      1.0000 0.08590  0.69470  0.18460  Biso   1.000  H
  H25      1.0000 0.51190  0.09780  0.79190  Biso   1.000  H
  H26      1.0000 0.01190  0.59780  0.79190  Biso   1.000  H
  H27      1.0000 0.48810  0.09780  0.20810  Biso   1.000  H
  H28      1.0000 0.98810  0.59780  0.20810  Biso   1.000  H
  H29      1.0000 0.14280  0.24520  0.93490  Biso   1.000  H
  H30      1.0000 0.64280  0.74520  0.93490  Biso   1.000  H
  H31      1.0000 0.85720  0.24520  0.06510  Biso   1.000  H
  H32      1.0000 0.35720  0.74520  0.06510  Biso   1.000  H
  H33      1.0000 0.03810  0.17810  0.83410  Biso   1.000  H
  H34      1.0000 0.53810  0.67810  0.83410  Biso   1.000  H
  H35      1.0000 0.96190  0.17810  0.16590  Biso   1.000  H
  H36      1.0000 0.46190  0.67810  0.16590  Biso   1.000  H
