data_image0
_cell_length_a       8.9403
_cell_length_b       9.5601
_cell_length_c       7.2112
_cell_angle_alpha    90
_cell_angle_beta     90.949
_cell_angle_gamma    90

_symmetry_space_group_name_H-M    "P 1"
_symmetry_int_tables_number       1

loop_
  _symmetry_equiv_pos_as_xyz
  'x, y, z'

loop_
  _atom_site_label
  _atom_site_occupancy
  _atom_site_fract_x
  _atom_site_fract_y
  _atom_site_fract_z
  _atom_site_thermal_displace_type
  _atom_site_B_iso_or_equiv
  _atom_site_type_symbol
  Cu1      1.0000 0.24241  0.00690  0.86120  Biso   1.000  Cu
  Cu2      1.0000 0.74241  0.50690  0.86120  Biso   1.000  Cu
  Cu3      1.0000 0.75759  0.00690  0.13880  Biso   1.000  Cu
  Cu4      1.0000 0.25759  0.50690  0.13880  Biso   1.000  Cu
  C1       1.0000 0.32480  0.76900  0.68020  Biso   1.000  C
  C2       1.0000 0.82480  0.26900  0.68020  Biso   1.000  C
  C3       1.0000 0.67520  0.76900  0.31980  Biso   1.000  C
  C4       1.0000 0.17520  0.26900  0.31980  Biso   1.000  C
  C5       1.0000 0.22360  0.84140  0.53950  Biso   1.000  C
  C6       1.0000 0.72360  0.34140  0.53950  Biso   1.000  C
  C7       1.0000 0.77640  0.84140  0.46050  Biso   1.000  C
  C8       1.0000 0.27640  0.34140  0.46050  Biso   1.000  C
  C9       1.0000 0.32250  0.91270  0.40060  Biso   1.000  C
  C10      1.0000 0.82250  0.41270  0.40060  Biso   1.000  C
  C11      1.0000 0.67750  0.91270  0.59940  Biso   1.000  C
  C12      1.0000 0.17750  0.41270  0.59940  Biso   1.000  C
  C13      1.0000 0.25110  0.94470  0.21230  Biso   1.000  C
  C14      1.0000 0.75110  0.44470  0.21230  Biso   1.000  C
  C15      1.0000 0.74890  0.94470  0.78770  Biso   1.000  C
  C16      1.0000 0.24890  0.44470  0.78770  Biso   1.000  C
  O1       1.0000 0.34300  0.82860  0.83790  Biso   1.000  O
  O2       1.0000 0.84300  0.32860  0.83790  Biso   1.000  O
  O3       1.0000 0.65700  0.82860  0.16210  Biso   1.000  O
  O4       1.0000 0.15700  0.32860  0.16210  Biso   1.000  O
  O5       1.0000 0.39150  0.66090  0.63600  Biso   1.000  O
  O6       1.0000 0.89150  0.16090  0.63600  Biso   1.000  O
  O7       1.0000 0.60850  0.66090  0.36400  Biso   1.000  O
  O8       1.0000 0.10850  0.16090  0.36400  Biso   1.000  O
  O9       1.0000 0.32480  0.02810  0.11210  Biso   1.000  O
  O10      1.0000 0.82480  0.52810  0.11210  Biso   1.000  O
  O11      1.0000 0.67520  0.02810  0.88790  Biso   1.000  O
  O12      1.0000 0.17520  0.52810  0.88790  Biso   1.000  O
  O13      1.0000 0.12920  0.89210  0.16440  Biso   1.000  O
  O14      1.0000 0.62920  0.39210  0.16440  Biso   1.000  O
  O15      1.0000 0.87080  0.89210  0.83560  Biso   1.000  O
  O16      1.0000 0.37080  0.39210  0.83560  Biso   1.000  O
  O17      1.0000 0.12700  0.17460  0.86800  Biso   1.000  O
  O18      1.0000 0.62700  0.67460  0.86800  Biso   1.000  O
  O19      1.0000 0.87300  0.17460  0.13200  Biso   1.000  O
  O20      1.0000 0.37300  0.67460  0.13200  Biso   1.000  O
  O21      1.0000 0.43100  0.12880  0.74200  Biso   1.000  O
  O22      1.0000 0.93100  0.62880  0.74200  Biso   1.000  O
  O23      1.0000 0.56900  0.12880  0.25800  Biso   1.000  O
  O24      1.0000 0.06900  0.62880  0.25800  Biso   1.000  O
  N1       1.0000 0.13360  0.94830  0.63600  Biso   1.000  N
  N2       1.0000 0.63360  0.44830  0.63600  Biso   1.000  N
  N3       1.0000 0.86640  0.94830  0.36400  Biso   1.000  N
  N4       1.0000 0.36640  0.44830  0.36400  Biso   1.000  N
  H1       1.0000 0.35490  0.00090  0.45440  Biso   1.000  H
  H2       1.0000 0.85490  0.50090  0.45440  Biso   1.000  H
  H3       1.0000 0.64510  0.00090  0.54560  Biso   1.000  H
  H4       1.0000 0.14510  0.50090  0.54560  Biso   1.000  H
  H5       1.0000 0.40860  0.85310  0.38160  Biso   1.000  H
  H6       1.0000 0.90860  0.35310  0.38160  Biso   1.000  H
  H7       1.0000 0.59140  0.85310  0.61840  Biso   1.000  H
  H8       1.0000 0.09140  0.35310  0.61840  Biso   1.000  H
  H9       1.0000 0.15870  0.77260  0.47770  Biso   1.000  H
  H10      1.0000 0.65870  0.27260  0.47770  Biso   1.000  H
  H11      1.0000 0.84130  0.77260  0.52230  Biso   1.000  H
  H12      1.0000 0.34130  0.27260  0.52230  Biso   1.000  H
  H13      1.0000 0.11740  0.01870  0.56470  Biso   1.000  H
  H14      1.0000 0.61740  0.51870  0.56470  Biso   1.000  H
  H15      1.0000 0.88260  0.01870  0.43530  Biso   1.000  H
  H16      1.0000 0.38260  0.51870  0.43530  Biso   1.000  H
  H17      1.0000 0.04890  0.91190  0.66670  Biso   1.000  H
  H18      1.0000 0.54890  0.41190  0.66670  Biso   1.000  H
  H19      1.0000 0.95110  0.91190  0.33330  Biso   1.000  H
  H20      1.0000 0.45110  0.41190  0.33330  Biso   1.000  H
  H21      1.0000 0.43650  0.21480  0.72020  Biso   1.000  H
  H22      1.0000 0.93650  0.71480  0.72020  Biso   1.000  H
  H23      1.0000 0.56350  0.21480  0.27980  Biso   1.000  H
  H24      1.0000 0.06350  0.71480  0.27980  Biso   1.000  H
  H25      1.0000 0.50380  0.10810  0.81170  Biso   1.000  H
  H26      1.0000 0.00380  0.60810  0.81170  Biso   1.000  H
  H27      1.0000 0.49620  0.10810  0.18830  Biso   1.000  H
  H28      1.0000 0.99620  0.60810  0.18830  Biso   1.000  H
  H29      1.0000 0.12870  0.24700  0.93380  Biso   1.000  H
  H30      1.0000 0.62870  0.74700  0.93380  Biso   1.000  H
  H31      1.0000 0.87130  0.24700  0.06620  Biso   1.000  H
  H32      1.0000 0.37130  0.74700  0.06620  Biso   1.000  H
  H33      1.0000 0.04050  0.15410  0.82970  Biso   1.000  H
  H34      1.0000 0.54050  0.65410  0.82970  Biso   1.000  H
  H35      1.0000 0.95950  0.15410  0.17030  Biso   1.000  H
  H36      1.0000 0.45950  0.65410  0.17030  Biso   1.000  H
