data_image0
_cell_length_a       9.1425
_cell_length_b       9.7138
_cell_length_c       7.361
_cell_angle_alpha    90
_cell_angle_beta     92.265
_cell_angle_gamma    90

_symmetry_space_group_name_H-M    "P 1"
_symmetry_int_tables_number       1

loop_
  _symmetry_equiv_pos_as_xyz
  'x, y, z'

loop_
  _atom_site_label
  _atom_site_occupancy
  _atom_site_fract_x
  _atom_site_fract_y
  _atom_site_fract_z
  _atom_site_thermal_displace_type
  _atom_site_B_iso_or_equiv
  _atom_site_type_symbol
  Cu1      1.0000 0.24035  0.00462  0.86650  Biso   1.000  Cu
  Cu2      1.0000 0.74035  0.50462  0.86650  Biso   1.000  Cu
  Cu3      1.0000 0.75965  0.00462  0.13350  Biso   1.000  Cu
  Cu4      1.0000 0.25965  0.50462  0.13350  Biso   1.000  Cu
  C1       1.0000 0.32290  0.77380  0.68220  Biso   1.000  C
  C2       1.0000 0.82290  0.27380  0.68220  Biso   1.000  C
  C3       1.0000 0.67710  0.77380  0.31780  Biso   1.000  C
  C4       1.0000 0.17710  0.27380  0.31780  Biso   1.000  C
  C5       1.0000 0.22350  0.84610  0.54180  Biso   1.000  C
  C6       1.0000 0.72350  0.34610  0.54180  Biso   1.000  C
  C7       1.0000 0.77650  0.84610  0.45820  Biso   1.000  C
  C8       1.0000 0.27650  0.34610  0.45820  Biso   1.000  C
  C9       1.0000 0.31830  0.91330  0.40190  Biso   1.000  C
  C10      1.0000 0.81830  0.41330  0.40190  Biso   1.000  C
  C11      1.0000 0.68170  0.91330  0.59810  Biso   1.000  C
  C12      1.0000 0.18170  0.41330  0.59810  Biso   1.000  C
  C13      1.0000 0.24510  0.94270  0.21650  Biso   1.000  C
  C14      1.0000 0.74510  0.44270  0.21650  Biso   1.000  C
  C15      1.0000 0.75490  0.94270  0.78350  Biso   1.000  C
  C16      1.0000 0.25490  0.44270  0.78350  Biso   1.000  C
  O1       1.0000 0.33680  0.82800  0.84170  Biso   1.000  O
  O2       1.0000 0.83680  0.32800  0.84170  Biso   1.000  O
  O3       1.0000 0.66320  0.82800  0.15830  Biso   1.000  O
  O4       1.0000 0.16320  0.32800  0.15830  Biso   1.000  O
  O5       1.0000 0.39030  0.66930  0.64030  Biso   1.000  O
  O6       1.0000 0.89030  0.16930  0.64030  Biso   1.000  O
  O7       1.0000 0.60970  0.66930  0.35970  Biso   1.000  O
  O8       1.0000 0.10970  0.16930  0.35970  Biso   1.000  O
  O9       1.0000 0.31720  0.01940  0.11060  Biso   1.000  O
  O10      1.0000 0.81720  0.51940  0.11060  Biso   1.000  O
  O11      1.0000 0.68280  0.01940  0.88940  Biso   1.000  O
  O12      1.0000 0.18280  0.51940  0.88940  Biso   1.000  O
  O13      1.0000 0.12390  0.89160  0.17610  Biso   1.000  O
  O14      1.0000 0.62390  0.39160  0.17610  Biso   1.000  O
  O15      1.0000 0.87610  0.89160  0.82390  Biso   1.000  O
  O16      1.0000 0.37610  0.39160  0.82390  Biso   1.000  O
  O17      1.0000 0.12640  0.17070  0.87900  Biso   1.000  O
  O18      1.0000 0.62640  0.67070  0.87900  Biso   1.000  O
  O19      1.0000 0.87360  0.17070  0.12100  Biso   1.000  O
  O20      1.0000 0.37360  0.67070  0.12100  Biso   1.000  O
  O21      1.0000 0.43020  0.12150  0.75400  Biso   1.000  O
  O22      1.0000 0.93020  0.62150  0.75400  Biso   1.000  O
  O23      1.0000 0.56980  0.12150  0.24600  Biso   1.000  O
  O24      1.0000 0.06980  0.62150  0.24600  Biso   1.000  O
  N1       1.0000 0.13990  0.95260  0.64370  Biso   1.000  N
  N2       1.0000 0.63990  0.45260  0.64370  Biso   1.000  N
  N3       1.0000 0.86010  0.95260  0.35630  Biso   1.000  N
  N4       1.0000 0.36010  0.45260  0.35630  Biso   1.000  N
  H1       1.0000 0.35300  0.00030  0.45300  Biso   1.000  H
  H2       1.0000 0.85300  0.50030  0.45300  Biso   1.000  H
  H3       1.0000 0.64700  0.00030  0.54700  Biso   1.000  H
  H4       1.0000 0.14700  0.50030  0.54700  Biso   1.000  H
  H5       1.0000 0.40120  0.85320  0.38460  Biso   1.000  H
  H6       1.0000 0.90120  0.35320  0.38460  Biso   1.000  H
  H7       1.0000 0.59880  0.85320  0.61540  Biso   1.000  H
  H8       1.0000 0.09880  0.35320  0.61540  Biso   1.000  H
  H9       1.0000 0.15630  0.78020  0.48330  Biso   1.000  H
  H10      1.0000 0.65630  0.28020  0.48330  Biso   1.000  H
  H11      1.0000 0.84370  0.78020  0.51670  Biso   1.000  H
  H12      1.0000 0.34370  0.28020  0.51670  Biso   1.000  H
  H13      1.0000 0.12820  0.02460  0.57660  Biso   1.000  H
  H14      1.0000 0.62820  0.52460  0.57660  Biso   1.000  H
  H15      1.0000 0.87180  0.02460  0.42340  Biso   1.000  H
  H16      1.0000 0.37180  0.52460  0.42340  Biso   1.000  H
  H17      1.0000 0.05570  0.91960  0.66830  Biso   1.000  H
  H18      1.0000 0.55570  0.41960  0.66830  Biso   1.000  H
  H19      1.0000 0.94430  0.91960  0.33170  Biso   1.000  H
  H20      1.0000 0.44430  0.41960  0.33170  Biso   1.000  H
  H21      1.0000 0.41900  0.20040  0.79820  Biso   1.000  H
  H22      1.0000 0.91900  0.70040  0.79820  Biso   1.000  H
  H23      1.0000 0.58100  0.20040  0.20180  Biso   1.000  H
  H24      1.0000 0.08100  0.70040  0.20180  Biso   1.000  H
  H25      1.0000 0.51470  0.09480  0.78770  Biso   1.000  H
  H26      1.0000 0.01470  0.59480  0.78770  Biso   1.000  H
  H27      1.0000 0.48530  0.09480  0.21230  Biso   1.000  H
  H28      1.0000 0.98530  0.59480  0.21230  Biso   1.000  H
  H29      1.0000 0.15160  0.23640  0.94740  Biso   1.000  H
  H30      1.0000 0.65160  0.73640  0.94740  Biso   1.000  H
  H31      1.0000 0.84840  0.23640  0.05260  Biso   1.000  H
  H32      1.0000 0.34840  0.73640  0.05260  Biso   1.000  H
  H33      1.0000 0.03800  0.17500  0.84520  Biso   1.000  H
  H34      1.0000 0.53800  0.67500  0.84520  Biso   1.000  H
  H35      1.0000 0.96200  0.17500  0.15480  Biso   1.000  H
  H36      1.0000 0.46200  0.67500  0.15480  Biso   1.000  H
