data_image0
_cell_length_a       9.4817
_cell_length_b       10.0118
_cell_length_c       7.5433
_cell_angle_alpha    90
_cell_angle_beta     93.856
_cell_angle_gamma    90

_symmetry_space_group_name_H-M    "P 1"
_symmetry_int_tables_number       1

loop_
  _symmetry_equiv_pos_as_xyz
  'x, y, z'

loop_
  _atom_site_label
  _atom_site_occupancy
  _atom_site_fract_x
  _atom_site_fract_y
  _atom_site_fract_z
  _atom_site_thermal_displace_type
  _atom_site_B_iso_or_equiv
  _atom_site_type_symbol
  Cu1      1.0000 0.23687  0.00279  0.87375  Biso   1.000  Cu
  Cu2      1.0000 0.73687  0.50279  0.87375  Biso   1.000  Cu
  Cu3      1.0000 0.76313  0.00279  0.12625  Biso   1.000  Cu
  Cu4      1.0000 0.26313  0.50279  0.12625  Biso   1.000  Cu
  C1       1.0000 0.32150  0.78140  0.68470  Biso   1.000  C
  C2       1.0000 0.82150  0.28140  0.68470  Biso   1.000  C
  C3       1.0000 0.67850  0.78140  0.31530  Biso   1.000  C
  C4       1.0000 0.17850  0.28140  0.31530  Biso   1.000  C
  C5       1.0000 0.22570  0.85410  0.54670  Biso   1.000  C
  C6       1.0000 0.72570  0.35410  0.54670  Biso   1.000  C
  C7       1.0000 0.77430  0.85410  0.45330  Biso   1.000  C
  C8       1.0000 0.27430  0.35410  0.45330  Biso   1.000  C
  C9       1.0000 0.31370  0.91560  0.40960  Biso   1.000  C
  C10      1.0000 0.81370  0.41560  0.40960  Biso   1.000  C
  C11      1.0000 0.68630  0.91560  0.59040  Biso   1.000  C
  C12      1.0000 0.18630  0.41560  0.59040  Biso   1.000  C
  C13      1.0000 0.23830  0.94160  0.22980  Biso   1.000  C
  C14      1.0000 0.73830  0.44160  0.22980  Biso   1.000  C
  C15      1.0000 0.76170  0.94160  0.77020  Biso   1.000  C
  C16      1.0000 0.26170  0.44160  0.77020  Biso   1.000  C
  O1       1.0000 0.33010  0.82970  0.84390  Biso   1.000  O
  O2       1.0000 0.83010  0.32970  0.84390  Biso   1.000  O
  O3       1.0000 0.66990  0.82970  0.15610  Biso   1.000  O
  O4       1.0000 0.16990  0.32970  0.15610  Biso   1.000  O
  O5       1.0000 0.39000  0.68360  0.64210  Biso   1.000  O
  O6       1.0000 0.89000  0.18360  0.64210  Biso   1.000  O
  O7       1.0000 0.61000  0.68360  0.35790  Biso   1.000  O
  O8       1.0000 0.11000  0.18360  0.35790  Biso   1.000  O
  O9       1.0000 0.30730  0.01130  0.12500  Biso   1.000  O
  O10      1.0000 0.80730  0.51130  0.12500  Biso   1.000  O
  O11      1.0000 0.69270  0.01130  0.87500  Biso   1.000  O
  O12      1.0000 0.19270  0.51130  0.87500  Biso   1.000  O
  O13      1.0000 0.11860  0.89430  0.19200  Biso   1.000  O
  O14      1.0000 0.61860  0.39430  0.19200  Biso   1.000  O
  O15      1.0000 0.88140  0.89430  0.80800  Biso   1.000  O
  O16      1.0000 0.38140  0.39430  0.80800  Biso   1.000  O
  O17      1.0000 0.12810  0.16830  0.87680  Biso   1.000  O
  O18      1.0000 0.62810  0.66830  0.87680  Biso   1.000  O
  O19      1.0000 0.87190  0.16830  0.12320  Biso   1.000  O
  O20      1.0000 0.37190  0.66830  0.12320  Biso   1.000  O
  O21      1.0000 0.42760  0.11770  0.77490  Biso   1.000  O
  O22      1.0000 0.92760  0.61770  0.77490  Biso   1.000  O
  O23      1.0000 0.57240  0.11770  0.22510  Biso   1.000  O
  O24      1.0000 0.07240  0.61770  0.22510  Biso   1.000  O
  N1       1.0000 0.14500  0.95910  0.63640  Biso   1.000  N
  N2       1.0000 0.64500  0.45910  0.63640  Biso   1.000  N
  N3       1.0000 0.85500  0.95910  0.36360  Biso   1.000  N
  N4       1.0000 0.35500  0.45910  0.36360  Biso   1.000  N
  H1       1.0000 0.42780  0.19860  0.80440  Biso   1.000  H
  H2       1.0000 0.92780  0.69860  0.80440  Biso   1.000  H
  H3       1.0000 0.57220  0.19860  0.19560  Biso   1.000  H
  H4       1.0000 0.07220  0.69860  0.19560  Biso   1.000  H
  H5       1.0000 0.50440  0.08330  0.81490  Biso   1.000  H
  H6       1.0000 0.00440  0.58330  0.81490  Biso   1.000  H
  H7       1.0000 0.49560  0.08330  0.18510  Biso   1.000  H
  H8       1.0000 0.99560  0.58330  0.18510  Biso   1.000  H
  H9       1.0000 0.12170  0.19410  0.98210  Biso   1.000  H
  H10      1.0000 0.62170  0.69410  0.98210  Biso   1.000  H
  H11      1.0000 0.87830  0.19410  0.01790  Biso   1.000  H
  H12      1.0000 0.37830  0.69410  0.01790  Biso   1.000  H
  H13      1.0000 0.04700  0.14850  0.83420  Biso   1.000  H
  H14      1.0000 0.54700  0.64850  0.83420  Biso   1.000  H
  H15      1.0000 0.95300  0.14850  0.16580  Biso   1.000  H
  H16      1.0000 0.45300  0.64850  0.16580  Biso   1.000  H
  H17      1.0000 0.34950  0.00030  0.45600  Biso   1.000  H
  H18      1.0000 0.84950  0.50030  0.45600  Biso   1.000  H
  H19      1.0000 0.65050  0.00030  0.54400  Biso   1.000  H
  H20      1.0000 0.15050  0.50030  0.54400  Biso   1.000  H
  H21      1.0000 0.39230  0.85600  0.39230  Biso   1.000  H
  H22      1.0000 0.89230  0.35600  0.39230  Biso   1.000  H
  H23      1.0000 0.60770  0.85600  0.60770  Biso   1.000  H
  H24      1.0000 0.10770  0.35600  0.60770  Biso   1.000  H
  H25      1.0000 0.15940  0.79010  0.48860  Biso   1.000  H
  H26      1.0000 0.65940  0.29010  0.48860  Biso   1.000  H
  H27      1.0000 0.84060  0.79010  0.51140  Biso   1.000  H
  H28      1.0000 0.34060  0.29010  0.51140  Biso   1.000  H
  H29      1.0000 0.14120  0.02990  0.57180  Biso   1.000  H
  H30      1.0000 0.64120  0.52990  0.57180  Biso   1.000  H
  H31      1.0000 0.85880  0.02990  0.42820  Biso   1.000  H
  H32      1.0000 0.35880  0.52990  0.42820  Biso   1.000  H
  H33      1.0000 0.06070  0.93060  0.64910  Biso   1.000  H
  H34      1.0000 0.56070  0.43060  0.64910  Biso   1.000  H
  H35      1.0000 0.93930  0.93060  0.35090  Biso   1.000  H
  H36      1.0000 0.43930  0.43060  0.35090  Biso   1.000  H
