data_image0
_cell_length_a       9.504
_cell_length_b       10.038
_cell_length_c       7.555
_cell_angle_alpha    90
_cell_angle_beta     94.01
_cell_angle_gamma    90

_symmetry_space_group_name_H-M    "P 1"
_symmetry_int_tables_number       1

loop_
  _symmetry_equiv_pos_as_xyz
  'x, y, z'

loop_
  _atom_site_label
  _atom_site_occupancy
  _atom_site_fract_x
  _atom_site_fract_y
  _atom_site_fract_z
  _atom_site_thermal_displace_type
  _atom_site_B_iso_or_equiv
  _atom_site_type_symbol
  Cu1      1.0000 0.23650  0.00000  0.87460  Biso   1.000  Cu
  Cu2      1.0000 0.73650  0.50000  0.87460  Biso   1.000  Cu
  Cu3      1.0000 0.76350  0.00000  0.12540  Biso   1.000  Cu
  Cu4      1.0000 0.26350  0.50000  0.12540  Biso   1.000  Cu
  O1       1.0000 0.32910  0.82810  0.84640  Biso   1.000  O
  O2       1.0000 0.82910  0.32810  0.84640  Biso   1.000  O
  O3       1.0000 0.67090  0.82810  0.15360  Biso   1.000  O
  O4       1.0000 0.17090  0.32810  0.15360  Biso   1.000  O
  O5       1.0000 0.39030  0.68290  0.64500  Biso   1.000  O
  O6       1.0000 0.89030  0.18290  0.64500  Biso   1.000  O
  O7       1.0000 0.60970  0.68290  0.35500  Biso   1.000  O
  O8       1.0000 0.10970  0.18290  0.35500  Biso   1.000  O
  O9       1.0000 0.30700  0.00850  0.12300  Biso   1.000  O
  O10      1.0000 0.80700  0.50850  0.12300  Biso   1.000  O
  O11      1.0000 0.69300  0.00850  0.87700  Biso   1.000  O
  O12      1.0000 0.19300  0.50850  0.87700  Biso   1.000  O
  O13      1.0000 0.11850  0.89250  0.19000  Biso   1.000  O
  O14      1.0000 0.61850  0.39250  0.19000  Biso   1.000  O
  O15      1.0000 0.88150  0.89250  0.81000  Biso   1.000  O
  O16      1.0000 0.38150  0.39250  0.81000  Biso   1.000  O
  O17      1.0000 0.12840  0.16460  0.87640  Biso   1.000  O
  O18      1.0000 0.62840  0.66460  0.87640  Biso   1.000  O
  O19      1.0000 0.87160  0.16460  0.12360  Biso   1.000  O
  O20      1.0000 0.37160  0.66460  0.12360  Biso   1.000  O
  O21      1.0000 0.42780  0.11390  0.77660  Biso   1.000  O
  O22      1.0000 0.92780  0.61390  0.77660  Biso   1.000  O
  O23      1.0000 0.57220  0.11390  0.22340  Biso   1.000  O
  O24      1.0000 0.07220  0.61390  0.22340  Biso   1.000  O
  N1       1.0000 0.14490  0.95760  0.63510  Biso   1.000  N
  N2       1.0000 0.64490  0.45760  0.63510  Biso   1.000  N
  N3       1.0000 0.85510  0.95760  0.36490  Biso   1.000  N
  N4       1.0000 0.35510  0.45760  0.36490  Biso   1.000  N
  C1       1.0000 0.32140  0.78040  0.68720  Biso   1.000  C
  C2       1.0000 0.82140  0.28040  0.68720  Biso   1.000  C
  C3       1.0000 0.67860  0.78040  0.31280  Biso   1.000  C
  C4       1.0000 0.17860  0.28040  0.31280  Biso   1.000  C
  C5       1.0000 0.22620  0.85260  0.54750  Biso   1.000  C
  C6       1.0000 0.72620  0.35260  0.54750  Biso   1.000  C
  C7       1.0000 0.77380  0.85260  0.45250  Biso   1.000  C
  C8       1.0000 0.27380  0.35260  0.45250  Biso   1.000  C
  C9       1.0000 0.31490  0.91390  0.41000  Biso   1.000  C
  C10      1.0000 0.81490  0.41390  0.41000  Biso   1.000  C
  C11      1.0000 0.68510  0.91390  0.59000  Biso   1.000  C
  C12      1.0000 0.18510  0.41390  0.59000  Biso   1.000  C
  C13      1.0000 0.23700  0.93980  0.22940  Biso   1.000  C
  C14      1.0000 0.73700  0.43980  0.22940  Biso   1.000  C
  C15      1.0000 0.76300  0.93980  0.77060  Biso   1.000  C
  C16      1.0000 0.26300  0.43980  0.77060  Biso   1.000  C
  H1       1.0000 0.03880  0.16310  0.80060  Biso   1.000  H
  H2       1.0000 0.53880  0.66310  0.80060  Biso   1.000  H
  H3       1.0000 0.96120  0.16310  0.19940  Biso   1.000  H
  H4       1.0000 0.46120  0.66310  0.19940  Biso   1.000  H
  H5       1.0000 0.13290  0.21190  0.98910  Biso   1.000  H
  H6       1.0000 0.63290  0.71190  0.98910  Biso   1.000  H
  H7       1.0000 0.86710  0.21190  0.01090  Biso   1.000  H
  H8       1.0000 0.36710  0.71190  0.01090  Biso   1.000  H
  H9       1.0000 0.12790  0.04110  0.55730  Biso   1.000  H
  H10      1.0000 0.62790  0.54110  0.55730  Biso   1.000  H
  H11      1.0000 0.87210  0.04110  0.44270  Biso   1.000  H
  H12      1.0000 0.37210  0.54110  0.44270  Biso   1.000  H
  H13      1.0000 0.06030  0.90710  0.69810  Biso   1.000  H
  H14      1.0000 0.56030  0.40710  0.69810  Biso   1.000  H
  H15      1.0000 0.93970  0.90710  0.30190  Biso   1.000  H
  H16      1.0000 0.43970  0.40710  0.30190  Biso   1.000  H
  H17      1.0000 0.14710  0.78270  0.49400  Biso   1.000  H
  H18      1.0000 0.64710  0.28270  0.49400  Biso   1.000  H
  H19      1.0000 0.85290  0.78270  0.50600  Biso   1.000  H
  H20      1.0000 0.35290  0.28270  0.50600  Biso   1.000  H
  H21      1.0000 0.34100  0.00770  0.45030  Biso   1.000  H
  H22      1.0000 0.84100  0.50770  0.45030  Biso   1.000  H
  H23      1.0000 0.65900  0.00770  0.54970  Biso   1.000  H
  H24      1.0000 0.15900  0.50770  0.54970  Biso   1.000  H
  H25      1.0000 0.39090  0.83280  0.40610  Biso   1.000  H
  H26      1.0000 0.89090  0.33280  0.40610  Biso   1.000  H
  H27      1.0000 0.60910  0.83280  0.59390  Biso   1.000  H
  H28      1.0000 0.10910  0.33280  0.59390  Biso   1.000  H
