data_image0
_cell_length_a       9.3964
_cell_length_b       9.9334
_cell_length_c       7.5076
_cell_angle_alpha    90
_cell_angle_beta     93.536
_cell_angle_gamma    90

_symmetry_space_group_name_H-M    "P 1"
_symmetry_int_tables_number       1

loop_
  _symmetry_equiv_pos_as_xyz
  'x, y, z'

loop_
  _atom_site_label
  _atom_site_occupancy
  _atom_site_fract_x
  _atom_site_fract_y
  _atom_site_fract_z
  _atom_site_thermal_displace_type
  _atom_site_B_iso_or_equiv
  _atom_site_type_symbol
  Cu1      1.0000 0.23773  0.00347  0.87110  Biso   1.000  Cu
  Cu2      1.0000 0.73773  0.50347  0.87110  Biso   1.000  Cu
  Cu3      1.0000 0.76227  0.00347  0.12890  Biso   1.000  Cu
  Cu4      1.0000 0.26227  0.50347  0.12890  Biso   1.000  Cu
  C1       1.0000 0.32220  0.78080  0.68520  Biso   1.000  C
  C2       1.0000 0.82220  0.28080  0.68520  Biso   1.000  C
  C3       1.0000 0.67780  0.78080  0.31480  Biso   1.000  C
  C4       1.0000 0.17780  0.28080  0.31480  Biso   1.000  C
  C5       1.0000 0.22520  0.85270  0.54840  Biso   1.000  C
  C6       1.0000 0.72520  0.35270  0.54840  Biso   1.000  C
  C7       1.0000 0.77480  0.85270  0.45160  Biso   1.000  C
  C8       1.0000 0.27480  0.35270  0.45160  Biso   1.000  C
  C9       1.0000 0.31520  0.91510  0.40890  Biso   1.000  C
  C10      1.0000 0.81520  0.41510  0.40890  Biso   1.000  C
  C11      1.0000 0.68480  0.91510  0.59110  Biso   1.000  C
  C12      1.0000 0.18480  0.41510  0.59110  Biso   1.000  C
  C13      1.0000 0.23900  0.94210  0.22810  Biso   1.000  C
  C14      1.0000 0.73900  0.44210  0.22810  Biso   1.000  C
  C15      1.0000 0.76100  0.94210  0.77190  Biso   1.000  C
  C16      1.0000 0.26100  0.44210  0.77190  Biso   1.000  C
  O1       1.0000 0.33110  0.82830  0.84530  Biso   1.000  O
  O2       1.0000 0.83110  0.32830  0.84530  Biso   1.000  O
  O3       1.0000 0.66890  0.82830  0.15470  Biso   1.000  O
  O4       1.0000 0.16890  0.32830  0.15470  Biso   1.000  O
  O5       1.0000 0.38960  0.67990  0.64210  Biso   1.000  O
  O6       1.0000 0.88960  0.17990  0.64210  Biso   1.000  O
  O7       1.0000 0.61040  0.67990  0.35790  Biso   1.000  O
  O8       1.0000 0.11040  0.17990  0.35790  Biso   1.000  O
  O9       1.0000 0.30990  0.01380  0.12460  Biso   1.000  O
  O10      1.0000 0.80990  0.51380  0.12460  Biso   1.000  O
  O11      1.0000 0.69010  0.01380  0.87540  Biso   1.000  O
  O12      1.0000 0.19010  0.51380  0.87540  Biso   1.000  O
  O13      1.0000 0.11930  0.89360  0.18510  Biso   1.000  O
  O14      1.0000 0.61930  0.39360  0.18510  Biso   1.000  O
  O15      1.0000 0.88070  0.89360  0.81490  Biso   1.000  O
  O16      1.0000 0.38070  0.39360  0.81490  Biso   1.000  O
  O17      1.0000 0.12770  0.16810  0.87610  Biso   1.000  O
  O18      1.0000 0.62770  0.66810  0.87610  Biso   1.000  O
  O19      1.0000 0.87230  0.16810  0.12390  Biso   1.000  O
  O20      1.0000 0.37230  0.66810  0.12390  Biso   1.000  O
  O21      1.0000 0.42680  0.11820  0.76910  Biso   1.000  O
  O22      1.0000 0.92680  0.61820  0.76910  Biso   1.000  O
  O23      1.0000 0.57320  0.11820  0.23090  Biso   1.000  O
  O24      1.0000 0.07320  0.61820  0.23090  Biso   1.000  O
  N1       1.0000 0.14300  0.95810  0.64060  Biso   1.000  N
  N2       1.0000 0.64300  0.45810  0.64060  Biso   1.000  N
  N3       1.0000 0.85700  0.95810  0.35940  Biso   1.000  N
  N4       1.0000 0.35700  0.45810  0.35940  Biso   1.000  N
  H1       1.0000 0.35170  0.00210  0.46400  Biso   1.000  H
  H2       1.0000 0.85170  0.50210  0.46400  Biso   1.000  H
  H3       1.0000 0.64830  0.00210  0.53600  Biso   1.000  H
  H4       1.0000 0.14830  0.50210  0.53600  Biso   1.000  H
  H5       1.0000 0.40060  0.85770  0.40230  Biso   1.000  H
  H6       1.0000 0.90060  0.35770  0.40230  Biso   1.000  H
  H7       1.0000 0.59940  0.85770  0.59770  Biso   1.000  H
  H8       1.0000 0.09940  0.35770  0.59770  Biso   1.000  H
  H9       1.0000 0.16270  0.78710  0.49200  Biso   1.000  H
  H10      1.0000 0.66270  0.28710  0.49200  Biso   1.000  H
  H11      1.0000 0.83730  0.78710  0.50800  Biso   1.000  H
  H12      1.0000 0.33730  0.28710  0.50800  Biso   1.000  H
  H13      1.0000 0.13920  0.02820  0.56980  Biso   1.000  H
  H14      1.0000 0.63920  0.52820  0.56980  Biso   1.000  H
  H15      1.0000 0.86080  0.02820  0.43020  Biso   1.000  H
  H16      1.0000 0.36080  0.52820  0.43020  Biso   1.000  H
  H17      1.0000 0.05850  0.92850  0.64960  Biso   1.000  H
  H18      1.0000 0.55850  0.42850  0.64960  Biso   1.000  H
  H19      1.0000 0.94150  0.92850  0.35040  Biso   1.000  H
  H20      1.0000 0.44150  0.42850  0.35040  Biso   1.000  H
  H21      1.0000 0.42790  0.20180  0.78430  Biso   1.000  H
  H22      1.0000 0.92790  0.70180  0.78430  Biso   1.000  H
  H23      1.0000 0.57210  0.20180  0.21570  Biso   1.000  H
  H24      1.0000 0.07210  0.70180  0.21570  Biso   1.000  H
  H25      1.0000 0.50550  0.08740  0.81040  Biso   1.000  H
  H26      1.0000 0.00550  0.58740  0.81040  Biso   1.000  H
  H27      1.0000 0.49450  0.08740  0.18960  Biso   1.000  H
  H28      1.0000 0.99450  0.58740  0.18960  Biso   1.000  H
  H29      1.0000 0.13040  0.19140  0.98380  Biso   1.000  H
  H30      1.0000 0.63040  0.69140  0.98380  Biso   1.000  H
  H31      1.0000 0.86960  0.19140  0.01620  Biso   1.000  H
  H32      1.0000 0.36960  0.69140  0.01620  Biso   1.000  H
  H33      1.0000 0.04200  0.15970  0.83980  Biso   1.000  H
  H34      1.0000 0.54200  0.65970  0.83980  Biso   1.000  H
  H35      1.0000 0.95800  0.15970  0.16020  Biso   1.000  H
  H36      1.0000 0.45800  0.65970  0.16020  Biso   1.000  H
