data_image0
_cell_length_a       9.2843
_cell_length_b       9.8358
_cell_length_c       7.4532
_cell_angle_alpha    90
_cell_angle_beta     93.071
_cell_angle_gamma    90

_symmetry_space_group_name_H-M    "P 1"
_symmetry_int_tables_number       1

loop_
  _symmetry_equiv_pos_as_xyz
  'x, y, z'

loop_
  _atom_site_label
  _atom_site_occupancy
  _atom_site_fract_x
  _atom_site_fract_y
  _atom_site_fract_z
  _atom_site_thermal_displace_type
  _atom_site_B_iso_or_equiv
  _atom_site_type_symbol
  Cu1      1.0000 0.23885  0.00371  0.86960  Biso   1.000  Cu
  Cu2      1.0000 0.73885  0.50371  0.86960  Biso   1.000  Cu
  Cu3      1.0000 0.76115  0.00371  0.13040  Biso   1.000  Cu
  Cu4      1.0000 0.26115  0.50371  0.13040  Biso   1.000  Cu
  C1       1.0000 0.32220  0.77730  0.68390  Biso   1.000  C
  C2       1.0000 0.82220  0.27730  0.68390  Biso   1.000  C
  C3       1.0000 0.67780  0.77730  0.31610  Biso   1.000  C
  C4       1.0000 0.17780  0.27730  0.31610  Biso   1.000  C
  C5       1.0000 0.22410  0.85020  0.54500  Biso   1.000  C
  C6       1.0000 0.72410  0.35020  0.54500  Biso   1.000  C
  C7       1.0000 0.77590  0.85020  0.45500  Biso   1.000  C
  C8       1.0000 0.27590  0.35020  0.45500  Biso   1.000  C
  C9       1.0000 0.31610  0.91450  0.40520  Biso   1.000  C
  C10      1.0000 0.81610  0.41450  0.40520  Biso   1.000  C
  C11      1.0000 0.68390  0.91450  0.59480  Biso   1.000  C
  C12      1.0000 0.18390  0.41450  0.59480  Biso   1.000  C
  C13      1.0000 0.24190  0.94170  0.22170  Biso   1.000  C
  C14      1.0000 0.74190  0.44170  0.22170  Biso   1.000  C
  C15      1.0000 0.75810  0.94170  0.77830  Biso   1.000  C
  C16      1.0000 0.25810  0.44170  0.77830  Biso   1.000  C
  O1       1.0000 0.33440  0.82790  0.84480  Biso   1.000  O
  O2       1.0000 0.83440  0.32790  0.84480  Biso   1.000  O
  O3       1.0000 0.66560  0.82790  0.15520  Biso   1.000  O
  O4       1.0000 0.16560  0.32790  0.15520  Biso   1.000  O
  O5       1.0000 0.39030  0.67520  0.64160  Biso   1.000  O
  O6       1.0000 0.89030  0.17520  0.64160  Biso   1.000  O
  O7       1.0000 0.60970  0.67520  0.35840  Biso   1.000  O
  O8       1.0000 0.10970  0.17520  0.35840  Biso   1.000  O
  O9       1.0000 0.31320  0.01570  0.11800  Biso   1.000  O
  O10      1.0000 0.81320  0.51570  0.11800  Biso   1.000  O
  O11      1.0000 0.68680  0.01570  0.88200  Biso   1.000  O
  O12      1.0000 0.18680  0.51570  0.88200  Biso   1.000  O
  O13      1.0000 0.12100  0.89240  0.18000  Biso   1.000  O
  O14      1.0000 0.62100  0.39240  0.18000  Biso   1.000  O
  O15      1.0000 0.87900  0.89240  0.82000  Biso   1.000  O
  O16      1.0000 0.37900  0.39240  0.82000  Biso   1.000  O
  O17      1.0000 0.12660  0.16930  0.87720  Biso   1.000  O
  O18      1.0000 0.62660  0.66930  0.87720  Biso   1.000  O
  O19      1.0000 0.87340  0.16930  0.12280  Biso   1.000  O
  O20      1.0000 0.37340  0.66930  0.12280  Biso   1.000  O
  O21      1.0000 0.42900  0.11870  0.76290  Biso   1.000  O
  O22      1.0000 0.92900  0.61870  0.76290  Biso   1.000  O
  O23      1.0000 0.57100  0.11870  0.23710  Biso   1.000  O
  O24      1.0000 0.07100  0.61870  0.23710  Biso   1.000  O
  N1       1.0000 0.14170  0.95610  0.64110  Biso   1.000  N
  N2       1.0000 0.64170  0.45610  0.64110  Biso   1.000  N
  N3       1.0000 0.85830  0.95610  0.35890  Biso   1.000  N
  N4       1.0000 0.35830  0.45610  0.35890  Biso   1.000  N
  H1       1.0000 0.35170  0.00060  0.45330  Biso   1.000  H
  H2       1.0000 0.85170  0.50060  0.45330  Biso   1.000  H
  H3       1.0000 0.64830  0.00060  0.54670  Biso   1.000  H
  H4       1.0000 0.14830  0.50060  0.54670  Biso   1.000  H
  H5       1.0000 0.39740  0.85410  0.38880  Biso   1.000  H
  H6       1.0000 0.89740  0.35410  0.38880  Biso   1.000  H
  H7       1.0000 0.60260  0.85410  0.61120  Biso   1.000  H
  H8       1.0000 0.10260  0.35410  0.61120  Biso   1.000  H
  H9       1.0000 0.15720  0.78500  0.48670  Biso   1.000  H
  H10      1.0000 0.65720  0.28500  0.48670  Biso   1.000  H
  H11      1.0000 0.84280  0.78500  0.51330  Biso   1.000  H
  H12      1.0000 0.34280  0.28500  0.51330  Biso   1.000  H
  H13      1.0000 0.13350  0.02750  0.57470  Biso   1.000  H
  H14      1.0000 0.63350  0.52750  0.57470  Biso   1.000  H
  H15      1.0000 0.86650  0.02750  0.42530  Biso   1.000  H
  H16      1.0000 0.36650  0.52750  0.42530  Biso   1.000  H
  H17      1.0000 0.05720  0.92480  0.65960  Biso   1.000  H
  H18      1.0000 0.55720  0.42480  0.65960  Biso   1.000  H
  H19      1.0000 0.94280  0.92480  0.34040  Biso   1.000  H
  H20      1.0000 0.44280  0.42480  0.34040  Biso   1.000  H
  H21      1.0000 0.41980  0.19930  0.79820  Biso   1.000  H
  H22      1.0000 0.91980  0.69930  0.79820  Biso   1.000  H
  H23      1.0000 0.58020  0.19930  0.20180  Biso   1.000  H
  H24      1.0000 0.08020  0.69930  0.20180  Biso   1.000  H
  H25      1.0000 0.51340  0.09310  0.79290  Biso   1.000  H
  H26      1.0000 0.01340  0.59310  0.79290  Biso   1.000  H
  H27      1.0000 0.48660  0.09310  0.20710  Biso   1.000  H
  H28      1.0000 0.98660  0.59310  0.20710  Biso   1.000  H
  H29      1.0000 0.13740  0.24030  0.93810  Biso   1.000  H
  H30      1.0000 0.63740  0.74030  0.93810  Biso   1.000  H
  H31      1.0000 0.86260  0.24030  0.06190  Biso   1.000  H
  H32      1.0000 0.36260  0.74030  0.06190  Biso   1.000  H
  H33      1.0000 0.04040  0.16450  0.83990  Biso   1.000  H
  H34      1.0000 0.54040  0.66450  0.83990  Biso   1.000  H
  H35      1.0000 0.95960  0.16450  0.16010  Biso   1.000  H
  H36      1.0000 0.45960  0.66450  0.16010  Biso   1.000  H
