data_image0
_cell_length_a       9.3471
_cell_length_b       15.585
_cell_length_c       12.9025
_cell_angle_alpha    90
_cell_angle_beta     104.714
_cell_angle_gamma    90

_symmetry_space_group_name_H-M    "P 1"
_symmetry_int_tables_number       1

loop_
  _symmetry_equiv_pos_as_xyz
  'x, y, z'

loop_
  _atom_site_label
  _atom_site_occupancy
  _atom_site_fract_x
  _atom_site_fract_y
  _atom_site_fract_z
  _atom_site_thermal_displace_type
  _atom_site_B_iso_or_equiv
  _atom_site_type_symbol
  Cu1      1.0000 0.63109  0.47848  0.56134  Biso   1.000  Cu
  Cu2      1.0000 0.36891  0.97848  0.93866  Biso   1.000  Cu
  Cu3      1.0000 0.36891  0.52152  0.43866  Biso   1.000  Cu
  Cu4      1.0000 0.63109  0.02152  0.06134  Biso   1.000  Cu
  N1       1.0000 0.84500  0.45050  0.66760  Biso   1.000  N
  N2       1.0000 0.15500  0.95050  0.83240  Biso   1.000  N
  N3       1.0000 0.15500  0.54950  0.33240  Biso   1.000  N
  N4       1.0000 0.84500  0.04950  0.16760  Biso   1.000  N
  C1       1.0000 0.96830  0.44480  0.63430  Biso   1.000  C
  C2       1.0000 0.03170  0.94480  0.86570  Biso   1.000  C
  C3       1.0000 0.03170  0.55520  0.36570  Biso   1.000  C
  C4       1.0000 0.96830  0.05520  0.13430  Biso   1.000  C
  N5       1.0000 0.96620  0.41800  0.53650  Biso   1.000  N
  N6       1.0000 0.03380  0.91800  0.96350  Biso   1.000  N
  N7       1.0000 0.03380  0.58200  0.46350  Biso   1.000  N
  N8       1.0000 0.96620  0.08200  0.03650  Biso   1.000  N
  H1       1.0000 0.88190  0.40340  0.49180  Biso   1.000  H
  H2       1.0000 0.11810  0.90340  0.00820  Biso   1.000  H
  H3       1.0000 0.11810  0.59660  0.50820  Biso   1.000  H
  H4       1.0000 0.88190  0.09660  0.99180  Biso   1.000  H
  H5       1.0000 0.04910  0.41470  0.51620  Biso   1.000  H
  H6       1.0000 0.95090  0.91470  0.98380  Biso   1.000  H
  H7       1.0000 0.95090  0.58530  0.48380  Biso   1.000  H
  H8       1.0000 0.04910  0.08530  0.01620  Biso   1.000  H
  H9       1.0000 0.96100  0.43120  0.56130  Biso   1.000  H
  H10      1.0000 0.03900  0.93120  0.93870  Biso   1.000  H
  H11      1.0000 0.03900  0.56880  0.43870  Biso   1.000  H
  H12      1.0000 0.96100  0.06880  0.06130  Biso   1.000  H
  C5       1.0000 0.10590  0.45790  0.70210  Biso   1.000  C
  C6       1.0000 0.89410  0.95790  0.79790  Biso   1.000  C
  C7       1.0000 0.89410  0.54210  0.29790  Biso   1.000  C
  C8       1.0000 0.10590  0.04210  0.20210  Biso   1.000  C
  H13      1.0000 0.19160  0.45660  0.67540  Biso   1.000  H
  H14      1.0000 0.80840  0.95660  0.82460  Biso   1.000  H
  H15      1.0000 0.80840  0.54340  0.32460  Biso   1.000  H
  H16      1.0000 0.19160  0.04340  0.17540  Biso   1.000  H
  C9       1.0000 0.11810  0.47280  0.80810  Biso   1.000  C
  C10      1.0000 0.88190  0.97280  0.69190  Biso   1.000  C
  C11      1.0000 0.88190  0.52720  0.19190  Biso   1.000  C
  C12      1.0000 0.11810  0.02720  0.30810  Biso   1.000  C
  H17      1.0000 0.21240  0.48190  0.85600  Biso   1.000  H
  H18      1.0000 0.78760  0.98190  0.64400  Biso   1.000  H
  H19      1.0000 0.78760  0.51810  0.14400  Biso   1.000  H
  H20      1.0000 0.21240  0.01810  0.35600  Biso   1.000  H
  C13      1.0000 0.99320  0.47460  0.84460  Biso   1.000  C
  C14      1.0000 0.00680  0.97460  0.65540  Biso   1.000  C
  C15      1.0000 0.00680  0.52540  0.15540  Biso   1.000  C
  C16      1.0000 0.99320  0.02540  0.34460  Biso   1.000  C
  C17      1.0000 0.85910  0.46440  0.77150  Biso   1.000  C
  C18      1.0000 0.14090  0.96440  0.72850  Biso   1.000  C
  C19      1.0000 0.14090  0.53560  0.22850  Biso   1.000  C
  C20      1.0000 0.85910  0.03560  0.27150  Biso   1.000  C
  H21      1.0000 0.77190  0.46740  0.79640  Biso   1.000  H
  H22      1.0000 0.22810  0.96740  0.70360  Biso   1.000  H
  H23      1.0000 0.22810  0.53260  0.20360  Biso   1.000  H
  H24      1.0000 0.77190  0.03260  0.29640  Biso   1.000  H
  C21      1.0000 0.99870  0.49150  0.95500  Biso   1.000  C
  C22      1.0000 0.00130  0.99150  0.54500  Biso   1.000  C
  C23      1.0000 0.00130  0.50850  0.04500  Biso   1.000  C
  C24      1.0000 0.99870  0.00850  0.45500  Biso   1.000  C
  C25      1.0000 0.31960  0.30640  0.62380  Biso   1.000  C
  C26      1.0000 0.68040  0.80640  0.87620  Biso   1.000  C
  C27      1.0000 0.68040  0.69360  0.37620  Biso   1.000  C
  C28      1.0000 0.31960  0.19360  0.12380  Biso   1.000  C
  C29      1.0000 0.37440  0.29380  0.73430  Biso   1.000  C
  C30      1.0000 0.62560  0.79380  0.76570  Biso   1.000  C
  C31      1.0000 0.62560  0.70620  0.26570  Biso   1.000  C
  C32      1.0000 0.37440  0.20620  0.23430  Biso   1.000  C
  F1       1.0000 0.47860  0.33710  0.78900  Biso   1.000  F
  F2       1.0000 0.52140  0.83710  0.71100  Biso   1.000  F
  F3       1.0000 0.52140  0.66290  0.21100  Biso   1.000  F
  F4       1.0000 0.47860  0.16290  0.28900  Biso   1.000  F
  H25      1.0000 0.46050  0.32380  0.77160  Biso   1.000  H
  H26      1.0000 0.53950  0.82380  0.72840  Biso   1.000  H
  H27      1.0000 0.53950  0.67620  0.22840  Biso   1.000  H
  H28      1.0000 0.46050  0.17620  0.27160  Biso   1.000  H
  C33      1.0000 0.30650  0.23920  0.78930  Biso   1.000  C
  C34      1.0000 0.69350  0.73920  0.71070  Biso   1.000  C
  C35      1.0000 0.69350  0.76080  0.21070  Biso   1.000  C
  C36      1.0000 0.30650  0.26080  0.28930  Biso   1.000  C
  H29      1.0000 0.34420  0.23280  0.86450  Biso   1.000  H
  H30      1.0000 0.65580  0.73280  0.63550  Biso   1.000  H
  H31      1.0000 0.65580  0.76720  0.13550  Biso   1.000  H
  H32      1.0000 0.34420  0.26720  0.36450  Biso   1.000  H
  C37      1.0000 0.18720  0.19470  0.73820  Biso   1.000  C
  C38      1.0000 0.81280  0.69470  0.76180  Biso   1.000  C
  C39      1.0000 0.81280  0.80530  0.26180  Biso   1.000  C
  C40      1.0000 0.18720  0.30530  0.23820  Biso   1.000  C
  H33      1.0000 0.14170  0.15650  0.77760  Biso   1.000  H
  H34      1.0000 0.85830  0.65650  0.72240  Biso   1.000  H
  H35      1.0000 0.85830  0.84350  0.22240  Biso   1.000  H
  H36      1.0000 0.14170  0.34350  0.27760  Biso   1.000  H
  C41      1.0000 0.12930  0.20310  0.62990  Biso   1.000  C
  C42      1.0000 0.87070  0.70310  0.87010  Biso   1.000  C
  C43      1.0000 0.87070  0.79690  0.37010  Biso   1.000  C
  C44      1.0000 0.12930  0.29690  0.12990  Biso   1.000  C
  H37      1.0000 0.04550  0.17040  0.59400  Biso   1.000  H
  H38      1.0000 0.95450  0.67040  0.90600  Biso   1.000  H
  H39      1.0000 0.95450  0.82960  0.40600  Biso   1.000  H
  H40      1.0000 0.04550  0.32960  0.09400  Biso   1.000  H
  C45      1.0000 0.19550  0.26040  0.57350  Biso   1.000  C
  C46      1.0000 0.80450  0.76040  0.92650  Biso   1.000  C
  C47      1.0000 0.80450  0.73960  0.42650  Biso   1.000  C
  C48      1.0000 0.19550  0.23960  0.07350  Biso   1.000  C
  H41      1.0000 0.15420  0.26790  0.49880  Biso   1.000  H
  H42      1.0000 0.84580  0.76790  0.00120  Biso   1.000  H
  H43      1.0000 0.84580  0.73210  0.50120  Biso   1.000  H
  H44      1.0000 0.15420  0.23210  0.99880  Biso   1.000  H
  F5       1.0000 0.13770  0.26380  0.47850  Biso   1.000  F
  F6       1.0000 0.86230  0.76380  0.02150  Biso   1.000  F
  F7       1.0000 0.86230  0.73620  0.52150  Biso   1.000  F
  F8       1.0000 0.13770  0.23620  0.97850  Biso   1.000  F
  C49      1.0000 0.38600  0.37210  0.56810  Biso   1.000  C
  C50      1.0000 0.61400  0.87210  0.93190  Biso   1.000  C
  C51      1.0000 0.61400  0.62790  0.43190  Biso   1.000  C
  C52      1.0000 0.38600  0.12790  0.06810  Biso   1.000  C
  O1       1.0000 0.52350  0.38130  0.59870  Biso   1.000  O
  O2       1.0000 0.47650  0.88130  0.90130  Biso   1.000  O
  O3       1.0000 0.47650  0.61870  0.40130  Biso   1.000  O
  O4       1.0000 0.52350  0.11870  0.09870  Biso   1.000  O
  O5       1.0000 0.30090  0.41620  0.49690  Biso   1.000  O
  O6       1.0000 0.69910  0.91620  0.00310  Biso   1.000  O
  O7       1.0000 0.69910  0.58380  0.50310  Biso   1.000  O
  O8       1.0000 0.30090  0.08380  0.99690  Biso   1.000  O
  C53      1.0000 0.59840  0.38190  0.25030  Biso   1.000  C
  C54      1.0000 0.40160  0.88190  0.24970  Biso   1.000  C
  C55      1.0000 0.40160  0.61810  0.74970  Biso   1.000  C
  C56      1.0000 0.59840  0.11810  0.75030  Biso   1.000  C
  C57      1.0000 0.71200  0.32410  0.25810  Biso   1.000  C
  C58      1.0000 0.28800  0.82410  0.24190  Biso   1.000  C
  C59      1.0000 0.28800  0.67590  0.74190  Biso   1.000  C
  C60      1.0000 0.71200  0.17590  0.75810  Biso   1.000  C
  F9       1.0000 0.79050  0.29570  0.34880  Biso   1.000  F
  F10      1.0000 0.20950  0.79570  0.15120  Biso   1.000  F
  F11      1.0000 0.20950  0.70430  0.65120  Biso   1.000  F
  F12      1.0000 0.79050  0.20430  0.84880  Biso   1.000  F
  H45      1.0000 0.77010  0.30790  0.32700  Biso   1.000  H
  H46      1.0000 0.22990  0.80790  0.17300  Biso   1.000  H
  H47      1.0000 0.22990  0.69210  0.67300  Biso   1.000  H
  H48      1.0000 0.77010  0.19210  0.82700  Biso   1.000  H
  C61      1.0000 0.74360  0.28900  0.16740  Biso   1.000  C
  C62      1.0000 0.25640  0.78900  0.33260  Biso   1.000  C
  C63      1.0000 0.25640  0.71100  0.83260  Biso   1.000  C
  C64      1.0000 0.74360  0.21100  0.66740  Biso   1.000  C
  H49      1.0000 0.82100  0.24820  0.17410  Biso   1.000  H
  H50      1.0000 0.17900  0.74820  0.32590  Biso   1.000  H
  H51      1.0000 0.17900  0.75180  0.82590  Biso   1.000  H
  H52      1.0000 0.82100  0.25180  0.67410  Biso   1.000  H
  C65      1.0000 0.66230  0.31380  0.06890  Biso   1.000  C
  C66      1.0000 0.33770  0.81380  0.43110  Biso   1.000  C
  C67      1.0000 0.33770  0.68620  0.93110  Biso   1.000  C
  C68      1.0000 0.66230  0.18620  0.56890  Biso   1.000  C
  H53      1.0000 0.68330  0.29020  0.00650  Biso   1.000  H
  H54      1.0000 0.31670  0.79020  0.49350  Biso   1.000  H
  H55      1.0000 0.31670  0.70980  0.99350  Biso   1.000  H
  H56      1.0000 0.68330  0.20980  0.50650  Biso   1.000  H
  C69      1.0000 0.55120  0.37210  0.05850  Biso   1.000  C
  C70      1.0000 0.44880  0.87210  0.44150  Biso   1.000  C
  C71      1.0000 0.44880  0.62790  0.94150  Biso   1.000  C
  C72      1.0000 0.55120  0.12790  0.55850  Biso   1.000  C
  H57      1.0000 0.49690  0.38980  0.98920  Biso   1.000  H
  H58      1.0000 0.50310  0.88980  0.51080  Biso   1.000  H
  H59      1.0000 0.50310  0.61020  0.01080  Biso   1.000  H
  H60      1.0000 0.49690  0.11020  0.48920  Biso   1.000  H
  C73      1.0000 0.51740  0.40530  0.14730  Biso   1.000  C
  C74      1.0000 0.48260  0.90530  0.35270  Biso   1.000  C
  C75      1.0000 0.48260  0.59470  0.85270  Biso   1.000  C
  C76      1.0000 0.51740  0.09470  0.64730  Biso   1.000  C
  H61      1.0000 0.43790  0.44480  0.13910  Biso   1.000  H
  H62      1.0000 0.56210  0.94480  0.36090  Biso   1.000  H
  H63      1.0000 0.56210  0.55520  0.86090  Biso   1.000  H
  H64      1.0000 0.43790  0.05520  0.63910  Biso   1.000  H
  F13      1.0000 0.42330  0.45830  0.12610  Biso   1.000  F
  F14      1.0000 0.57670  0.95830  0.37390  Biso   1.000  F
  F15      1.0000 0.57670  0.54170  0.87390  Biso   1.000  F
  F16      1.0000 0.42330  0.04170  0.62610  Biso   1.000  F
  C77      1.0000 0.56250  0.42100  0.34640  Biso   1.000  C
  C78      1.0000 0.43750  0.92100  0.15360  Biso   1.000  C
  C79      1.0000 0.43750  0.57900  0.65360  Biso   1.000  C
  C80      1.0000 0.56250  0.07900  0.84640  Biso   1.000  C
  O9       1.0000 0.65850  0.41830  0.43410  Biso   1.000  O
  O10      1.0000 0.34150  0.91830  0.06590  Biso   1.000  O
  O11      1.0000 0.34150  0.58170  0.56590  Biso   1.000  O
  O12      1.0000 0.65850  0.08170  0.93410  Biso   1.000  O
  O13      1.0000 0.43810  0.45540  0.33190  Biso   1.000  O
  O14      1.0000 0.56190  0.95540  0.16810  Biso   1.000  O
  O15      1.0000 0.56190  0.54460  0.66810  Biso   1.000  O
  O16      1.0000 0.43810  0.04460  0.83190  Biso   1.000  O
