data_image0
_cell_length_a       8.1368
_cell_length_b       8.3062
_cell_length_c       8.749
_cell_angle_alpha    86.244
_cell_angle_beta     80.48
_cell_angle_gamma    80.539

_symmetry_space_group_name_H-M    "P 1"
_symmetry_int_tables_number       1

loop_
  _symmetry_equiv_pos_as_xyz
  'x, y, z'

loop_
  _atom_site_label
  _atom_site_occupancy
  _atom_site_fract_x
  _atom_site_fract_y
  _atom_site_fract_z
  _atom_site_thermal_displace_type
  _atom_site_B_iso_or_equiv
  _atom_site_type_symbol
  Cu1      1.0000 0.42437  0.45217  0.13812  Biso   1.000  Cu
  Cu2      1.0000 0.57563  0.54783  0.86188  Biso   1.000  Cu
  N1       1.0000 0.29139  0.38308  0.36650  Biso   1.000  N
  N2       1.0000 0.70861  0.61692  0.63350  Biso   1.000  N
  C1       1.0000 0.21730  0.24960  0.37313  Biso   1.000  C
  C2       1.0000 0.78270  0.75040  0.62687  Biso   1.000  C
  H1       1.0000 0.24070  0.18330  0.28530  Biso   1.000  H
  H2       1.0000 0.75930  0.81670  0.71470  Biso   1.000  H
  C3       1.0000 0.10820  0.20320  0.50150  Biso   1.000  C
  C4       1.0000 0.89180  0.79680  0.49850  Biso   1.000  C
  C5       1.0000 0.07270  0.30300  0.62950  Biso   1.000  C
  C6       1.0000 0.92730  0.69700  0.37050  Biso   1.000  C
  H3       1.0000 0.99550  0.27790  0.71830  Biso   1.000  H
  H4       1.0000 0.00450  0.72210  0.28170  Biso   1.000  H
  C7       1.0000 0.15100  0.43680  0.62430  Biso   1.000  C
  C8       1.0000 0.84900  0.56320  0.37570  Biso   1.000  C
  H5       1.0000 0.13120  0.50380  0.71150  Biso   1.000  H
  H6       1.0000 0.86880  0.49620  0.28850  Biso   1.000  H
  C9       1.0000 0.25950  0.47550  0.49200  Biso   1.000  C
  C10      1.0000 0.74050  0.52450  0.50800  Biso   1.000  C
  N3       1.0000 0.32290  0.60680  0.50350  Biso   1.000  N
  N4       1.0000 0.67710  0.39320  0.49650  Biso   1.000  N
  H7       1.0000 0.39280  0.64160  0.42530  Biso   1.000  H
  H8       1.0000 0.60720  0.35840  0.57470  Biso   1.000  H
  H9       1.0000 0.29610  0.66100  0.58950  Biso   1.000  H
  H10      1.0000 0.70390  0.33900  0.41050  Biso   1.000  H
  H11      1.0000 0.31240  0.56960  0.49000  Biso   1.000  H
  H12      1.0000 0.68760  0.43040  0.51000  Biso   1.000  H
  C11      1.0000 0.03240  0.05990  0.49980  Biso   1.000  C
  C12      1.0000 0.96760  0.94010  0.50020  Biso   1.000  C
  C13      1.0000 0.77650  0.33320  0.05460  Biso   1.000  C
  C14      1.0000 0.22350  0.66680  0.94540  Biso   1.000  C
  O1       1.0000 0.64950  0.33078  0.15945  Biso   1.000  O
  O2       1.0000 0.35050  0.66922  0.84055  Biso   1.000  O
  O3       1.0000 0.77700  0.41370  0.92763  Biso   1.000  O
  O4       1.0000 0.22300  0.58630  0.07237  Biso   1.000  O
  C15      1.0000 0.94080  0.23080  0.08240  Biso   1.000  C
  C16      1.0000 0.05920  0.76920  0.91760  Biso   1.000  C
  H13      1.0000 0.92700  0.18050  0.18730  Biso   1.000  H
  H14      1.0000 0.07300  0.81950  0.81270  Biso   1.000  H
  H15      1.0000 0.02880  0.30030  0.07160  Biso   1.000  H
  H16      1.0000 0.97120  0.69970  0.92840  Biso   1.000  H
  H17      1.0000 0.97330  0.14520  0.00640  Biso   1.000  H
  H18      1.0000 0.02670  0.85480  0.99360  Biso   1.000  H
  C17      1.0000 0.56590  0.75070  0.11530  Biso   1.000  C
  C18      1.0000 0.43410  0.24930  0.88470  Biso   1.000  C
  O5       1.0000 0.48989  0.65158  0.20408  Biso   1.000  O
  O6       1.0000 0.51011  0.34842  0.79592  Biso   1.000  O
  O7       1.0000 0.61706  0.73278  0.97249  Biso   1.000  O
  O8       1.0000 0.38294  0.26722  0.02751  Biso   1.000  O
  C19      1.0000 0.59450  0.90300  0.18390  Biso   1.000  C
  C20      1.0000 0.40550  0.09700  0.81610  Biso   1.000  C
  H19      1.0000 0.57620  0.89000  0.29730  Biso   1.000  H
  H20      1.0000 0.42380  0.11000  0.70270  Biso   1.000  H
  H21      1.0000 0.51540  0.99630  0.15190  Biso   1.000  H
  H22      1.0000 0.48460  0.00370  0.84810  Biso   1.000  H
  H23      1.0000 0.71040  0.92210  0.14740  Biso   1.000  H
  H24      1.0000 0.28960  0.07790  0.85260  Biso   1.000  H
