data_image0
_cell_length_a       12.3765
_cell_length_b       12.7299
_cell_length_c       12.5812
_cell_angle_alpha    90
_cell_angle_beta     91.024
_cell_angle_gamma    90

_symmetry_space_group_name_H-M    "P 1"
_symmetry_int_tables_number       1

loop_
  _symmetry_equiv_pos_as_xyz
  'x, y, z'

loop_
  _atom_site_label
  _atom_site_occupancy
  _atom_site_fract_x
  _atom_site_fract_y
  _atom_site_fract_z
  _atom_site_thermal_displace_type
  _atom_site_B_iso_or_equiv
  _atom_site_type_symbol
  Cu1      1.0000 0.38709  0.24635  0.34133  Biso   1.000  Cu
  Cu2      1.0000 0.11291  0.74635  0.15867  Biso   1.000  Cu
  Cu3      1.0000 0.61291  0.75365  0.65867  Biso   1.000  Cu
  Cu4      1.0000 0.88709  0.25365  0.84133  Biso   1.000  Cu
  O1       1.0000 0.53907  0.21021  0.32771  Biso   1.000  O
  O2       1.0000 0.96093  0.71021  0.17229  Biso   1.000  O
  O3       1.0000 0.46093  0.78979  0.67229  Biso   1.000  O
  O4       1.0000 0.03907  0.28979  0.82771  Biso   1.000  O
  O5       1.0000 0.55380  0.11114  0.47437  Biso   1.000  O
  O6       1.0000 0.94620  0.61114  0.02563  Biso   1.000  O
  O7       1.0000 0.44620  0.88886  0.52563  Biso   1.000  O
  O8       1.0000 0.05380  0.38886  0.97437  Biso   1.000  O
  O9       1.0000 0.23673  0.29647  0.35028  Biso   1.000  O
  O10      1.0000 0.26327  0.79647  0.14972  Biso   1.000  O
  O11      1.0000 0.76327  0.70353  0.64972  Biso   1.000  O
  O12      1.0000 0.73673  0.20353  0.85028  Biso   1.000  O
  O13      1.0000 0.23495  0.41476  0.21791  Biso   1.000  O
  O14      1.0000 0.26505  0.91476  0.28209  Biso   1.000  O
  O15      1.0000 0.76505  0.58524  0.78209  Biso   1.000  O
  O16      1.0000 0.73495  0.08524  0.71791  Biso   1.000  O
  N1       1.0000 0.89842  0.15374  0.15221  Biso   1.000  N
  N2       1.0000 0.60158  0.65374  0.34779  Biso   1.000  N
  N3       1.0000 0.10158  0.84626  0.84779  Biso   1.000  N
  N4       1.0000 0.39842  0.34626  0.65221  Biso   1.000  N
  N5       1.0000 0.99630  0.11260  0.12540  Biso   1.000  N
  N6       1.0000 0.50370  0.61260  0.37460  Biso   1.000  N
  N7       1.0000 0.00370  0.88740  0.87460  Biso   1.000  N
  N8       1.0000 0.49630  0.38740  0.62540  Biso   1.000  N
  N9       1.0000 0.91533  0.18790  0.98402  Biso   1.000  N
  N10      1.0000 0.58467  0.68790  0.51598  Biso   1.000  N
  N11      1.0000 0.08467  0.81210  0.01598  Biso   1.000  N
  N12      1.0000 0.41533  0.31210  0.48402  Biso   1.000  N
  N13      1.0000 0.88301  0.37013  0.53546  Biso   1.000  N
  N14      1.0000 0.61699  0.87013  0.96454  Biso   1.000  N
  N15      1.0000 0.11699  0.62987  0.46454  Biso   1.000  N
  N16      1.0000 0.38301  0.12987  0.03546  Biso   1.000  N
  N17      1.0000 0.77734  0.39350  0.55780  Biso   1.000  N
  N18      1.0000 0.72266  0.89350  0.94220  Biso   1.000  N
  N19      1.0000 0.22266  0.60650  0.44220  Biso   1.000  N
  N20      1.0000 0.27734  0.10650  0.05780  Biso   1.000  N
  N21      1.0000 0.85965  0.31722  0.69796  Biso   1.000  N
  N22      1.0000 0.64035  0.81722  0.80204  Biso   1.000  N
  N23      1.0000 0.14035  0.68278  0.30204  Biso   1.000  N
  N24      1.0000 0.35965  0.18278  0.19796  Biso   1.000  N
  C1       1.0000 0.71130  0.14930  0.37810  Biso   1.000  C
  C2       1.0000 0.78870  0.64930  0.12190  Biso   1.000  C
  C3       1.0000 0.28870  0.85070  0.62190  Biso   1.000  C
  C4       1.0000 0.21130  0.35070  0.87810  Biso   1.000  C
  C5       1.0000 0.75090  0.15870  0.27530  Biso   1.000  C
  C6       1.0000 0.74910  0.65870  0.22470  Biso   1.000  C
  C7       1.0000 0.24910  0.84130  0.72470  Biso   1.000  C
  C8       1.0000 0.25090  0.34130  0.77530  Biso   1.000  C
  H1       1.0000 0.70390  0.17280  0.21860  Biso   1.000  H
  H2       1.0000 0.79610  0.67280  0.28140  Biso   1.000  H
  H3       1.0000 0.29610  0.82720  0.78140  Biso   1.000  H
  H4       1.0000 0.20390  0.32720  0.71860  Biso   1.000  H
  C9       1.0000 0.85990  0.14690  0.25840  Biso   1.000  C
  C10      1.0000 0.64010  0.64690  0.24160  Biso   1.000  C
  C11      1.0000 0.14010  0.85310  0.74160  Biso   1.000  C
  C12      1.0000 0.35990  0.35310  0.75840  Biso   1.000  C
  C13      1.0000 0.93210  0.12960  0.34210  Biso   1.000  C
  C14      1.0000 0.56790  0.62960  0.15790  Biso   1.000  C
  C15      1.0000 0.06790  0.87040  0.65790  Biso   1.000  C
  C16      1.0000 0.43210  0.37040  0.84210  Biso   1.000  C
  H5       1.0000 0.00580  0.12400  0.33010  Biso   1.000  H
  H6       1.0000 0.49420  0.62400  0.16990  Biso   1.000  H
  H7       1.0000 0.99420  0.87600  0.66990  Biso   1.000  H
  H8       1.0000 0.50580  0.37600  0.83010  Biso   1.000  H
  C17      1.0000 0.89240  0.12080  0.44390  Biso   1.000  C
  C18      1.0000 0.60760  0.62080  0.05610  Biso   1.000  C
  C19      1.0000 0.10760  0.87920  0.55610  Biso   1.000  C
  C20      1.0000 0.39240  0.37920  0.94390  Biso   1.000  C
  H9       1.0000 0.93990  0.10890  0.50070  Biso   1.000  H
  H10      1.0000 0.56010  0.60890  0.99930  Biso   1.000  H
  H11      1.0000 0.06010  0.89110  0.49930  Biso   1.000  H
  H12      1.0000 0.43990  0.39110  0.00070  Biso   1.000  H
  C21      1.0000 0.78370  0.12960  0.46200  Biso   1.000  C
  C22      1.0000 0.71630  0.62960  0.03800  Biso   1.000  C
  C23      1.0000 0.21630  0.87040  0.53800  Biso   1.000  C
  C24      1.0000 0.28370  0.37040  0.96200  Biso   1.000  C
  H13      1.0000 0.75820  0.12230  0.53070  Biso   1.000  H
  H14      1.0000 0.74180  0.62230  0.96930  Biso   1.000  H
  H15      1.0000 0.24180  0.87770  0.46930  Biso   1.000  H
  H16      1.0000 0.25820  0.37770  0.03070  Biso   1.000  H
  C25      1.0000 0.59260  0.15660  0.39700  Biso   1.000  C
  C26      1.0000 0.90740  0.65660  0.10300  Biso   1.000  C
  C27      1.0000 0.40740  0.84340  0.60300  Biso   1.000  C
  C28      1.0000 0.09260  0.34340  0.89700  Biso   1.000  C
  C29      1.0000 0.85240  0.19780  0.06740  Biso   1.000  C
  C30      1.0000 0.64760  0.69780  0.43260  Biso   1.000  C
  C31      1.0000 0.14760  0.80220  0.93260  Biso   1.000  C
  C32      1.0000 0.35240  0.30220  0.56740  Biso   1.000  C
  H17      1.0000 0.78540  0.23090  0.06650  Biso   1.000  H
  H18      1.0000 0.71460  0.73090  0.43350  Biso   1.000  H
  H19      1.0000 0.21460  0.76910  0.93350  Biso   1.000  H
  H20      1.0000 0.28540  0.26910  0.56650  Biso   1.000  H
  C33      1.0000 0.00220  0.13610  0.02330  Biso   1.000  C
  C34      1.0000 0.49780  0.63610  0.47670  Biso   1.000  C
  C35      1.0000 0.99780  0.86390  0.97670  Biso   1.000  C
  C36      1.0000 0.50220  0.36390  0.52330  Biso   1.000  C
  H21      1.0000 0.06110  0.11840  0.98220  Biso   1.000  H
  H22      1.0000 0.43890  0.61840  0.51780  Biso   1.000  H
  H23      1.0000 0.93890  0.88160  0.01780  Biso   1.000  H
  H24      1.0000 0.56110  0.38160  0.48220  Biso   1.000  H
  C37      1.0000 0.07370  0.38350  0.31230  Biso   1.000  C
  C38      1.0000 0.42630  0.88350  0.18770  Biso   1.000  C
  C39      1.0000 0.92630  0.61650  0.68770  Biso   1.000  C
  C40      1.0000 0.57370  0.11650  0.81230  Biso   1.000  C
  C41      1.0000 0.03350  0.37040  0.41380  Biso   1.000  C
  C42      1.0000 0.46650  0.87040  0.08620  Biso   1.000  C
  C43      1.0000 0.96650  0.62960  0.58620  Biso   1.000  C
  C44      1.0000 0.53350  0.12960  0.91380  Biso   1.000  C
  H25      1.0000 0.07950  0.35040  0.46940  Biso   1.000  H
  H26      1.0000 0.42050  0.85040  0.03060  Biso   1.000  H
  H27      1.0000 0.92050  0.64960  0.53060  Biso   1.000  H
  H28      1.0000 0.57950  0.14960  0.96940  Biso   1.000  H
  C45      1.0000 0.92530  0.38700  0.43180  Biso   1.000  C
  C46      1.0000 0.57470  0.88700  0.06820  Biso   1.000  C
  C47      1.0000 0.07470  0.61300  0.56820  Biso   1.000  C
  C48      1.0000 0.42530  0.11300  0.93180  Biso   1.000  C
  C49      1.0000 0.85530  0.41430  0.34920  Biso   1.000  C
  C50      1.0000 0.64470  0.91430  0.15080  Biso   1.000  C
  C51      1.0000 0.14470  0.58570  0.65080  Biso   1.000  C
  C52      1.0000 0.35530  0.08570  0.84920  Biso   1.000  C
  H29      1.0000 0.78230  0.42470  0.36160  Biso   1.000  H
  H30      1.0000 0.71770  0.92470  0.13840  Biso   1.000  H
  H31      1.0000 0.21770  0.57530  0.63840  Biso   1.000  H
  H32      1.0000 0.28230  0.07530  0.86160  Biso   1.000  H
  C53      1.0000 0.89570  0.42570  0.24780  Biso   1.000  C
  C54      1.0000 0.60430  0.92570  0.25220  Biso   1.000  C
  C55      1.0000 0.10430  0.57430  0.75220  Biso   1.000  C
  C56      1.0000 0.39570  0.07430  0.74780  Biso   1.000  C
  H33      1.0000 0.84900  0.44340  0.19190  Biso   1.000  H
  H34      1.0000 0.65100  0.94340  0.30810  Biso   1.000  H
  H35      1.0000 0.15100  0.55660  0.80810  Biso   1.000  H
  H36      1.0000 0.34900  0.05660  0.69190  Biso   1.000  H
  C57      1.0000 0.00370  0.41130  0.22870  Biso   1.000  C
  C58      1.0000 0.49630  0.91130  0.27130  Biso   1.000  C
  C59      1.0000 0.99630  0.58870  0.77130  Biso   1.000  C
  C60      1.0000 0.50370  0.08870  0.72870  Biso   1.000  C
  H37      1.0000 0.03000  0.42000  0.16050  Biso   1.000  H
  H38      1.0000 0.47000  0.92000  0.33950  Biso   1.000  H
  H39      1.0000 0.97000  0.58000  0.83950  Biso   1.000  H
  H40      1.0000 0.53000  0.08000  0.66050  Biso   1.000  H
  C61      1.0000 0.19070  0.36440  0.29120  Biso   1.000  C
  C62      1.0000 0.30930  0.86440  0.20880  Biso   1.000  C
  C63      1.0000 0.80930  0.63560  0.70880  Biso   1.000  C
  C64      1.0000 0.69070  0.13560  0.79120  Biso   1.000  C
  C65      1.0000 0.92980  0.32550  0.62030  Biso   1.000  C
  C66      1.0000 0.57020  0.82550  0.87970  Biso   1.000  C
  C67      1.0000 0.07020  0.67450  0.37970  Biso   1.000  C
  C68      1.0000 0.42980  0.17450  0.12030  Biso   1.000  C
  H41      1.0000 0.00140  0.30340  0.62440  Biso   1.000  H
  H42      1.0000 0.49860  0.80340  0.87560  Biso   1.000  H
  H43      1.0000 0.99860  0.69660  0.37560  Biso   1.000  H
  H44      1.0000 0.50140  0.19660  0.12440  Biso   1.000  H
  C69      1.0000 0.76840  0.35980  0.65570  Biso   1.000  C
  C70      1.0000 0.73160  0.85980  0.84430  Biso   1.000  C
  C71      1.0000 0.23160  0.64020  0.34430  Biso   1.000  C
  C72      1.0000 0.26840  0.14020  0.15570  Biso   1.000  C
  H45      1.0000 0.70450  0.36470  0.69310  Biso   1.000  H
  H46      1.0000 0.79550  0.86470  0.80690  Biso   1.000  H
  H47      1.0000 0.29550  0.63530  0.30690  Biso   1.000  H
  H48      1.0000 0.20450  0.13530  0.19310  Biso   1.000  H
  O17      1.0000 0.32603  0.08834  0.43053  Biso   1.000  O
  O18      1.0000 0.17397  0.58834  0.06947  Biso   1.000  O
  O19      1.0000 0.67397  0.91166  0.56947  Biso   1.000  O
  O20      1.0000 0.82603  0.41166  0.93053  Biso   1.000  O
  H49      1.0000 0.37860  0.06830  0.46990  Biso   1.000  H
  H50      1.0000 0.12140  0.56830  0.03010  Biso   1.000  H
  H51      1.0000 0.62140  0.93170  0.53010  Biso   1.000  H
  H52      1.0000 0.87860  0.43170  0.96990  Biso   1.000  H
  H53      1.0000 0.30830  0.03930  0.38790  Biso   1.000  H
  H54      1.0000 0.19170  0.53930  0.11210  Biso   1.000  H
  H55      1.0000 0.69170  0.96070  0.61210  Biso   1.000  H
  H56      1.0000 0.80830  0.46070  0.88790  Biso   1.000  H
  O21      1.0000 0.45245  0.41542  0.23710  Biso   1.000  O
  O22      1.0000 0.04755  0.91542  0.26290  Biso   1.000  O
  O23      1.0000 0.54755  0.58458  0.76290  Biso   1.000  O
  O24      1.0000 0.95245  0.08458  0.73710  Biso   1.000  O
  H57      1.0000 0.46730  0.46380  0.28160  Biso   1.000  H
  H58      1.0000 0.03270  0.96380  0.21840  Biso   1.000  H
  H59      1.0000 0.53270  0.53620  0.71840  Biso   1.000  H
  H60      1.0000 0.96730  0.03620  0.78160  Biso   1.000  H
  H61      1.0000 0.38590  0.41880  0.21940  Biso   1.000  H
  H62      1.0000 0.11410  0.91880  0.28060  Biso   1.000  H
  H63      1.0000 0.61410  0.58120  0.78060  Biso   1.000  H
  H64      1.0000 0.88590  0.08120  0.71940  Biso   1.000  H
  O25      1.0000 0.86070  0.84170  0.40680  Biso   1.000  O
  O26      1.0000 0.63930  0.34170  0.09320  Biso   1.000  O
  O27      1.0000 0.13930  0.15830  0.59320  Biso   1.000  O
  O28      1.0000 0.36070  0.65830  0.90680  Biso   1.000  O
  H65      1.0000 0.87880  0.87980  0.35460  Biso   1.000  H
  H66      1.0000 0.62120  0.37980  0.14540  Biso   1.000  H
  H67      1.0000 0.12120  0.12020  0.64540  Biso   1.000  H
  H68      1.0000 0.37880  0.62020  0.85460  Biso   1.000  H
  H69      1.0000 0.83180  0.87980  0.45390  Biso   1.000  H
  H70      1.0000 0.66820  0.37980  0.04610  Biso   1.000  H
  H71      1.0000 0.16820  0.12020  0.54610  Biso   1.000  H
  H72      1.0000 0.33180  0.62020  0.95390  Biso   1.000  H
