data_image0
_cell_length_a       12.374
_cell_length_b       12.73
_cell_length_c       12.561
_cell_angle_alpha    90
_cell_angle_beta     91.105
_cell_angle_gamma    90

_symmetry_space_group_name_H-M    "P 1"
_symmetry_int_tables_number       1

loop_
  _symmetry_equiv_pos_as_xyz
  'x, y, z'

loop_
  _atom_site_label
  _atom_site_occupancy
  _atom_site_fract_x
  _atom_site_fract_y
  _atom_site_fract_z
  _atom_site_thermal_displace_type
  _atom_site_B_iso_or_equiv
  _atom_site_type_symbol
  Cu1      1.0000 0.38723  0.25324  0.84103  Biso   1.000  Cu
  Cu2      1.0000 0.11277  0.75324  0.65897  Biso   1.000  Cu
  Cu3      1.0000 0.61277  0.74676  0.15897  Biso   1.000  Cu
  Cu4      1.0000 0.88723  0.24676  0.34103  Biso   1.000  Cu
  O1       1.0000 0.53934  0.28950  0.82773  Biso   1.000  O
  O2       1.0000 0.96066  0.78950  0.67227  Biso   1.000  O
  O3       1.0000 0.46066  0.71050  0.17227  Biso   1.000  O
  O4       1.0000 0.03934  0.21050  0.32773  Biso   1.000  O
  O5       1.0000 0.23683  0.20327  0.84991  Biso   1.000  O
  O6       1.0000 0.26317  0.70327  0.65009  Biso   1.000  O
  O7       1.0000 0.76317  0.79673  0.15009  Biso   1.000  O
  O8       1.0000 0.73683  0.29673  0.34991  Biso   1.000  O
  N1       1.0000 0.88246  0.13005  0.03551  Biso   1.000  N
  N2       1.0000 0.61754  0.63005  0.46449  Biso   1.000  N
  N3       1.0000 0.11754  0.86995  0.96449  Biso   1.000  N
  N4       1.0000 0.38246  0.36995  0.53551  Biso   1.000  N
  N5       1.0000 0.89879  0.34670  0.65180  Biso   1.000  N
  N6       1.0000 0.60121  0.84670  0.84820  Biso   1.000  N
  N7       1.0000 0.10121  0.65330  0.34820  Biso   1.000  N
  N8       1.0000 0.39879  0.15330  0.15180  Biso   1.000  N
  N9       1.0000 0.85958  0.18280  0.19762  Biso   1.000  N
  N10      1.0000 0.64042  0.68280  0.30238  Biso   1.000  N
  N11      1.0000 0.14042  0.81720  0.80238  Biso   1.000  N
  N12      1.0000 0.35958  0.31720  0.69762  Biso   1.000  N
  O9       1.0000 0.23462  0.08497  0.71773  Biso   1.000  O
  O10      1.0000 0.26538  0.58497  0.78227  Biso   1.000  O
  O11      1.0000 0.76538  0.91503  0.28227  Biso   1.000  O
  O12      1.0000 0.73462  0.41503  0.21773  Biso   1.000  O
  N13      1.0000 0.91568  0.31259  0.48393  Biso   1.000  N
  N14      1.0000 0.58432  0.81259  0.01607  Biso   1.000  N
  N15      1.0000 0.08432  0.68741  0.51607  Biso   1.000  N
  N16      1.0000 0.41568  0.18741  0.98393  Biso   1.000  N
  C1       1.0000 0.75081  0.34175  0.77486  Biso   1.000  C
  C2       1.0000 0.74919  0.84175  0.72514  Biso   1.000  C
  C3       1.0000 0.24919  0.65825  0.22514  Biso   1.000  C
  C4       1.0000 0.25081  0.15825  0.27486  Biso   1.000  C
  H1       1.0000 0.70380  0.32760  0.71800  Biso   1.000  H
  H2       1.0000 0.79620  0.82760  0.78200  Biso   1.000  H
  H3       1.0000 0.29620  0.67240  0.28200  Biso   1.000  H
  H4       1.0000 0.20380  0.17240  0.21800  Biso   1.000  H
  C5       1.0000 0.78372  0.37072  0.96175  Biso   1.000  C
  C6       1.0000 0.71628  0.87072  0.53825  Biso   1.000  C
  C7       1.0000 0.21628  0.62928  0.03825  Biso   1.000  C
  C8       1.0000 0.28372  0.12928  0.46175  Biso   1.000  C
  H5       1.0000 0.75810  0.37780  0.03050  Biso   1.000  H
  H6       1.0000 0.74190  0.87780  0.46950  Biso   1.000  H
  H7       1.0000 0.24190  0.62220  0.96950  Biso   1.000  H
  H8       1.0000 0.25810  0.12220  0.53050  Biso   1.000  H
  N17      1.0000 0.99672  0.38765  0.62541  Biso   1.000  N
  N18      1.0000 0.50328  0.88765  0.87459  Biso   1.000  N
  N19      1.0000 0.00328  0.61235  0.37459  Biso   1.000  N
  N20      1.0000 0.49672  0.11235  0.12541  Biso   1.000  N
  C9       1.0000 0.19108  0.13515  0.79128  Biso   1.000  C
  C10      1.0000 0.30892  0.63515  0.70872  Biso   1.000  C
  C11      1.0000 0.80892  0.86485  0.20872  Biso   1.000  C
  C12      1.0000 0.69108  0.36485  0.29128  Biso   1.000  C
  C13      1.0000 0.85996  0.35362  0.75841  Biso   1.000  C
  C14      1.0000 0.64004  0.85362  0.74159  Biso   1.000  C
  C15      1.0000 0.14004  0.64638  0.24159  Biso   1.000  C
  C16      1.0000 0.35996  0.14638  0.25841  Biso   1.000  C
  N21      1.0000 0.77737  0.10680  0.05714  Biso   1.000  N
  N22      1.0000 0.72263  0.60680  0.44286  Biso   1.000  N
  N23      1.0000 0.22263  0.89320  0.94286  Biso   1.000  N
  N24      1.0000 0.27737  0.39320  0.55714  Biso   1.000  N
  C17      1.0000 0.59241  0.34341  0.89630  Biso   1.000  C
  C18      1.0000 0.90759  0.84341  0.60370  Biso   1.000  C
  C19      1.0000 0.40759  0.65659  0.10370  Biso   1.000  C
  C20      1.0000 0.09241  0.15659  0.39630  Biso   1.000  C
  C21      1.0000 0.03334  0.12943  0.91380  Biso   1.000  C
  C22      1.0000 0.46666  0.62943  0.58620  Biso   1.000  C
  C23      1.0000 0.96666  0.87057  0.08620  Biso   1.000  C
  C24      1.0000 0.53334  0.37057  0.41380  Biso   1.000  C
  H9       1.0000 0.07950  0.14900  0.96970  Biso   1.000  H
  H10      1.0000 0.42050  0.64900  0.53030  Biso   1.000  H
  H11      1.0000 0.92050  0.85100  0.03030  Biso   1.000  H
  H12      1.0000 0.57950  0.35100  0.46970  Biso   1.000  H
  C25      1.0000 0.71181  0.35119  0.87780  Biso   1.000  C
  C26      1.0000 0.78819  0.85119  0.62220  Biso   1.000  C
  C27      1.0000 0.28819  0.64881  0.12220  Biso   1.000  C
  C28      1.0000 0.21181  0.14881  0.37780  Biso   1.000  C
  O13      1.0000 0.55386  0.38858  0.97434  Biso   1.000  O
  O14      1.0000 0.94614  0.88858  0.52566  Biso   1.000  O
  O15      1.0000 0.44614  0.61142  0.02566  Biso   1.000  O
  O16      1.0000 0.05386  0.11142  0.47434  Biso   1.000  O
  C29      1.0000 0.92942  0.17489  0.11984  Biso   1.000  C
  C30      1.0000 0.57058  0.67489  0.38016  Biso   1.000  C
  C31      1.0000 0.07058  0.82511  0.88016  Biso   1.000  C
  C32      1.0000 0.42942  0.32511  0.61984  Biso   1.000  C
  H13      1.0000 0.00090  0.19740  0.12360  Biso   1.000  H
  H14      1.0000 0.49910  0.69740  0.37640  Biso   1.000  H
  H15      1.0000 0.99910  0.80260  0.87640  Biso   1.000  H
  H16      1.0000 0.50090  0.30260  0.62360  Biso   1.000  H
  C33      1.0000 0.00275  0.36359  0.52347  Biso   1.000  C
  C34      1.0000 0.49725  0.86359  0.97653  Biso   1.000  C
  C35      1.0000 0.99725  0.63641  0.47653  Biso   1.000  C
  C36      1.0000 0.50275  0.13641  0.02347  Biso   1.000  C
  H17      1.0000 0.06210  0.38050  0.48250  Biso   1.000  H
  H18      1.0000 0.43790  0.88050  0.01750  Biso   1.000  H
  H19      1.0000 0.93790  0.61950  0.51750  Biso   1.000  H
  H20      1.0000 0.56210  0.11950  0.98250  Biso   1.000  H
  C37      1.0000 0.93262  0.37063  0.84194  Biso   1.000  C
  C38      1.0000 0.56738  0.87063  0.65806  Biso   1.000  C
  C39      1.0000 0.06738  0.62937  0.15806  Biso   1.000  C
  C40      1.0000 0.43262  0.12937  0.34194  Biso   1.000  C
  H21      1.0000 0.00640  0.37580  0.83000  Biso   1.000  H
  H22      1.0000 0.49360  0.87580  0.67000  Biso   1.000  H
  H23      1.0000 0.99360  0.62420  0.17000  Biso   1.000  H
  H24      1.0000 0.50640  0.12420  0.33000  Biso   1.000  H
  C41      1.0000 0.92494  0.11326  0.93148  Biso   1.000  C
  C42      1.0000 0.57506  0.61326  0.56852  Biso   1.000  C
  C43      1.0000 0.07506  0.88674  0.06852  Biso   1.000  C
  C44      1.0000 0.42494  0.38674  0.43148  Biso   1.000  C
  C45      1.0000 0.07336  0.11628  0.81175  Biso   1.000  C
  C46      1.0000 0.42664  0.61628  0.68825  Biso   1.000  C
  C47      1.0000 0.92664  0.88372  0.18825  Biso   1.000  C
  C48      1.0000 0.57336  0.38372  0.31175  Biso   1.000  C
  C49      1.0000 0.85242  0.30263  0.56715  Biso   1.000  C
  C50      1.0000 0.64758  0.80263  0.93285  Biso   1.000  C
  C51      1.0000 0.14758  0.69737  0.43285  Biso   1.000  C
  C52      1.0000 0.35242  0.19737  0.06715  Biso   1.000  C
  H25      1.0000 0.78540  0.26960  0.56620  Biso   1.000  H
  H26      1.0000 0.71460  0.76960  0.93380  Biso   1.000  H
  H27      1.0000 0.21460  0.73040  0.43380  Biso   1.000  H
  H28      1.0000 0.28540  0.23040  0.06620  Biso   1.000  H
  C53      1.0000 0.00366  0.08860  0.72886  Biso   1.000  C
  C54      1.0000 0.49634  0.58860  0.77114  Biso   1.000  C
  C55      1.0000 0.99634  0.91140  0.27114  Biso   1.000  C
  C56      1.0000 0.50366  0.41140  0.22886  Biso   1.000  C
  H29      1.0000 0.03020  0.07920  0.66070  Biso   1.000  H
  H30      1.0000 0.46980  0.57920  0.83930  Biso   1.000  H
  H31      1.0000 0.96980  0.92080  0.33930  Biso   1.000  H
  H32      1.0000 0.53020  0.42080  0.16070  Biso   1.000  H
  C57      1.0000 0.85430  0.08618  0.84901  Biso   1.000  C
  C58      1.0000 0.64570  0.58618  0.65099  Biso   1.000  C
  C59      1.0000 0.14570  0.91382  0.15099  Biso   1.000  C
  C60      1.0000 0.35430  0.41382  0.34901  Biso   1.000  C
  H33      1.0000 0.78120  0.07580  0.86150  Biso   1.000  H
  H34      1.0000 0.71880  0.57580  0.63850  Biso   1.000  H
  H35      1.0000 0.21880  0.92420  0.13850  Biso   1.000  H
  H36      1.0000 0.28120  0.42420  0.36150  Biso   1.000  H
  C61      1.0000 0.89499  0.07489  0.74714  Biso   1.000  C
  C62      1.0000 0.60501  0.57489  0.75286  Biso   1.000  C
  C63      1.0000 0.10501  0.92511  0.25286  Biso   1.000  C
  C64      1.0000 0.39499  0.42511  0.24714  Biso   1.000  C
  H37      1.0000 0.84840  0.05790  0.69070  Biso   1.000  H
  H38      1.0000 0.65160  0.55790  0.80930  Biso   1.000  H
  H39      1.0000 0.15160  0.94210  0.30930  Biso   1.000  H
  H40      1.0000 0.34840  0.44210  0.19070  Biso   1.000  H
  C65      1.0000 0.76858  0.14064  0.15525  Biso   1.000  C
  C66      1.0000 0.73142  0.64064  0.34475  Biso   1.000  C
  C67      1.0000 0.23142  0.85936  0.84475  Biso   1.000  C
  C68      1.0000 0.26858  0.35936  0.65525  Biso   1.000  C
  H41      1.0000 0.70460  0.13590  0.19260  Biso   1.000  H
  H42      1.0000 0.79540  0.63590  0.30740  Biso   1.000  H
  H43      1.0000 0.29540  0.86410  0.80740  Biso   1.000  H
  H44      1.0000 0.20460  0.36410  0.69260  Biso   1.000  H
  C69      1.0000 0.89255  0.37971  0.94384  Biso   1.000  C
  C70      1.0000 0.60745  0.87971  0.55616  Biso   1.000  C
  C71      1.0000 0.10745  0.62029  0.05616  Biso   1.000  C
  C72      1.0000 0.39255  0.12029  0.44384  Biso   1.000  C
  H45      1.0000 0.93990  0.39200  0.00080  Biso   1.000  H
  H46      1.0000 0.56010  0.89200  0.49920  Biso   1.000  H
  H47      1.0000 0.06010  0.60800  0.99920  Biso   1.000  H
  H48      1.0000 0.43990  0.10800  0.50080  Biso   1.000  H
  O17      1.0000 0.32565  0.41152  0.93053  Biso   1.000  O
  O18      1.0000 0.17435  0.91152  0.56947  Biso   1.000  O
  O19      1.0000 0.67435  0.58848  0.06947  Biso   1.000  O
  O20      1.0000 0.82565  0.08848  0.43053  Biso   1.000  O
  H49      1.0000 0.38220  0.42950  0.96400  Biso   1.000  H
  H50      1.0000 0.11780  0.92950  0.53600  Biso   1.000  H
  H51      1.0000 0.61780  0.57050  0.03600  Biso   1.000  H
  H52      1.0000 0.88220  0.07050  0.46400  Biso   1.000  H
  H53      1.0000 0.31240  0.46050  0.88750  Biso   1.000  H
  H54      1.0000 0.18760  0.96050  0.61250  Biso   1.000  H
  H55      1.0000 0.68760  0.53950  0.11250  Biso   1.000  H
  H56      1.0000 0.81240  0.03950  0.38750  Biso   1.000  H
  O21      1.0000 0.45247  0.08502  0.73637  Biso   1.000  O
  O22      1.0000 0.04753  0.58502  0.76363  Biso   1.000  O
  O23      1.0000 0.54753  0.91498  0.26363  Biso   1.000  O
  O24      1.0000 0.95247  0.41498  0.23637  Biso   1.000  O
  H57      1.0000 0.46800  0.03040  0.77470  Biso   1.000  H
  H58      1.0000 0.03200  0.53040  0.72530  Biso   1.000  H
  H59      1.0000 0.53200  0.96960  0.22530  Biso   1.000  H
  H60      1.0000 0.96800  0.46960  0.27470  Biso   1.000  H
  H61      1.0000 0.38330  0.07800  0.72400  Biso   1.000  H
  H62      1.0000 0.11670  0.57800  0.77600  Biso   1.000  H
  H63      1.0000 0.61670  0.92200  0.27600  Biso   1.000  H
  H64      1.0000 0.88330  0.42200  0.22400  Biso   1.000  H
  O25      1.0000 0.63987  0.15849  0.59307  Biso   1.000  O
  O26      1.0000 0.86013  0.65849  0.90693  Biso   1.000  O
  O27      1.0000 0.36013  0.84151  0.40693  Biso   1.000  O
  O28      1.0000 0.13987  0.34151  0.09307  Biso   1.000  O
  H65      1.0000 0.59900  0.12100  0.63000  Biso   1.000  H
  H66      1.0000 0.90100  0.62100  0.87000  Biso   1.000  H
  H67      1.0000 0.40100  0.87900  0.37000  Biso   1.000  H
  H68      1.0000 0.09900  0.37900  0.13000  Biso   1.000  H
  H69      1.0000 0.67200  0.11900  0.55100  Biso   1.000  H
  H70      1.0000 0.82800  0.61900  0.94900  Biso   1.000  H
  H71      1.0000 0.32800  0.88100  0.44900  Biso   1.000  H
  H72      1.0000 0.17200  0.38100  0.05100  Biso   1.000  H
