data_image0
_cell_length_a       8.9183
_cell_length_b       11.3348
_cell_length_c       15.5534
_cell_angle_alpha    85.471
_cell_angle_beta     75.804
_cell_angle_gamma    75.007

_symmetry_space_group_name_H-M    "P 1"
_symmetry_int_tables_number       1

loop_
  _symmetry_equiv_pos_as_xyz
  'x, y, z'

loop_
  _atom_site_label
  _atom_site_occupancy
  _atom_site_fract_x
  _atom_site_fract_y
  _atom_site_fract_z
  _atom_site_thermal_displace_type
  _atom_site_B_iso_or_equiv
  _atom_site_type_symbol
  Cu1      1.0000 0.00000  0.50000  0.00000  Biso   1.000  Cu
  Cu2      1.0000 0.36616  0.54604  0.55793  Biso   1.000  Cu
  Cu3      1.0000 0.63384  0.45396  0.44207  Biso   1.000  Cu
  O1       1.0000 0.07900  0.35964  0.92227  Biso   1.000  O
  O2       1.0000 0.92100  0.64036  0.07773  Biso   1.000  O
  O3       1.0000 0.21430  0.29187  0.02586  Biso   1.000  O
  O4       1.0000 0.78570  0.70813  0.97414  Biso   1.000  O
  O5       1.0000 0.48820  0.66396  0.56961  Biso   1.000  O
  O6       1.0000 0.51180  0.33604  0.43039  Biso   1.000  O
  O7       1.0000 0.71830  0.58342  0.47325  Biso   1.000  O
  O8       1.0000 0.28170  0.41658  0.52675  Biso   1.000  O
  O9       1.0000 0.46910  0.43007  0.64017  Biso   1.000  O
  O10      1.0000 0.53090  0.56993  0.35983  Biso   1.000  O
  O11      1.0000 0.70060  0.35647  0.54233  Biso   1.000  O
  O12      1.0000 0.29940  0.64353  0.45767  Biso   1.000  O
  O13      1.0000 0.72430  0.54820  0.71033  Biso   1.000  O
  O14      1.0000 0.27570  0.45180  0.28967  Biso   1.000  O
  N1       1.0000 0.19810  0.55890  0.94706  Biso   1.000  N
  N2       1.0000 0.80190  0.44110  0.05294  Biso   1.000  N
  N3       1.0000 0.64350  0.63670  0.84657  Biso   1.000  N
  N4       1.0000 0.35650  0.36330  0.15343  Biso   1.000  N
  H1       1.0000 0.68400  0.66100  0.88480  Biso   1.000  H
  H2       1.0000 0.31600  0.33900  0.11520  Biso   1.000  H
  N5       1.0000 0.15960  0.63610  0.66050  Biso   1.000  N
  N6       1.0000 0.84040  0.36390  0.33950  Biso   1.000  N
  C1       1.0000 0.27370  0.54030  0.86140  Biso   1.000  C
  C2       1.0000 0.72630  0.45970  0.13860  Biso   1.000  C
  H3       1.0000 0.22400  0.50750  0.82470  Biso   1.000  H
  H4       1.0000 0.77600  0.49250  0.17530  Biso   1.000  H
  C3       1.0000 0.27020  0.60690  0.99717  Biso   1.000  C
  C4       1.0000 0.72980  0.39310  0.00283  Biso   1.000  C
  H5       1.0000 0.21700  0.62450  0.05730  Biso   1.000  H
  H6       1.0000 0.78300  0.37550  0.94270  Biso   1.000  H
  C5       1.0000 0.41660  0.63170  0.96575  Biso   1.000  C
  C6       1.0000 0.58340  0.36830  0.03425  Biso   1.000  C
  H7       1.0000 0.46450  0.66310  0.00410  Biso   1.000  H
  H8       1.0000 0.53550  0.33690  0.99590  Biso   1.000  H
  C7       1.0000 0.49480  0.61050  0.87690  Biso   1.000  C
  C8       1.0000 0.50520  0.38950  0.12310  Biso   1.000  C
  C9       1.0000 0.41820  0.56560  0.82352  Biso   1.000  C
  C10      1.0000 0.58180  0.43440  0.17648  Biso   1.000  C
  H9       1.0000 0.46510  0.55290  0.76210  Biso   1.000  H
  H10      1.0000 0.53490  0.44710  0.23790  Biso   1.000  H
  C11      1.0000 0.74660  0.60810  0.76435  Biso   1.000  C
  C12      1.0000 0.25340  0.39190  0.23565  Biso   1.000  C
  C13      1.0000 0.89140  0.65830  0.74608  Biso   1.000  C
  C14      1.0000 0.10860  0.34170  0.25392  Biso   1.000  C
  C15      1.0000 0.02640  0.59740  0.68558  Biso   1.000  C
  C16      1.0000 0.97360  0.40260  0.31442  Biso   1.000  C
  H11      1.0000 0.02350  0.52430  0.66080  Biso   1.000  H
  H12      1.0000 0.97650  0.47570  0.33920  Biso   1.000  H
  C17      1.0000 0.16130  0.73960  0.69619  Biso   1.000  C
  C18      1.0000 0.83870  0.26040  0.30381  Biso   1.000  C
  H13      1.0000 0.25580  0.76810  0.67930  Biso   1.000  H
  H14      1.0000 0.74420  0.23190  0.32070  Biso   1.000  H
  C19      1.0000 0.03310  0.80630  0.75600  Biso   1.000  C
  C20      1.0000 0.96690  0.19370  0.24400  Biso   1.000  C
  H15      1.0000 0.03920  0.87910  0.77980  Biso   1.000  H
  H16      1.0000 0.96080  0.12090  0.22020  Biso   1.000  H
  C21      1.0000 0.89490  0.76560  0.78092  Biso   1.000  C
  C22      1.0000 0.10510  0.23440  0.21908  Biso   1.000  C
  H17      1.0000 0.80380  0.81070  0.82140  Biso   1.000  H
  H18      1.0000 0.19620  0.18930  0.17860  Biso   1.000  H
  C23      1.0000 0.62890  0.66230  0.52855  Biso   1.000  C
  C24      1.0000 0.37110  0.33770  0.47145  Biso   1.000  C
  C25      1.0000 0.69590  0.76420  0.54558  Biso   1.000  C
  C26      1.0000 0.30410  0.23580  0.45442  Biso   1.000  C
  C27      1.0000 0.85930  0.75000  0.52762  Biso   1.000  C
  C28      1.0000 0.14070  0.25000  0.47238  Biso   1.000  C
  H19      1.0000 0.92950  0.67540  0.50430  Biso   1.000  H
  H20      1.0000 0.07050  0.32460  0.49570  Biso   1.000  H
  C29      1.0000 0.92080  0.84410  0.54350  Biso   1.000  C
  C30      1.0000 0.07920  0.15590  0.45650  Biso   1.000  C
  H21      1.0000 0.03320  0.83360  0.53120  Biso   1.000  H
  H22      1.0000 0.96680  0.16640  0.46880  Biso   1.000  H
  C31      1.0000 0.82140  0.95170  0.57680  Biso   1.000  C
  C32      1.0000 0.17860  0.04830  0.42320  Biso   1.000  C
  H23      1.0000 0.86460  0.01620  0.58700  Biso   1.000  H
  H24      1.0000 0.13540  0.98380  0.41300  Biso   1.000  H
  C33      1.0000 0.65850  0.96700  0.59550  Biso   1.000  C
  C34      1.0000 0.34150  0.03300  0.40450  Biso   1.000  C
  H25      1.0000 0.58880  0.04190  0.61880  Biso   1.000  H
  H26      1.0000 0.41120  0.95810  0.38120  Biso   1.000  H
  C35      1.0000 0.59720  0.87260  0.58010  Biso   1.000  C
  C36      1.0000 0.40280  0.12740  0.41990  Biso   1.000  C
  H27      1.0000 0.48480  0.88290  0.59350  Biso   1.000  H
  H28      1.0000 0.51520  0.11710  0.40650  Biso   1.000  H
  C37      1.0000 0.60960  0.36350  0.61895  Biso   1.000  C
  C38      1.0000 0.39040  0.63650  0.38105  Biso   1.000  C
  C39      1.0000 0.67400  0.28460  0.68986  Biso   1.000  C
  C40      1.0000 0.32600  0.71540  0.31014  Biso   1.000  C
  C41      1.0000 0.57230  0.25890  0.76770  Biso   1.000  C
  C42      1.0000 0.42770  0.74110  0.23230  Biso   1.000  C
  H29      1.0000 0.46030  0.29160  0.77650  Biso   1.000  H
  H30      1.0000 0.53970  0.70840  0.22350  Biso   1.000  H
  C43      1.0000 0.63340  0.18560  0.83260  Biso   1.000  C
  C44      1.0000 0.36660  0.81440  0.16740  Biso   1.000  C
  H31      1.0000 0.56310  0.16660  0.88530  Biso   1.000  H
  H32      1.0000 0.43690  0.83340  0.11470  Biso   1.000  H
  C45      1.0000 0.79520  0.13990  0.82130  Biso   1.000  C
  C46      1.0000 0.20480  0.86010  0.17870  Biso   1.000  C
  H33      1.0000 0.83700  0.09050  0.86630  Biso   1.000  H
  H34      1.0000 0.16300  0.90950  0.13370  Biso   1.000  H
  C47      1.0000 0.89630  0.16630  0.74420  Biso   1.000  C
  C48      1.0000 0.10370  0.83370  0.25580  Biso   1.000  C
  H35      1.0000 0.00840  0.13500  0.73610  Biso   1.000  H
  H36      1.0000 0.99160  0.86500  0.26390  Biso   1.000  H
  C49      1.0000 0.83640  0.23750  0.67890  Biso   1.000  C
  C50      1.0000 0.16360  0.76250  0.32110  Biso   1.000  C
  H37      1.0000 0.90730  0.25440  0.62570  Biso   1.000  H
  H38      1.0000 0.09270  0.74560  0.37430  Biso   1.000  H
  C51      1.0000 0.17440  0.27720  0.95730  Biso   1.000  C
  C52      1.0000 0.82560  0.72280  0.04270  Biso   1.000  C
  C53      1.0000 0.37300  0.93700  0.82440  Biso   1.000  C
  C54      1.0000 0.62700  0.06300  0.17560  Biso   1.000  C
  H39      1.0000 0.41930  0.86150  0.79470  Biso   1.000  H
  H40      1.0000 0.58070  0.13850  0.20530  Biso   1.000  H
  C55      1.0000 0.31200  0.05500  0.95460  Biso   1.000  C
  C56      1.0000 0.68800  0.94500  0.04540  Biso   1.000  C
  H41      1.0000 0.31690  0.06010  0.01450  Biso   1.000  H
  H42      1.0000 0.68310  0.93990  0.98550  Biso   1.000  H
  C57      1.0000 0.23340  0.14710  0.82440  Biso   1.000  C
  C58      1.0000 0.76660  0.85290  0.17560  Biso   1.000  C
  H43      1.0000 0.18290  0.21630  0.79420  Biso   1.000  H
  H44      1.0000 0.81710  0.78370  0.20580  Biso   1.000  H
  C59      1.0000 0.23880  0.15660  0.91150  Biso   1.000  C
  C60      1.0000 0.76120  0.84340  0.08850  Biso   1.000  C
  C61      1.0000 0.37820  0.94550  0.91040  Biso   1.000  C
  C62      1.0000 0.62180  0.05450  0.08960  Biso   1.000  C
  H45      1.0000 0.42780  0.87560  0.94040  Biso   1.000  H
  H46      1.0000 0.57220  0.12440  0.05960  Biso   1.000  H
  C63      1.0000 0.30130  0.03680  0.78080  Biso   1.000  C
  C64      1.0000 0.69870  0.96320  0.21920  Biso   1.000  C
  H47      1.0000 0.29800  0.03090  0.72070  Biso   1.000  H
  H48      1.0000 0.70200  0.96910  0.27930  Biso   1.000  H
