data_image0
_cell_length_a       14.849
_cell_length_b       7.1407
_cell_length_c       8.7237
_cell_angle_alpha    90
_cell_angle_beta     113.751
_cell_angle_gamma    90

_symmetry_space_group_name_H-M    "P 1"
_symmetry_int_tables_number       1

loop_
  _symmetry_equiv_pos_as_xyz
  'x, y, z'

loop_
  _atom_site_label
  _atom_site_occupancy
  _atom_site_fract_x
  _atom_site_fract_y
  _atom_site_fract_z
  _atom_site_thermal_displace_type
  _atom_site_B_iso_or_equiv
  _atom_site_type_symbol
  Cu1      1.0000 0.91085  0.50000  0.06457  Biso   1.000  Cu
  Cu2      1.0000 0.41085  0.00000  0.06457  Biso   1.000  Cu
  Cu3      1.0000 0.08915  0.50000  0.93543  Biso   1.000  Cu
  Cu4      1.0000 0.58915  0.00000  0.93543  Biso   1.000  Cu
  C1       1.0000 0.83980  0.50000  0.71980  Biso   1.000  C
  C2       1.0000 0.33980  0.00000  0.71980  Biso   1.000  C
  C3       1.0000 0.16020  0.50000  0.28020  Biso   1.000  C
  C4       1.0000 0.66020  0.00000  0.28020  Biso   1.000  C
  O1       1.0000 0.92114  0.50000  0.84820  Biso   1.000  O
  O2       1.0000 0.42114  0.00000  0.84820  Biso   1.000  O
  O3       1.0000 0.07886  0.50000  0.15180  Biso   1.000  O
  O4       1.0000 0.57886  0.00000  0.15180  Biso   1.000  O
  O5       1.0000 0.76170  0.55060  0.73150  Biso   1.000  O
  O6       1.0000 0.26170  0.05060  0.73150  Biso   1.000  O
  O7       1.0000 0.23830  0.55060  0.26850  Biso   1.000  O
  O8       1.0000 0.73830  0.05060  0.26850  Biso   1.000  O
  O9       1.0000 0.23830  0.44940  0.26850  Biso   1.000  O
  O10      1.0000 0.73830  0.94940  0.26850  Biso   1.000  O
  O11      1.0000 0.76170  0.44940  0.73150  Biso   1.000  O
  O12      1.0000 0.26170  0.94940  0.73150  Biso   1.000  O
  C5       1.0000 0.85290  0.50000  0.55820  Biso   1.000  C
  C6       1.0000 0.35290  0.00000  0.55820  Biso   1.000  C
  C7       1.0000 0.14710  0.50000  0.44180  Biso   1.000  C
  C8       1.0000 0.64710  0.00000  0.44180  Biso   1.000  C
  H1       1.0000 0.91740  0.50000  0.56720  Biso   1.000  H
  H2       1.0000 0.41740  0.00000  0.56720  Biso   1.000  H
  H3       1.0000 0.08260  0.50000  0.43280  Biso   1.000  H
  H4       1.0000 0.58260  0.00000  0.43280  Biso   1.000  H
  C9       1.0000 0.78350  0.50000  0.40430  Biso   1.000  C
  C10      1.0000 0.28350  0.00000  0.40430  Biso   1.000  C
  C11      1.0000 0.21650  0.50000  0.59570  Biso   1.000  C
  C12      1.0000 0.71650  0.00000  0.59570  Biso   1.000  C
  Cl1      1.0000 0.65892  0.50000  0.35671  Biso   1.000  Cl
  Cl2      1.0000 0.15892  0.00000  0.35671  Biso   1.000  Cl
  Cl3      1.0000 0.34108  0.50000  0.64329  Biso   1.000  Cl
  Cl4      1.0000 0.84108  0.00000  0.64329  Biso   1.000  Cl
  C13      1.0000 0.80880  0.50000  0.25300  Biso   1.000  C
  C14      1.0000 0.30880  0.00000  0.25300  Biso   1.000  C
  C15      1.0000 0.19120  0.50000  0.74700  Biso   1.000  C
  C16      1.0000 0.69120  0.00000  0.74700  Biso   1.000  C
  O13      1.0000 0.89990  0.50000  0.28140  Biso   1.000  O
  O14      1.0000 0.39990  0.00000  0.28140  Biso   1.000  O
  O15      1.0000 0.10010  0.50000  0.71860  Biso   1.000  O
  O16      1.0000 0.60010  0.00000  0.71860  Biso   1.000  O
  O17      1.0000 0.74200  0.50000  0.11070  Biso   1.000  O
  O18      1.0000 0.24200  0.00000  0.11070  Biso   1.000  O
  O19      1.0000 0.25800  0.50000  0.88930  Biso   1.000  O
  O20      1.0000 0.75800  0.00000  0.88930  Biso   1.000  O
  O21      1.0000 0.91202  0.77590  0.06310  Biso   1.000  O
  O22      1.0000 0.41202  0.27590  0.06310  Biso   1.000  O
  O23      1.0000 0.08798  0.77590  0.93690  Biso   1.000  O
  O24      1.0000 0.58798  0.27590  0.93690  Biso   1.000  O
  O25      1.0000 0.08798  0.22410  0.93690  Biso   1.000  O
  O26      1.0000 0.58798  0.72410  0.93690  Biso   1.000  O
  O27      1.0000 0.91202  0.22410  0.06310  Biso   1.000  O
  O28      1.0000 0.41202  0.72410  0.06310  Biso   1.000  O
  H5       1.0000 0.86300  0.82500  0.98600  Biso   1.000  H
  H6       1.0000 0.36300  0.32500  0.98600  Biso   1.000  H
  H7       1.0000 0.13700  0.82500  0.01400  Biso   1.000  H
  H8       1.0000 0.63700  0.32500  0.01400  Biso   1.000  H
  H9       1.0000 0.13700  0.17500  0.01400  Biso   1.000  H
  H10      1.0000 0.63700  0.67500  0.01400  Biso   1.000  H
  H11      1.0000 0.86300  0.17500  0.98600  Biso   1.000  H
  H12      1.0000 0.36300  0.67500  0.98600  Biso   1.000  H
  H13      1.0000 0.91300  0.82200  0.15400  Biso   1.000  H
  H14      1.0000 0.41300  0.32200  0.15400  Biso   1.000  H
  H15      1.0000 0.08700  0.82200  0.84600  Biso   1.000  H
  H16      1.0000 0.58700  0.32200  0.84600  Biso   1.000  H
  H17      1.0000 0.08700  0.17800  0.84600  Biso   1.000  H
  H18      1.0000 0.58700  0.67800  0.84600  Biso   1.000  H
  H19      1.0000 0.91300  0.17800  0.15400  Biso   1.000  H
  H20      1.0000 0.41300  0.67800  0.15400  Biso   1.000  H
  O29      1.0000 0.56950  0.50000  0.66350  Biso   1.000  O
  O30      1.0000 0.06950  0.00000  0.66350  Biso   1.000  O
  O31      1.0000 0.43050  0.50000  0.33650  Biso   1.000  O
  O32      1.0000 0.93050  0.00000  0.33650  Biso   1.000  O
  H21      1.0000 0.62400  0.50000  0.65500  Biso   1.000  H
  H22      1.0000 0.12400  0.00000  0.65500  Biso   1.000  H
  H23      1.0000 0.37600  0.50000  0.34500  Biso   1.000  H
  H24      1.0000 0.87600  0.00000  0.34500  Biso   1.000  H
