data_image0
_cell_length_a       11.2699
_cell_length_b       7.3799
_cell_length_c       11.8669
_cell_angle_alpha    90
_cell_angle_beta     95.267
_cell_angle_gamma    90

_symmetry_space_group_name_H-M    "P 1"
_symmetry_int_tables_number       1

loop_
  _symmetry_equiv_pos_as_xyz
  'x, y, z'

loop_
  _atom_site_label
  _atom_site_occupancy
  _atom_site_fract_x
  _atom_site_fract_y
  _atom_site_fract_z
  _atom_site_thermal_displace_type
  _atom_site_B_iso_or_equiv
  _atom_site_type_symbol
  C1       1.0000 0.22700  0.39020  0.41010  Biso   1.000  C
  C2       1.0000 0.77300  0.89020  0.08990  Biso   1.000  C
  C3       1.0000 0.77300  0.60980  0.58990  Biso   1.000  C
  C4       1.0000 0.22700  0.10980  0.91010  Biso   1.000  C
  H1       1.0000 0.21890  0.48790  0.36050  Biso   1.000  H
  H2       1.0000 0.78110  0.98790  0.13950  Biso   1.000  H
  H3       1.0000 0.78110  0.51210  0.63950  Biso   1.000  H
  H4       1.0000 0.21890  0.01210  0.86050  Biso   1.000  H
  C5       1.0000 0.33190  0.28770  0.41820  Biso   1.000  C
  C6       1.0000 0.66810  0.78770  0.08180  Biso   1.000  C
  C7       1.0000 0.66810  0.71230  0.58180  Biso   1.000  C
  C8       1.0000 0.33190  0.21230  0.91820  Biso   1.000  C
  H5       1.0000 0.39360  0.32090  0.37560  Biso   1.000  H
  H6       1.0000 0.60640  0.82090  0.12440  Biso   1.000  H
  H7       1.0000 0.60640  0.67910  0.62440  Biso   1.000  H
  H8       1.0000 0.39360  0.17910  0.87560  Biso   1.000  H
  C9       1.0000 0.25410  0.10050  0.54730  Biso   1.000  C
  C10      1.0000 0.74590  0.60050  0.95270  Biso   1.000  C
  C11      1.0000 0.74590  0.89950  0.45270  Biso   1.000  C
  C12      1.0000 0.25410  0.39950  0.04730  Biso   1.000  C
  H9       1.0000 0.26090  0.00010  0.59480  Biso   1.000  H
  H10      1.0000 0.73910  0.50010  0.90520  Biso   1.000  H
  H11      1.0000 0.73910  0.99990  0.40520  Biso   1.000  H
  H12      1.0000 0.26090  0.49990  0.09480  Biso   1.000  H
  C13      1.0000 0.15170  0.20240  0.54110  Biso   1.000  C
  C14      1.0000 0.84830  0.70240  0.95890  Biso   1.000  C
  C15      1.0000 0.84830  0.79760  0.45890  Biso   1.000  C
  C16      1.0000 0.15170  0.29760  0.04110  Biso   1.000  C
  C17      1.0000 0.04730  0.17730  0.60790  Biso   1.000  C
  C18      1.0000 0.95270  0.67730  0.89210  Biso   1.000  C
  C19      1.0000 0.95270  0.82270  0.39210  Biso   1.000  C
  C20      1.0000 0.04730  0.32270  0.10790  Biso   1.000  C
  N1       1.0000 0.13970  0.34960  0.47210  Biso   1.000  N
  N2       1.0000 0.86030  0.84960  0.02790  Biso   1.000  N
  N3       1.0000 0.86030  0.65040  0.52790  Biso   1.000  N
  N4       1.0000 0.13970  0.15040  0.97210  Biso   1.000  N
  N5       1.0000 0.34510  0.14310  0.48600  Biso   1.000  N
  N6       1.0000 0.65490  0.64310  0.01400  Biso   1.000  N
  N7       1.0000 0.65490  0.85690  0.51400  Biso   1.000  N
  N8       1.0000 0.34510  0.35690  0.98600  Biso   1.000  N
  N9       1.0000 0.03140  0.02260  0.65890  Biso   1.000  N
  N10      1.0000 0.96860  0.52260  0.84110  Biso   1.000  N
  N11      1.0000 0.96860  0.97740  0.34110  Biso   1.000  N
  N12      1.0000 0.03140  0.47740  0.15890  Biso   1.000  N
  H13      1.0000 0.97040  0.00770  0.69650  Biso   1.000  H
  H14      1.0000 0.02960  0.50770  0.80350  Biso   1.000  H
  H15      1.0000 0.02960  0.99230  0.30350  Biso   1.000  H
  H16      1.0000 0.97040  0.49230  0.19650  Biso   1.000  H
  H17      1.0000 0.08200  0.93610  0.65470  Biso   1.000  H
  H18      1.0000 0.91800  0.43610  0.84530  Biso   1.000  H
  H19      1.0000 0.91800  0.06390  0.34530  Biso   1.000  H
  H20      1.0000 0.08200  0.56390  0.15470  Biso   1.000  H
  O1       1.0000 0.97670  0.30900  0.61070  Biso   1.000  O
  O2       1.0000 0.02330  0.80900  0.88930  Biso   1.000  O
  O3       1.0000 0.02330  0.69100  0.38930  Biso   1.000  O
  O4       1.0000 0.97670  0.19100  0.11070  Biso   1.000  O
  O5       1.0000 0.51780  0.03960  0.30470  Biso   1.000  O
  O6       1.0000 0.48220  0.53960  0.19530  Biso   1.000  O
  O7       1.0000 0.48220  0.96040  0.69530  Biso   1.000  O
  O8       1.0000 0.51780  0.46040  0.80470  Biso   1.000  O
  H21      1.0000 0.46500  0.00700  0.25500  Biso   1.000  H
  H22      1.0000 0.53500  0.50700  0.24500  Biso   1.000  H
  H23      1.0000 0.53500  0.99300  0.74500  Biso   1.000  H
  H24      1.0000 0.46500  0.49300  0.75500  Biso   1.000  H
  H25      1.0000 0.56200  0.10700  0.27200  Biso   1.000  H
  H26      1.0000 0.43800  0.60700  0.22800  Biso   1.000  H
  H27      1.0000 0.43800  0.89300  0.72800  Biso   1.000  H
  H28      1.0000 0.56200  0.39300  0.77200  Biso   1.000  H
  O9       1.0000 0.58870  0.22750  0.52920  Biso   1.000  O
  O10      1.0000 0.41130  0.72750  0.97080  Biso   1.000  O
  O11      1.0000 0.41130  0.77250  0.47080  Biso   1.000  O
  O12      1.0000 0.58870  0.27250  0.02920  Biso   1.000  O
  H29      1.0000 0.62700  0.24800  0.59010  Biso   1.000  H
  H30      1.0000 0.37300  0.74800  0.90990  Biso   1.000  H
  H31      1.0000 0.37300  0.75200  0.40990  Biso   1.000  H
  H32      1.0000 0.62700  0.25200  0.09010  Biso   1.000  H
  H33      1.0000 0.62000  0.28600  0.48100  Biso   1.000  H
  H34      1.0000 0.38000  0.78600  0.01900  Biso   1.000  H
  H35      1.0000 0.38000  0.71400  0.51900  Biso   1.000  H
  H36      1.0000 0.62000  0.21400  0.98100  Biso   1.000  H
  O13      1.0000 0.33720  0.55640  0.63160  Biso   1.000  O
  O14      1.0000 0.66280  0.05640  0.86840  Biso   1.000  O
  O15      1.0000 0.66280  0.44360  0.36840  Biso   1.000  O
  O16      1.0000 0.33720  0.94360  0.13160  Biso   1.000  O
  O17      1.0000 0.20000  0.47200  0.76490  Biso   1.000  O
  O18      1.0000 0.80000  0.97200  0.73510  Biso   1.000  O
  O19      1.0000 0.80000  0.52800  0.23510  Biso   1.000  O
  O20      1.0000 0.20000  0.02800  0.26490  Biso   1.000  O
  O21      1.0000 0.13970  0.68690  0.61960  Biso   1.000  O
  O22      1.0000 0.86030  0.18690  0.88040  Biso   1.000  O
  O23      1.0000 0.86030  0.31310  0.38040  Biso   1.000  O
  O24      1.0000 0.13970  0.81310  0.11960  Biso   1.000  O
  O25      1.0000 0.28620  0.77240  0.76890  Biso   1.000  O
  O26      1.0000 0.71380  0.27240  0.73110  Biso   1.000  O
  O27      1.0000 0.71380  0.22760  0.23110  Biso   1.000  O
  O28      1.0000 0.28620  0.72760  0.26890  Biso   1.000  O
  Cu1      1.0000 0.00000  0.50000  0.50000  Biso   1.000  Cu
  Cu2      1.0000 0.00000  0.00000  0.00000  Biso   1.000  Cu
  Cu3      1.0000 0.50000  0.00000  0.50000  Biso   1.000  Cu
  Cu4      1.0000 0.50000  0.50000  0.00000  Biso   1.000  Cu
  S1       1.0000 0.23960  0.61972  0.69724  Biso   1.000  S
  S2       1.0000 0.76040  0.11972  0.80276  Biso   1.000  S
  S3       1.0000 0.76040  0.38028  0.30276  Biso   1.000  S
  S4       1.0000 0.23960  0.88028  0.19724  Biso   1.000  S
