data_image0
_cell_length_a       9.2569
_cell_length_b       12.6338
_cell_length_c       15.3446
_cell_angle_alpha    82.383
_cell_angle_beta     82.779
_cell_angle_gamma    82.824

_symmetry_space_group_name_H-M    "P 1"
_symmetry_int_tables_number       1

loop_
  _symmetry_equiv_pos_as_xyz
  'x, y, z'

loop_
  _atom_site_label
  _atom_site_occupancy
  _atom_site_fract_x
  _atom_site_fract_y
  _atom_site_fract_z
  _atom_site_thermal_displace_type
  _atom_site_B_iso_or_equiv
  _atom_site_type_symbol
  Cu1      1.0000 0.01298  0.25583  0.30367  Biso   1.000  Cu
  Cu2      1.0000 0.98702  0.74417  0.69633  Biso   1.000  Cu
  Cu3      1.0000 0.28690  0.50620  0.13620  Biso   1.000  Cu
  Cu4      1.0000 0.71310  0.49380  0.86380  Biso   1.000  Cu
  Cu5      1.0000 0.41825  0.67191  0.26064  Biso   1.000  Cu
  Cu6      1.0000 0.58175  0.32809  0.73936  Biso   1.000  Cu
  Cl1      1.0000 0.27862  0.53820  0.31867  Biso   1.000  Cl
  Cl2      1.0000 0.72138  0.46180  0.68133  Biso   1.000  Cl
  Cl3      1.0000 0.37478  0.12005  0.24899  Biso   1.000  Cl
  Cl4      1.0000 0.62522  0.87995  0.75101  Biso   1.000  Cl
  Cl5      1.0000 0.76667  0.49732  0.31085  Biso   1.000  Cl
  Cl6      1.0000 0.23333  0.50268  0.68915  Biso   1.000  Cl
  Cl7      1.0000 0.07536  0.86811  0.21656  Biso   1.000  Cl
  Cl8      1.0000 0.92464  0.13189  0.78344  Biso   1.000  Cl
  O1       1.0000 0.11680  0.34406  0.20973  Biso   1.000  O
  O2       1.0000 0.88320  0.65594  0.79027  Biso   1.000  O
  O3       1.0000 0.20970  0.40104  0.07644  Biso   1.000  O
  O4       1.0000 0.79030  0.59896  0.92356  Biso   1.000  O
  O5       1.0000 0.38640  0.63512  0.14574  Biso   1.000  O
  O6       1.0000 0.61360  0.36488  0.85426  Biso   1.000  O
  O7       1.0000 0.40770  0.63070  0.00336  Biso   1.000  O
  O8       1.0000 0.59230  0.36930  0.99664  Biso   1.000  O
  O9       1.0000 0.46560  0.02350  0.27640  Biso   1.000  O
  O10      1.0000 0.53440  0.97650  0.72360  Biso   1.000  O
  O11      1.0000 0.37260  0.13460  0.15626  Biso   1.000  O
  O12      1.0000 0.62740  0.86540  0.84374  Biso   1.000  O
  O13      1.0000 0.43250  0.21250  0.27350  Biso   1.000  O
  O14      1.0000 0.56750  0.78750  0.72650  Biso   1.000  O
  O15      1.0000 0.23010  0.11560  0.29352  Biso   1.000  O
  O16      1.0000 0.76990  0.88440  0.70648  Biso   1.000  O
  O17      1.0000 0.70930  0.51270  0.39930  Biso   1.000  O
  O18      1.0000 0.29070  0.48730  0.60070  Biso   1.000  O
  O19      1.0000 0.90290  0.54110  0.29120  Biso   1.000  O
  O20      1.0000 0.09710  0.45890  0.70880  Biso   1.000  O
  O21      1.0000 0.78750  0.38540  0.29970  Biso   1.000  O
  O22      1.0000 0.21250  0.61460  0.70030  Biso   1.000  O
  O23      1.0000 0.66580  0.55020  0.24989  Biso   1.000  O
  O24      1.0000 0.33420  0.44980  0.75011  Biso   1.000  O
  O25      1.0000 0.20300  0.82400  0.25580  Biso   1.000  O
  O26      1.0000 0.79700  0.17600  0.74420  Biso   1.000  O
  O27      1.0000 0.00500  0.77400  0.21540  Biso   1.000  O
  O28      1.0000 0.99500  0.22600  0.78460  Biso   1.000  O
  O29      1.0000 0.01270  0.79680  0.17210  Biso   1.000  O
  O30      1.0000 0.98730  0.20320  0.82790  Biso   1.000  O
  O31      1.0000 0.12100  0.94430  0.14270  Biso   1.000  O
  O32      1.0000 0.87900  0.05570  0.85730  Biso   1.000  O
  O33      1.0000 0.97620  0.92540  0.27570  Biso   1.000  O
  O34      1.0000 0.02380  0.07460  0.72430  Biso   1.000  O
  N1       1.0000 0.90240  0.16510  0.39768  Biso   1.000  N
  N2       1.0000 0.09760  0.83490  0.60232  Biso   1.000  N
  N3       1.0000 0.92580  0.17620  0.22308  Biso   1.000  N
  N4       1.0000 0.07420  0.82380  0.77692  Biso   1.000  N
  H1       1.0000 0.98570  0.11300  0.21810  Biso   1.000  H
  H2       1.0000 0.01430  0.88700  0.78190  Biso   1.000  H
  N5       1.0000 0.53490  0.79390  0.20661  Biso   1.000  N
  N6       1.0000 0.46510  0.20610  0.79339  Biso   1.000  N
  H3       1.0000 0.46990  0.85470  0.21170  Biso   1.000  H
  H4       1.0000 0.53010  0.14530  0.78830  Biso   1.000  H
  N7       1.0000 0.47620  0.70730  0.37173  Biso   1.000  N
  N8       1.0000 0.52380  0.29270  0.62827  Biso   1.000  N
  C1       1.0000 0.91690  0.14650  0.48450  Biso   1.000  C
  C2       1.0000 0.08310  0.85350  0.51550  Biso   1.000  C
  H5       1.0000 0.99110  0.17680  0.50600  Biso   1.000  H
  H6       1.0000 0.00890  0.82320  0.49400  Biso   1.000  H
  C3       1.0000 0.82800  0.08530  0.54320  Biso   1.000  C
  C4       1.0000 0.17200  0.91470  0.45680  Biso   1.000  C
  H7       1.0000 0.84090  0.07380  0.60360  Biso   1.000  H
  H8       1.0000 0.15910  0.92620  0.39640  Biso   1.000  H
  C5       1.0000 0.71830  0.04050  0.51150  Biso   1.000  C
  C6       1.0000 0.28170  0.95950  0.48850  Biso   1.000  C
  H9       1.0000 0.65570  0.99800  0.55020  Biso   1.000  H
  H10      1.0000 0.34430  0.00200  0.44980  Biso   1.000  H
  C7       1.0000 0.70250  0.05910  0.42270  Biso   1.000  C
  C8       1.0000 0.29750  0.94090  0.57730  Biso   1.000  C
  H11      1.0000 0.62850  0.02970  0.40010  Biso   1.000  H
  H12      1.0000 0.37150  0.97030  0.59990  Biso   1.000  H
  C9       1.0000 0.79660  0.12170  0.36660  Biso   1.000  C
  C10      1.0000 0.20340  0.87830  0.63340  Biso   1.000  C
  C11      1.0000 0.78440  0.14670  0.26980  Biso   1.000  C
  C12      1.0000 0.21560  0.85330  0.73020  Biso   1.000  C
  H13      1.0000 0.75760  0.08390  0.24690  Biso   1.000  H
  H14      1.0000 0.24240  0.91610  0.75310  Biso   1.000  H
  H15      1.0000 0.70760  0.20630  0.25950  Biso   1.000  H
  H16      1.0000 0.29240  0.79370  0.74050  Biso   1.000  H
  C13      1.0000 0.91380  0.22970  0.13120  Biso   1.000  C
  C14      1.0000 0.08620  0.77030  0.86880  Biso   1.000  C
  H17      1.0000 0.84840  0.29760  0.13480  Biso   1.000  H
  H18      1.0000 0.15160  0.70240  0.86520  Biso   1.000  H
  C15      1.0000 0.84860  0.16110  0.07490  Biso   1.000  C
  C16      1.0000 0.15140  0.83890  0.92510  Biso   1.000  C
  H19      1.0000 0.75290  0.14460  0.10300  Biso   1.000  H
  H20      1.0000 0.24710  0.85540  0.89700  Biso   1.000  H
  H21      1.0000 0.91250  0.09480  0.06920  Biso   1.000  H
  H22      1.0000 0.08750  0.90520  0.93080  Biso   1.000  H
  H23      1.0000 0.83910  0.20020  0.01680  Biso   1.000  H
  H24      1.0000 0.16090  0.79980  0.98320  Biso   1.000  H
  C17      1.0000 0.06350  0.25730  0.08770  Biso   1.000  C
  C18      1.0000 0.93650  0.74270  0.91230  Biso   1.000  C
  H25      1.0000 0.13070  0.19090  0.08870  Biso   1.000  H
  H26      1.0000 0.86930  0.80910  0.91130  Biso   1.000  H
  H27      1.0000 0.05470  0.28460  0.02560  Biso   1.000  H
  H28      1.0000 0.94530  0.71540  0.97440  Biso   1.000  H
  C19      1.0000 0.13120  0.33790  0.12830  Biso   1.000  C
  C20      1.0000 0.86880  0.66210  0.87170  Biso   1.000  C
  C21      1.0000 0.42560  0.67760  0.06560  Biso   1.000  C
  C22      1.0000 0.57440  0.32240  0.93440  Biso   1.000  C
  C23      1.0000 0.47800  0.78740  0.05460  Biso   1.000  C
  C24      1.0000 0.52200  0.21260  0.94540  Biso   1.000  C
  H29      1.0000 0.51780  0.80390  0.99270  Biso   1.000  H
  H30      1.0000 0.48220  0.19610  0.00730  Biso   1.000  H
  H31      1.0000 0.39300  0.84010  0.06620  Biso   1.000  H
  H32      1.0000 0.60700  0.15990  0.93380  Biso   1.000  H
  C25      1.0000 0.59140  0.80230  0.11180  Biso   1.000  C
  C26      1.0000 0.40860  0.19770  0.88820  Biso   1.000  C
  H33      1.0000 0.67040  0.74250  0.10490  Biso   1.000  H
  H34      1.0000 0.32960  0.25750  0.89510  Biso   1.000  H
  C27      1.0000 0.66060  0.90630  0.08020  Biso   1.000  C
  C28      1.0000 0.33940  0.09370  0.91980  Biso   1.000  C
  H35      1.0000 0.73550  0.91280  0.11740  Biso   1.000  H
  H36      1.0000 0.26450  0.08720  0.88260  Biso   1.000  H
  H37      1.0000 0.58570  0.96700  0.08360  Biso   1.000  H
  H38      1.0000 0.41430  0.03300  0.91640  Biso   1.000  H
  H39      1.0000 0.70430  0.90490  0.01940  Biso   1.000  H
  H40      1.0000 0.29570  0.09510  0.98060  Biso   1.000  H
  C29      1.0000 0.64400  0.80240  0.26510  Biso   1.000  C
  C30      1.0000 0.35600  0.19760  0.73490  Biso   1.000  C
  H41      1.0000 0.66550  0.87710  0.26000  Biso   1.000  H
  H42      1.0000 0.33450  0.12290  0.74000  Biso   1.000  H
  H43      1.0000 0.73480  0.75800  0.24740  Biso   1.000  H
  H44      1.0000 0.26520  0.24200  0.75260  Biso   1.000  H
  C31      1.0000 0.58980  0.76610  0.35880  Biso   1.000  C
  C32      1.0000 0.41020  0.23390  0.64120  Biso   1.000  C
  C33      1.0000 0.65800  0.78780  0.42880  Biso   1.000  C
  C34      1.0000 0.34200  0.21220  0.57120  Biso   1.000  C
  H45      1.0000 0.73810  0.82860  0.41860  Biso   1.000  H
  H46      1.0000 0.26190  0.17140  0.58140  Biso   1.000  H
  C35      1.0000 0.60690  0.74870  0.51350  Biso   1.000  C
  C36      1.0000 0.39310  0.25130  0.48650  Biso   1.000  C
  H47      1.0000 0.65180  0.76260  0.56170  Biso   1.000  H
  H48      1.0000 0.34820  0.23740  0.43830  Biso   1.000  H
  C37      1.0000 0.49070  0.68970  0.52720  Biso   1.000  C
  C38      1.0000 0.50930  0.31030  0.47280  Biso   1.000  C
  H49      1.0000 0.45430  0.66310  0.58480  Biso   1.000  H
  H50      1.0000 0.54570  0.33690  0.41520  Biso   1.000  H
  C39      1.0000 0.42690  0.66930  0.45450  Biso   1.000  C
  C40      1.0000 0.57310  0.33070  0.54550  Biso   1.000  C
  H51      1.0000 0.34750  0.62800  0.46360  Biso   1.000  H
  H52      1.0000 0.65250  0.37200  0.53640  Biso   1.000  H
  O35      1.0000 0.09640  0.33440  0.38428  Biso   1.000  O
  O36      1.0000 0.90360  0.66560  0.61572  Biso   1.000  O
  H53      1.0000 0.06900  0.34200  0.43720  Biso   1.000  H
  H54      1.0000 0.93100  0.65800  0.56280  Biso   1.000  H
  H55      1.0000 0.15190  0.38170  0.36490  Biso   1.000  H
  H56      1.0000 0.84810  0.61830  0.63510  Biso   1.000  H
  O37      1.0000 0.46380  0.40890  0.15559  Biso   1.000  O
  O38      1.0000 0.53620  0.59110  0.84441  Biso   1.000  O
  H57      1.0000 0.51190  0.38240  0.11340  Biso   1.000  H
  H58      1.0000 0.48810  0.61760  0.88660  Biso   1.000  H
  H59      1.0000 0.44480  0.34750  0.20050  Biso   1.000  H
  H60      1.0000 0.55520  0.65250  0.79950  Biso   1.000  H
  O39      1.0000 0.10730  0.59970  0.12169  Biso   1.000  O
  O40      1.0000 0.89270  0.40030  0.87831  Biso   1.000  O
  H61      1.0000 0.09580  0.65940  0.14540  Biso   1.000  H
  H62      1.0000 0.90420  0.34060  0.85460  Biso   1.000  H
  H63      1.0000 0.02670  0.56460  0.12320  Biso   1.000  H
  H64      1.0000 0.97330  0.43540  0.87680  Biso   1.000  H
  O41      1.0000 0.87060  0.51470  0.09029  Biso   1.000  O
  O42      1.0000 0.12940  0.48530  0.90971  Biso   1.000  O
  H65      1.0000 0.80720  0.51320  0.14320  Biso   1.000  H
  H66      1.0000 0.19280  0.48680  0.85680  Biso   1.000  H
  H67      1.0000 0.83420  0.53570  0.03310  Biso   1.000  H
  H68      1.0000 0.16580  0.46430  0.96690  Biso   1.000  H
  O43      1.0000 0.01210  0.36730  0.55200  Biso   1.000  O
  O44      1.0000 0.98790  0.63270  0.44800  Biso   1.000  O
  H69      1.0000 0.08060  0.39900  0.56650  Biso   1.000  H
  H70      1.0000 0.91940  0.60100  0.43350  Biso   1.000  H
  H71      1.0000 0.92670  0.41560  0.55670  Biso   1.000  H
  H72      1.0000 0.07330  0.58440  0.44330  Biso   1.000  H
