data_image0
_cell_length_a       9.543
_cell_length_b       11.121
_cell_length_c       11.381
_cell_angle_alpha    70.03
_cell_angle_beta     71.27
_cell_angle_gamma    88.03

_symmetry_space_group_name_H-M    "P 1"
_symmetry_int_tables_number       1

loop_
  _symmetry_equiv_pos_as_xyz
  'x, y, z'

loop_
  _atom_site_label
  _atom_site_occupancy
  _atom_site_fract_x
  _atom_site_fract_y
  _atom_site_fract_z
  _atom_site_thermal_displace_type
  _atom_site_B_iso_or_equiv
  _atom_site_type_symbol
  Cu1      1.0000 0.11865  0.27261  0.20437  Biso   1.000  Cu
  Cu2      1.0000 0.88135  0.72739  0.79563  Biso   1.000  Cu
  O1       1.0000 0.26940  0.32890  0.02845  Biso   1.000  O
  O2       1.0000 0.73060  0.67110  0.97155  Biso   1.000  O
  O3       1.0000 0.47180  0.32000  0.08810  Biso   1.000  O
  O4       1.0000 0.52820  0.68000  0.91190  Biso   1.000  O
  O5       1.0000 0.23240  0.32380  0.52630  Biso   1.000  O
  O6       1.0000 0.76760  0.67620  0.47370  Biso   1.000  O
  O7       1.0000 0.94650  0.22122  0.36609  Biso   1.000  O
  O8       1.0000 0.05350  0.77878  0.63391  Biso   1.000  O
  O9       1.0000 0.82830  0.26360  0.22070  Biso   1.000  O
  O10      1.0000 0.17170  0.73640  0.77930  Biso   1.000  O
  N1       1.0000 0.43650  0.38190  0.76950  Biso   1.000  N
  N2       1.0000 0.56350  0.61810  0.23050  Biso   1.000  N
  N3       1.0000 0.11320  0.09355  0.19850  Biso   1.000  N
  N4       1.0000 0.88680  0.90645  0.80150  Biso   1.000  N
  N5       1.0000 0.11230  0.45651  0.19650  Biso   1.000  N
  N6       1.0000 0.88770  0.54349  0.80350  Biso   1.000  N
  C1       1.0000 0.40730  0.34440  0.00580  Biso   1.000  C
  C2       1.0000 0.59270  0.65560  0.99420  Biso   1.000  C
  C3       1.0000 0.50170  0.40570  0.86060  Biso   1.000  C
  C4       1.0000 0.49830  0.59430  0.13940  Biso   1.000  C
  H1       1.0000 0.51560  0.49760  0.83920  Biso   1.000  H
  H2       1.0000 0.48440  0.50240  0.16080  Biso   1.000  H
  H3       1.0000 0.59870  0.37260  0.84740  Biso   1.000  H
  H4       1.0000 0.40130  0.62740  0.15260  Biso   1.000  H
  C5       1.0000 0.36600  0.47470  0.70440  Biso   1.000  C
  C6       1.0000 0.63400  0.52530  0.29560  Biso   1.000  C
  H5       1.0000 0.36530  0.55370  0.71560  Biso   1.000  H
  H6       1.0000 0.63470  0.44630  0.28440  Biso   1.000  H
  C7       1.0000 0.29700  0.45900  0.62440  Biso   1.000  C
  C8       1.0000 0.70300  0.54100  0.37560  Biso   1.000  C
  H7       1.0000 0.25250  0.52770  0.58080  Biso   1.000  H
  H8       1.0000 0.74750  0.47230  0.41920  Biso   1.000  H
  C9       1.0000 0.29000  0.34010  0.60440  Biso   1.000  C
  C10      1.0000 0.71000  0.65990  0.39560  Biso   1.000  C
  C11      1.0000 0.35410  0.23660  0.68450  Biso   1.000  C
  C12      1.0000 0.64590  0.76340  0.31550  Biso   1.000  C
  C13      1.0000 0.34220  0.11120  0.68450  Biso   1.000  C
  C14      1.0000 0.65780  0.88880  0.31550  Biso   1.000  C
  H9       1.0000 0.28860  0.09410  0.63580  Biso   1.000  H
  H10      1.0000 0.71140  0.90590  0.36420  Biso   1.000  H
  C15      1.0000 0.40680  0.01370  0.75340  Biso   1.000  C
  C16      1.0000 0.59320  0.98630  0.24660  Biso   1.000  C
  H11      1.0000 0.39660  0.93110  0.75280  Biso   1.000  H
  H12      1.0000 0.60340  0.06890  0.24720  Biso   1.000  H
  C17      1.0000 0.48840  0.04040  0.82510  Biso   1.000  C
  C18      1.0000 0.51160  0.95960  0.17490  Biso   1.000  C
  H13      1.0000 0.53640  0.97540  0.86960  Biso   1.000  H
  H14      1.0000 0.46360  0.02460  0.13040  Biso   1.000  H
  C19      1.0000 0.49910  0.15990  0.83080  Biso   1.000  C
  C20      1.0000 0.50090  0.84010  0.16920  Biso   1.000  C
  H15      1.0000 0.55230  0.17510  0.88070  Biso   1.000  H
  H16      1.0000 0.44770  0.82490  0.11930  Biso   1.000  H
  C21      1.0000 0.43070  0.26010  0.76230  Biso   1.000  C
  C22      1.0000 0.56930  0.73990  0.23770  Biso   1.000  C
  C23      1.0000 0.82810  0.22340  0.33540  Biso   1.000  C
  C24      1.0000 0.17190  0.77660  0.66460  Biso   1.000  C
  C25      1.0000 0.68670  0.17250  0.44950  Biso   1.000  C
  C26      1.0000 0.31330  0.82750  0.55050  Biso   1.000  C
  H17      1.0000 0.60370  0.18820  0.41750  Biso   1.000  H
  H18      1.0000 0.39630  0.81180  0.58250  Biso   1.000  H
  H19      1.0000 0.67750  0.21500  0.51190  Biso   1.000  H
  H20      1.0000 0.32250  0.78500  0.48810  Biso   1.000  H
  H21      1.0000 0.68830  0.08190  0.49190  Biso   1.000  H
  H22      1.0000 0.31170  0.91810  0.50810  Biso   1.000  H
  C27      1.0000 0.08570  0.99140  0.31040  Biso   1.000  C
  C28      1.0000 0.91430  0.00860  0.68960  Biso   1.000  C
  H23      1.0000 0.07040  0.00560  0.38940  Biso   1.000  H
  H24      1.0000 0.92960  0.99440  0.61060  Biso   1.000  H
  C29      1.0000 0.07910  0.86760  0.31410  Biso   1.000  C
  C30      1.0000 0.92090  0.13240  0.68590  Biso   1.000  C
  H25      1.0000 0.05850  0.80020  0.39460  Biso   1.000  H
  H26      1.0000 0.94150  0.19980  0.60540  Biso   1.000  H
  C31      1.0000 0.10300  0.84180  0.19830  Biso   1.000  C
  C32      1.0000 0.89700  0.15820  0.80170  Biso   1.000  C
  C33      1.0000 0.13120  0.94840  0.08270  Biso   1.000  C
  C34      1.0000 0.86880  0.05160  0.91730  Biso   1.000  C
  H27      1.0000 0.14740  0.93690  0.00230  Biso   1.000  H
  H28      1.0000 0.85260  0.06310  0.99770  Biso   1.000  H
  C35      1.0000 0.13520  0.07020  0.08620  Biso   1.000  C
  C36      1.0000 0.86480  0.92980  0.91380  Biso   1.000  C
  H29      1.0000 0.15390  0.13950  0.00740  Biso   1.000  H
  H30      1.0000 0.84610  0.86050  0.99260  Biso   1.000  H
  C37      1.0000 0.10270  0.70890  0.19720  Biso   1.000  C
  C38      1.0000 0.89730  0.29110  0.80280  Biso   1.000  C
  C39      1.0000 0.09470  0.60400  0.30980  Biso   1.000  C
  C40      1.0000 0.90530  0.39600  0.69020  Biso   1.000  C
  H31      1.0000 0.08700  0.61670  0.38820  Biso   1.000  H
  H32      1.0000 0.91300  0.38330  0.61180  Biso   1.000  H
  C41      1.0000 0.11650  0.68180  0.08360  Biso   1.000  C
  C42      1.0000 0.88350  0.31820  0.91640  Biso   1.000  C
  H33      1.0000 0.12190  0.74810  0.00530  Biso   1.000  H
  H34      1.0000 0.87810  0.25190  0.99470  Biso   1.000  H
  C43      1.0000 0.12200  0.55700  0.08680  Biso   1.000  C
  C44      1.0000 0.87800  0.44300  0.91320  Biso   1.000  C
  H35      1.0000 0.13310  0.54160  0.00910  Biso   1.000  H
  H36      1.0000 0.86690  0.45840  0.99090  Biso   1.000  H
  C45      1.0000 0.09820  0.48190  0.30630  Biso   1.000  C
  C46      1.0000 0.90180  0.51810  0.69370  Biso   1.000  C
  H37      1.0000 0.09030  0.41360  0.38380  Biso   1.000  H
  H38      1.0000 0.90970  0.58640  0.61620  Biso   1.000  H
  O11      1.0000 0.27420  0.20580  0.33790  Biso   1.000  O
  O12      1.0000 0.72580  0.79420  0.66210  Biso   1.000  O
  H39      1.0000 0.27100  0.23200  0.39900  Biso   1.000  H
  H40      1.0000 0.72900  0.76800  0.60100  Biso   1.000  H
  H41      1.0000 0.35500  0.23200  0.27800  Biso   1.000  H
  H42      1.0000 0.64500  0.76800  0.72200  Biso   1.000  H
