data_image0
_cell_length_a       5.524
_cell_length_b       7.069
_cell_length_c       18.501
_cell_angle_alpha    90
_cell_angle_beta     90
_cell_angle_gamma    90

_symmetry_space_group_name_H-M    "P 1"
_symmetry_int_tables_number       1

loop_
  _symmetry_equiv_pos_as_xyz
  'x, y, z'

loop_
  _atom_site_label
  _atom_site_occupancy
  _atom_site_fract_x
  _atom_site_fract_y
  _atom_site_fract_z
  _atom_site_thermal_displace_type
  _atom_site_B_iso_or_equiv
  _atom_site_type_symbol
  Cu1      1.0000 0.68679  0.25000  0.20074  Biso   1.000  Cu
  Cu2      1.0000 0.81321  0.25000  0.70074  Biso   1.000  Cu
  Cu3      1.0000 0.18679  0.75000  0.29926  Biso   1.000  Cu
  Cu4      1.0000 0.31321  0.75000  0.79926  Biso   1.000  Cu
  O1       1.0000 0.84900  0.05360  0.14455  Biso   1.000  O
  O2       1.0000 0.65100  0.44640  0.64455  Biso   1.000  O
  O3       1.0000 0.34900  0.94640  0.35545  Biso   1.000  O
  O4       1.0000 0.15100  0.55360  0.85545  Biso   1.000  O
  O5       1.0000 0.15100  0.94640  0.85545  Biso   1.000  O
  O6       1.0000 0.34900  0.55360  0.35545  Biso   1.000  O
  O7       1.0000 0.65100  0.05360  0.64455  Biso   1.000  O
  O8       1.0000 0.84900  0.44640  0.14455  Biso   1.000  O
  O9       1.0000 0.02140  0.94400  0.24357  Biso   1.000  O
  O10      1.0000 0.47860  0.55600  0.74357  Biso   1.000  O
  O11      1.0000 0.52140  0.05600  0.25643  Biso   1.000  O
  O12      1.0000 0.97860  0.44400  0.75643  Biso   1.000  O
  O13      1.0000 0.97860  0.05600  0.75643  Biso   1.000  O
  O14      1.0000 0.52140  0.44400  0.25643  Biso   1.000  O
  O15      1.0000 0.47860  0.94400  0.74357  Biso   1.000  O
  O16      1.0000 0.02140  0.55600  0.24357  Biso   1.000  O
  O17      1.0000 0.35520  0.25000  0.11490  Biso   1.000  O
  O18      1.0000 0.14480  0.25000  0.61490  Biso   1.000  O
  O19      1.0000 0.85520  0.75000  0.38510  Biso   1.000  O
  O20      1.0000 0.64480  0.75000  0.88510  Biso   1.000  O
  C1       1.0000 0.96330  0.92500  0.17835  Biso   1.000  C
  C2       1.0000 0.53670  0.57500  0.67835  Biso   1.000  C
  C3       1.0000 0.46330  0.07500  0.32165  Biso   1.000  C
  C4       1.0000 0.03670  0.42500  0.82165  Biso   1.000  C
  C5       1.0000 0.03670  0.07500  0.82165  Biso   1.000  C
  C6       1.0000 0.46330  0.42500  0.32165  Biso   1.000  C
  C7       1.0000 0.53670  0.92500  0.67835  Biso   1.000  C
  C8       1.0000 0.96330  0.57500  0.17835  Biso   1.000  C
  C9       1.0000 0.03930  0.75000  0.13670  Biso   1.000  C
  C10      1.0000 0.46070  0.75000  0.63670  Biso   1.000  C
  C11      1.0000 0.53930  0.25000  0.36330  Biso   1.000  C
  C12      1.0000 0.96070  0.25000  0.86330  Biso   1.000  C
  C13      1.0000 0.99110  0.75000  0.05490  Biso   1.000  C
  C14      1.0000 0.50890  0.75000  0.55490  Biso   1.000  C
  C15      1.0000 0.49110  0.25000  0.44510  Biso   1.000  C
  C16      1.0000 0.00890  0.25000  0.94510  Biso   1.000  C
  H1       1.0000 0.92100  0.64400  0.03980  Biso   1.000  H
  H2       1.0000 0.57900  0.85600  0.53980  Biso   1.000  H
  H3       1.0000 0.42100  0.35600  0.46020  Biso   1.000  H
  H4       1.0000 0.07900  0.14400  0.96020  Biso   1.000  H
  H5       1.0000 0.07900  0.35600  0.96020  Biso   1.000  H
  H6       1.0000 0.42100  0.14400  0.46020  Biso   1.000  H
  H7       1.0000 0.57900  0.64400  0.53980  Biso   1.000  H
  H8       1.0000 0.92100  0.85600  0.03980  Biso   1.000  H
  C17      1.0000 0.26430  0.75000  0.03950  Biso   1.000  C
  C18      1.0000 0.23570  0.75000  0.53950  Biso   1.000  C
  C19      1.0000 0.76430  0.25000  0.46050  Biso   1.000  C
  C20      1.0000 0.73570  0.25000  0.96050  Biso   1.000  C
  H9       1.0000 0.32300  0.64100  0.01100  Biso   1.000  H
  H10      1.0000 0.17700  0.85900  0.51100  Biso   1.000  H
  H11      1.0000 0.82300  0.35900  0.48900  Biso   1.000  H
  H12      1.0000 0.67700  0.14100  0.98900  Biso   1.000  H
  H13      1.0000 0.67700  0.35900  0.98900  Biso   1.000  H
  H14      1.0000 0.82300  0.14100  0.48900  Biso   1.000  H
  H15      1.0000 0.17700  0.64100  0.51100  Biso   1.000  H
  H16      1.0000 0.32300  0.85900  0.01100  Biso   1.000  H
  C21      1.0000 0.31980  0.75000  0.11970  Biso   1.000  C
  C22      1.0000 0.18020  0.75000  0.61970  Biso   1.000  C
  C23      1.0000 0.81980  0.25000  0.38030  Biso   1.000  C
  C24      1.0000 0.68020  0.25000  0.88030  Biso   1.000  C
  H17      1.0000 0.39200  0.86200  0.13450  Biso   1.000  H
  H18      1.0000 0.10800  0.63800  0.63450  Biso   1.000  H
  H19      1.0000 0.89200  0.13800  0.36550  Biso   1.000  H
  H20      1.0000 0.60800  0.36200  0.86550  Biso   1.000  H
  H21      1.0000 0.60800  0.13800  0.86550  Biso   1.000  H
  H22      1.0000 0.89200  0.36200  0.36550  Biso   1.000  H
  H23      1.0000 0.10800  0.86200  0.63450  Biso   1.000  H
  H24      1.0000 0.39200  0.63800  0.13450  Biso   1.000  H
