data_image0
_cell_length_a       18.252
_cell_length_b       7.063
_cell_length_c       5.488
_cell_angle_alpha    90
_cell_angle_beta     90
_cell_angle_gamma    90

_symmetry_space_group_name_H-M    "P 1"
_symmetry_int_tables_number       1

loop_
  _symmetry_equiv_pos_as_xyz
  'x, y, z'

loop_
  _atom_site_label
  _atom_site_occupancy
  _atom_site_fract_x
  _atom_site_fract_y
  _atom_site_fract_z
  _atom_site_thermal_displace_type
  _atom_site_B_iso_or_equiv
  _atom_site_type_symbol
  Cu1      1.0000 0.19938  0.25000  0.17867  Biso   1.000  Cu
  Cu2      1.0000 0.30062  0.75000  0.67867  Biso   1.000  Cu
  Cu3      1.0000 0.80062  0.75000  0.82133  Biso   1.000  Cu
  Cu4      1.0000 0.69938  0.25000  0.32133  Biso   1.000  Cu
  O1       1.0000 0.14216  0.44620  0.34400  Biso   1.000  O
  O2       1.0000 0.35784  0.55380  0.84400  Biso   1.000  O
  O3       1.0000 0.85784  0.94620  0.65600  Biso   1.000  O
  O4       1.0000 0.64216  0.05380  0.15600  Biso   1.000  O
  O5       1.0000 0.85784  0.55380  0.65600  Biso   1.000  O
  O6       1.0000 0.64216  0.44620  0.15600  Biso   1.000  O
  O7       1.0000 0.14216  0.05380  0.34400  Biso   1.000  O
  O8       1.0000 0.35784  0.94620  0.84400  Biso   1.000  O
  O9       1.0000 0.24335  0.55660  0.51500  Biso   1.000  O
  O10      1.0000 0.25665  0.44340  0.01500  Biso   1.000  O
  O11      1.0000 0.75665  0.05660  0.48500  Biso   1.000  O
  O12      1.0000 0.74335  0.94340  0.98500  Biso   1.000  O
  O13      1.0000 0.75665  0.44340  0.48500  Biso   1.000  O
  O14      1.0000 0.74335  0.55660  0.98500  Biso   1.000  O
  O15      1.0000 0.24335  0.94340  0.51500  Biso   1.000  O
  O16      1.0000 0.25665  0.05660  0.01500  Biso   1.000  O
  O17      1.0000 0.11500  0.25000  0.84890  Biso   1.000  O
  O18      1.0000 0.38500  0.75000  0.34890  Biso   1.000  O
  O19      1.0000 0.88500  0.75000  0.15110  Biso   1.000  O
  O20      1.0000 0.61500  0.25000  0.65110  Biso   1.000  O
  H1       1.0000 0.13020  0.25000  0.65180  Biso   1.000  H
  H2       1.0000 0.36980  0.75000  0.15180  Biso   1.000  H
  H3       1.0000 0.86980  0.75000  0.34820  Biso   1.000  H
  H4       1.0000 0.63020  0.25000  0.84820  Biso   1.000  H
  H5       1.0000 0.06850  0.25000  0.89430  Biso   1.000  H
  H6       1.0000 0.43150  0.75000  0.39430  Biso   1.000  H
  H7       1.0000 0.93150  0.75000  0.10570  Biso   1.000  H
  H8       1.0000 0.56850  0.25000  0.60570  Biso   1.000  H
  C1       1.0000 0.13470  0.75000  0.53780  Biso   1.000  C
  C2       1.0000 0.36530  0.25000  0.03780  Biso   1.000  C
  C3       1.0000 0.86530  0.25000  0.46220  Biso   1.000  C
  C4       1.0000 0.63470  0.75000  0.96220  Biso   1.000  C
  C5       1.0000 0.11970  0.75000  0.82250  Biso   1.000  C
  C6       1.0000 0.38030  0.25000  0.32250  Biso   1.000  C
  C7       1.0000 0.88030  0.25000  0.17750  Biso   1.000  C
  C8       1.0000 0.61970  0.75000  0.67750  Biso   1.000  C
  H9       1.0000 0.13680  0.86320  0.90480  Biso   1.000  H
  H10      1.0000 0.36320  0.13680  0.40480  Biso   1.000  H
  H11      1.0000 0.86320  0.36320  0.09520  Biso   1.000  H
  H12      1.0000 0.63680  0.63680  0.59520  Biso   1.000  H
  H13      1.0000 0.86320  0.13680  0.09520  Biso   1.000  H
  H14      1.0000 0.63680  0.86320  0.59520  Biso   1.000  H
  H15      1.0000 0.13680  0.63680  0.90480  Biso   1.000  H
  H16      1.0000 0.36320  0.36320  0.40480  Biso   1.000  H
  C9       1.0000 0.03680  0.75000  0.77100  Biso   1.000  C
  C10      1.0000 0.46320  0.25000  0.27100  Biso   1.000  C
  C11      1.0000 0.96320  0.25000  0.22900  Biso   1.000  C
  C12      1.0000 0.53680  0.75000  0.72900  Biso   1.000  C
  H17      1.0000 0.01200  0.63700  0.82840  Biso   1.000  H
  H18      1.0000 0.48800  0.36300  0.32840  Biso   1.000  H
  H19      1.0000 0.98800  0.13700  0.17160  Biso   1.000  H
  H20      1.0000 0.51200  0.86300  0.67160  Biso   1.000  H
  H21      1.0000 0.98800  0.36300  0.17160  Biso   1.000  H
  H22      1.0000 0.51200  0.63700  0.67160  Biso   1.000  H
  H23      1.0000 0.01200  0.86300  0.82840  Biso   1.000  H
  H24      1.0000 0.48800  0.13700  0.32840  Biso   1.000  H
  C13      1.0000 0.05120  0.75000  0.49280  Biso   1.000  C
  C14      1.0000 0.44880  0.25000  0.99280  Biso   1.000  C
  C15      1.0000 0.94880  0.25000  0.50720  Biso   1.000  C
  C16      1.0000 0.55120  0.75000  0.00720  Biso   1.000  C
  H25      1.0000 0.03360  0.86310  0.41110  Biso   1.000  H
  H26      1.0000 0.46640  0.13690  0.91110  Biso   1.000  H
  H27      1.0000 0.96640  0.36310  0.58890  Biso   1.000  H
  H28      1.0000 0.53360  0.63690  0.08890  Biso   1.000  H
  H29      1.0000 0.96640  0.13690  0.58890  Biso   1.000  H
  H30      1.0000 0.53360  0.86310  0.08890  Biso   1.000  H
  H31      1.0000 0.03360  0.63690  0.41110  Biso   1.000  H
  H32      1.0000 0.46640  0.36310  0.91110  Biso   1.000  H
  C17      1.0000 0.17709  0.57350  0.45910  Biso   1.000  C
  C18      1.0000 0.32291  0.42650  0.95910  Biso   1.000  C
  C19      1.0000 0.82291  0.07350  0.54090  Biso   1.000  C
  C20      1.0000 0.67709  0.92650  0.04090  Biso   1.000  C
  C21      1.0000 0.82291  0.42650  0.54090  Biso   1.000  C
  C22      1.0000 0.67709  0.57350  0.04090  Biso   1.000  C
  C23      1.0000 0.17709  0.92650  0.45910  Biso   1.000  C
  C24      1.0000 0.32291  0.07350  0.95910  Biso   1.000  C
