data_image0
_cell_length_a       7.1886
_cell_length_b       13.6466
_cell_length_c       21.5816
_cell_angle_alpha    90
_cell_angle_beta     90
_cell_angle_gamma    90

_symmetry_space_group_name_H-M    "P 1"
_symmetry_int_tables_number       1

loop_
  _symmetry_equiv_pos_as_xyz
  'x, y, z'

loop_
  _atom_site_label
  _atom_site_occupancy
  _atom_site_fract_x
  _atom_site_fract_y
  _atom_site_fract_z
  _atom_site_thermal_displace_type
  _atom_site_B_iso_or_equiv
  _atom_site_type_symbol
  Cu1      1.0000 0.25000  0.25000  0.75000  Biso   1.000  Cu
  Cu2      1.0000 0.75000  0.75000  0.25000  Biso   1.000  Cu
  O1       1.0000 0.59860  0.25000  0.75000  Biso   1.000  O
  O2       1.0000 0.90140  0.25000  0.75000  Biso   1.000  O
  O3       1.0000 0.40140  0.75000  0.25000  Biso   1.000  O
  O4       1.0000 0.09860  0.75000  0.25000  Biso   1.000  O
  O5       1.0000 0.69800  0.84970  0.58600  Biso   1.000  O
  O6       1.0000 0.80200  0.65030  0.58600  Biso   1.000  O
  O7       1.0000 0.80200  0.84970  0.91400  Biso   1.000  O
  O8       1.0000 0.69800  0.65030  0.91400  Biso   1.000  O
  O9       1.0000 0.30200  0.15030  0.41400  Biso   1.000  O
  O10      1.0000 0.19800  0.34970  0.41400  Biso   1.000  O
  O11      1.0000 0.19800  0.15030  0.08600  Biso   1.000  O
  O12      1.0000 0.30200  0.34970  0.08600  Biso   1.000  O
  O13      1.0000 0.59820  0.92330  0.70830  Biso   1.000  O
  O14      1.0000 0.90180  0.57670  0.70830  Biso   1.000  O
  O15      1.0000 0.90180  0.92330  0.79170  Biso   1.000  O
  O16      1.0000 0.59820  0.57670  0.79170  Biso   1.000  O
  O17      1.0000 0.40180  0.07670  0.29170  Biso   1.000  O
  O18      1.0000 0.09820  0.42330  0.29170  Biso   1.000  O
  O19      1.0000 0.09820  0.07670  0.20830  Biso   1.000  O
  O20      1.0000 0.40180  0.42330  0.20830  Biso   1.000  O
  O21      1.0000 0.75000  0.25000  0.67020  Biso   1.000  O
  O22      1.0000 0.75000  0.25000  0.82980  Biso   1.000  O
  O23      1.0000 0.25000  0.75000  0.32980  Biso   1.000  O
  O24      1.0000 0.25000  0.75000  0.17020  Biso   1.000  O
  O25      1.0000 0.23110  0.51630  0.01865  Biso   1.000  O
  O26      1.0000 0.26890  0.98370  0.01865  Biso   1.000  O
  O27      1.0000 0.26890  0.51630  0.48135  Biso   1.000  O
  O28      1.0000 0.23110  0.98370  0.48135  Biso   1.000  O
  O29      1.0000 0.76890  0.48370  0.98135  Biso   1.000  O
  O30      1.0000 0.73110  0.01630  0.98135  Biso   1.000  O
  O31      1.0000 0.73110  0.48370  0.51865  Biso   1.000  O
  O32      1.0000 0.76890  0.01630  0.51865  Biso   1.000  O
  N1       1.0000 0.24220  0.35490  0.81611  Biso   1.000  N
  N2       1.0000 0.25780  0.14510  0.81611  Biso   1.000  N
  N3       1.0000 0.25780  0.35490  0.68389  Biso   1.000  N
  N4       1.0000 0.24220  0.14510  0.68389  Biso   1.000  N
  N5       1.0000 0.75780  0.64510  0.18389  Biso   1.000  N
  N6       1.0000 0.74220  0.85490  0.18389  Biso   1.000  N
  N7       1.0000 0.74220  0.64510  0.31611  Biso   1.000  N
  N8       1.0000 0.75780  0.85490  0.31611  Biso   1.000  N
  N9       1.0000 0.18670  0.65180  0.96163  Biso   1.000  N
  N10      1.0000 0.31330  0.84820  0.96163  Biso   1.000  N
  N11      1.0000 0.31330  0.65180  0.53837  Biso   1.000  N
  N12      1.0000 0.18670  0.84820  0.53837  Biso   1.000  N
  N13      1.0000 0.81330  0.34820  0.03837  Biso   1.000  N
  N14      1.0000 0.68670  0.15180  0.03837  Biso   1.000  N
  N15      1.0000 0.68670  0.34820  0.46163  Biso   1.000  N
  N16      1.0000 0.81330  0.15180  0.46163  Biso   1.000  N
  N17      1.0000 0.75000  0.25000  0.72680  Biso   1.000  N
  N18      1.0000 0.75000  0.25000  0.77320  Biso   1.000  N
  N19      1.0000 0.25000  0.75000  0.27320  Biso   1.000  N
  N20      1.0000 0.25000  0.75000  0.22680  Biso   1.000  N
  C1       1.0000 0.37760  0.36140  0.85820  Biso   1.000  C
  C2       1.0000 0.12240  0.13860  0.85820  Biso   1.000  C
  C3       1.0000 0.12240  0.36140  0.64180  Biso   1.000  C
  C4       1.0000 0.37760  0.13860  0.64180  Biso   1.000  C
  C5       1.0000 0.62240  0.63860  0.14180  Biso   1.000  C
  C6       1.0000 0.87760  0.86140  0.14180  Biso   1.000  C
  C7       1.0000 0.87760  0.63860  0.35820  Biso   1.000  C
  C8       1.0000 0.62240  0.86140  0.35820  Biso   1.000  C
  H1       1.0000 0.48140  0.31860  0.85490  Biso   1.000  H
  H2       1.0000 0.01860  0.18140  0.85490  Biso   1.000  H
  H3       1.0000 0.01860  0.31860  0.64510  Biso   1.000  H
  H4       1.0000 0.48140  0.18140  0.64510  Biso   1.000  H
  H5       1.0000 0.51860  0.68140  0.14510  Biso   1.000  H
  H6       1.0000 0.98140  0.81860  0.14510  Biso   1.000  H
  H7       1.0000 0.98140  0.68140  0.35490  Biso   1.000  H
  H8       1.0000 0.51860  0.81860  0.35490  Biso   1.000  H
  C9       1.0000 0.18130  0.70830  0.90363  Biso   1.000  C
  C10      1.0000 0.31870  0.79170  0.90363  Biso   1.000  C
  C11      1.0000 0.31870  0.70830  0.59637  Biso   1.000  C
  C12      1.0000 0.18130  0.79170  0.59637  Biso   1.000  C
  C13      1.0000 0.81870  0.29170  0.09637  Biso   1.000  C
  C14      1.0000 0.68130  0.20830  0.09637  Biso   1.000  C
  C15      1.0000 0.68130  0.29170  0.40363  Biso   1.000  C
  C16      1.0000 0.81870  0.20830  0.40363  Biso   1.000  C
  H9       1.0000 0.05440  0.73480  0.89760  Biso   1.000  H
  H10      1.0000 0.44560  0.76520  0.89760  Biso   1.000  H
  H11      1.0000 0.44560  0.73480  0.60240  Biso   1.000  H
  H12      1.0000 0.05440  0.76520  0.60240  Biso   1.000  H
  H13      1.0000 0.94560  0.26520  0.10240  Biso   1.000  H
  H14      1.0000 0.55440  0.23480  0.10240  Biso   1.000  H
  H15      1.0000 0.55440  0.26520  0.39760  Biso   1.000  H
  H16      1.0000 0.94560  0.23480  0.39760  Biso   1.000  H
  H17      1.0000 0.20920  0.66410  0.86850  Biso   1.000  H
  H18      1.0000 0.29080  0.83590  0.86850  Biso   1.000  H
  H19      1.0000 0.29080  0.66410  0.63150  Biso   1.000  H
  H20      1.0000 0.20920  0.83590  0.63150  Biso   1.000  H
  H21      1.0000 0.79080  0.33590  0.13150  Biso   1.000  H
  H22      1.0000 0.70920  0.16410  0.13150  Biso   1.000  H
  H23      1.0000 0.70920  0.33590  0.36850  Biso   1.000  H
  H24      1.0000 0.79080  0.16410  0.36850  Biso   1.000  H
  C17      1.0000 0.37250  0.42790  0.90629  Biso   1.000  C
  C18      1.0000 0.12750  0.07210  0.90629  Biso   1.000  C
  C19      1.0000 0.12750  0.42790  0.59371  Biso   1.000  C
  C20      1.0000 0.37250  0.07210  0.59371  Biso   1.000  C
  C21      1.0000 0.62750  0.57210  0.09371  Biso   1.000  C
  C22      1.0000 0.87250  0.92790  0.09371  Biso   1.000  C
  C23      1.0000 0.87250  0.57210  0.40629  Biso   1.000  C
  C24      1.0000 0.62750  0.92790  0.40629  Biso   1.000  C
  H25      1.0000 0.47020  0.42990  0.93590  Biso   1.000  H
  H26      1.0000 0.02980  0.07010  0.93590  Biso   1.000  H
  H27      1.0000 0.02980  0.42990  0.56410  Biso   1.000  H
  H28      1.0000 0.47020  0.07010  0.56410  Biso   1.000  H
  H29      1.0000 0.52980  0.57010  0.06410  Biso   1.000  H
  H30      1.0000 0.97020  0.92990  0.06410  Biso   1.000  H
  H31      1.0000 0.97020  0.57010  0.43590  Biso   1.000  H
  H32      1.0000 0.52980  0.92990  0.43590  Biso   1.000  H
  C25      1.0000 0.22400  0.49140  0.91090  Biso   1.000  C
  C26      1.0000 0.27600  0.00860  0.91090  Biso   1.000  C
  C27      1.0000 0.27600  0.49140  0.58910  Biso   1.000  C
  C28      1.0000 0.22400  0.00860  0.58910  Biso   1.000  C
  C29      1.0000 0.77600  0.50860  0.08910  Biso   1.000  C
  C30      1.0000 0.72400  0.99140  0.08910  Biso   1.000  C
  C31      1.0000 0.72400  0.50860  0.41090  Biso   1.000  C
  C32      1.0000 0.77600  0.99140  0.41090  Biso   1.000  C
  C33      1.0000 0.09920  0.41750  0.82000  Biso   1.000  C
  C34      1.0000 0.40080  0.08250  0.82000  Biso   1.000  C
  C35      1.0000 0.40080  0.41750  0.68000  Biso   1.000  C
  C36      1.0000 0.09920  0.08250  0.68000  Biso   1.000  C
  C37      1.0000 0.90080  0.58250  0.18000  Biso   1.000  C
  C38      1.0000 0.59920  0.91750  0.18000  Biso   1.000  C
  C39      1.0000 0.59920  0.58250  0.32000  Biso   1.000  C
  C40      1.0000 0.90080  0.91750  0.32000  Biso   1.000  C
  H33      1.0000 0.00410  0.41450  0.78950  Biso   1.000  H
  H34      1.0000 0.49590  0.08550  0.78950  Biso   1.000  H
  H35      1.0000 0.49590  0.41450  0.71050  Biso   1.000  H
  H36      1.0000 0.00410  0.08550  0.71050  Biso   1.000  H
  H37      1.0000 0.99590  0.58550  0.21050  Biso   1.000  H
  H38      1.0000 0.50410  0.91450  0.21050  Biso   1.000  H
  H39      1.0000 0.50410  0.58550  0.28950  Biso   1.000  H
  H40      1.0000 0.99590  0.91450  0.28950  Biso   1.000  H
  C41      1.0000 0.21360  0.55580  0.96762  Biso   1.000  C
  C42      1.0000 0.28640  0.94420  0.96762  Biso   1.000  C
  C43      1.0000 0.28640  0.55580  0.53238  Biso   1.000  C
  C44      1.0000 0.21360  0.94420  0.53238  Biso   1.000  C
  C45      1.0000 0.78640  0.44420  0.03238  Biso   1.000  C
  C46      1.0000 0.71360  0.05580  0.03238  Biso   1.000  C
  C47      1.0000 0.71360  0.44420  0.46762  Biso   1.000  C
  C48      1.0000 0.78640  0.05580  0.46762  Biso   1.000  C
  C49      1.0000 0.08470  0.48630  0.86673  Biso   1.000  C
  C50      1.0000 0.41530  0.01370  0.86673  Biso   1.000  C
  C51      1.0000 0.41530  0.48630  0.63327  Biso   1.000  C
  C52      1.0000 0.08470  0.01370  0.63327  Biso   1.000  C
  C53      1.0000 0.91530  0.51370  0.13327  Biso   1.000  C
  C54      1.0000 0.58470  0.98630  0.13327  Biso   1.000  C
  C55      1.0000 0.58470  0.51370  0.36673  Biso   1.000  C
  C56      1.0000 0.91530  0.98630  0.36673  Biso   1.000  C
  H41      1.0000 0.98100  0.52940  0.86850  Biso   1.000  H
  H42      1.0000 0.51900  0.97060  0.86850  Biso   1.000  H
  H43      1.0000 0.51900  0.52940  0.63150  Biso   1.000  H
  H44      1.0000 0.98100  0.97060  0.63150  Biso   1.000  H
  H45      1.0000 0.01900  0.47060  0.13150  Biso   1.000  H
  H46      1.0000 0.48100  0.02940  0.13150  Biso   1.000  H
  H47      1.0000 0.48100  0.47060  0.36850  Biso   1.000  H
  H48      1.0000 0.01900  0.02940  0.36850  Biso   1.000  H
  C57      1.0000 0.17210  0.71300  0.01795  Biso   1.000  C
  C58      1.0000 0.32790  0.78700  0.01795  Biso   1.000  C
  C59      1.0000 0.32790  0.71300  0.48205  Biso   1.000  C
  C60      1.0000 0.17210  0.78700  0.48205  Biso   1.000  C
  C61      1.0000 0.82790  0.28700  0.98205  Biso   1.000  C
  C62      1.0000 0.67210  0.21300  0.98205  Biso   1.000  C
  C63      1.0000 0.67210  0.28700  0.51795  Biso   1.000  C
  C64      1.0000 0.82790  0.21300  0.51795  Biso   1.000  C
  H49      1.0000 0.18070  0.67110  0.05530  Biso   1.000  H
  H50      1.0000 0.31930  0.82890  0.05530  Biso   1.000  H
  H51      1.0000 0.31930  0.67110  0.44470  Biso   1.000  H
  H52      1.0000 0.18070  0.82890  0.44470  Biso   1.000  H
  H53      1.0000 0.81930  0.32890  0.94470  Biso   1.000  H
  H54      1.0000 0.68070  0.17110  0.94470  Biso   1.000  H
  H55      1.0000 0.68070  0.32890  0.55530  Biso   1.000  H
  H56      1.0000 0.81930  0.17110  0.55530  Biso   1.000  H
  H57      1.0000 0.05060  0.74700  0.01860  Biso   1.000  H
  H58      1.0000 0.44940  0.75300  0.01860  Biso   1.000  H
  H59      1.0000 0.44940  0.74700  0.48140  Biso   1.000  H
  H60      1.0000 0.05060  0.75300  0.48140  Biso   1.000  H
  H61      1.0000 0.94940  0.25300  0.98140  Biso   1.000  H
  H62      1.0000 0.55060  0.24700  0.98140  Biso   1.000  H
  H63      1.0000 0.55060  0.25300  0.51860  Biso   1.000  H
  H64      1.0000 0.94940  0.24700  0.51860  Biso   1.000  H
