data_image0
_cell_length_a       7.7783
_cell_length_b       12.6455
_cell_length_c       15.1497
_cell_angle_alpha    90
_cell_angle_beta     98.037
_cell_angle_gamma    90

_symmetry_space_group_name_H-M    "P 1"
_symmetry_int_tables_number       1

loop_
  _symmetry_equiv_pos_as_xyz
  'x, y, z'

loop_
  _atom_site_label
  _atom_site_occupancy
  _atom_site_fract_x
  _atom_site_fract_y
  _atom_site_fract_z
  _atom_site_thermal_displace_type
  _atom_site_B_iso_or_equiv
  _atom_site_type_symbol
  Cu1      1.0000 0.09078  0.98053  0.25735  Biso   1.000  Cu
  Cu2      1.0000 0.40922  0.48053  0.24265  Biso   1.000  Cu
  Cu3      1.0000 0.90922  0.01947  0.74265  Biso   1.000  Cu
  Cu4      1.0000 0.59078  0.51947  0.75735  Biso   1.000  Cu
  N1       1.0000 0.30590  0.03050  0.33350  Biso   1.000  N
  N2       1.0000 0.19410  0.53050  0.16650  Biso   1.000  N
  N3       1.0000 0.69410  0.96950  0.66650  Biso   1.000  N
  N4       1.0000 0.80590  0.46950  0.83350  Biso   1.000  N
  O1       1.0000 0.06430  0.11130  0.19340  Biso   1.000  O
  O2       1.0000 0.43570  0.61130  0.30660  Biso   1.000  O
  O3       1.0000 0.93570  0.88870  0.80660  Biso   1.000  O
  O4       1.0000 0.56430  0.38870  0.69340  Biso   1.000  O
  N5       1.0000 0.60340  0.03750  0.40740  Biso   1.000  N
  N6       1.0000 0.89660  0.53750  0.09260  Biso   1.000  N
  N7       1.0000 0.39660  0.96250  0.59260  Biso   1.000  N
  N8       1.0000 0.10340  0.46250  0.90740  Biso   1.000  N
  N9       1.0000 0.87030  0.02050  0.34210  Biso   1.000  N
  N10      1.0000 0.62970  0.52050  0.15790  Biso   1.000  N
  N11      1.0000 0.12970  0.97950  0.65790  Biso   1.000  N
  N12      1.0000 0.37030  0.47950  0.84210  Biso   1.000  N
  C1       1.0000 0.44830  0.03290  0.36410  Biso   1.000  C
  C2       1.0000 0.05170  0.53290  0.13590  Biso   1.000  C
  C3       1.0000 0.55170  0.96710  0.63590  Biso   1.000  C
  C4       1.0000 0.94830  0.46710  0.86410  Biso   1.000  C
  C5       1.0000 0.74040  0.02760  0.36870  Biso   1.000  C
  C6       1.0000 0.75960  0.52760  0.13130  Biso   1.000  C
  C7       1.0000 0.25960  0.97240  0.63130  Biso   1.000  C
  C8       1.0000 0.24040  0.47240  0.86870  Biso   1.000  C
  N13      1.0000 0.11750  0.83220  0.31480  Biso   1.000  N
  N14      1.0000 0.38250  0.33220  0.18520  Biso   1.000  N
  N15      1.0000 0.88250  0.16780  0.68520  Biso   1.000  N
  N16      1.0000 0.61750  0.66780  0.81480  Biso   1.000  N
  C9       1.0000 0.13500  0.82570  0.41350  Biso   1.000  C
  C10      1.0000 0.36500  0.32570  0.08650  Biso   1.000  C
  C11      1.0000 0.86500  0.17430  0.58650  Biso   1.000  C
  C12      1.0000 0.63500  0.67430  0.91350  Biso   1.000  C
  H1       1.0000 0.23340  0.86670  0.43910  Biso   1.000  H
  H2       1.0000 0.26660  0.36670  0.06090  Biso   1.000  H
  H3       1.0000 0.76660  0.13330  0.56090  Biso   1.000  H
  H4       1.0000 0.73340  0.63330  0.93910  Biso   1.000  H
  H5       1.0000 0.15110  0.75330  0.43180  Biso   1.000  H
  H6       1.0000 0.34890  0.25330  0.06820  Biso   1.000  H
  H7       1.0000 0.84890  0.24670  0.56820  Biso   1.000  H
  H8       1.0000 0.65110  0.74670  0.93180  Biso   1.000  H
  H9       1.0000 0.03180  0.85300  0.43340  Biso   1.000  H
  H10      1.0000 0.46820  0.35300  0.06660  Biso   1.000  H
  H11      1.0000 0.96820  0.14700  0.56660  Biso   1.000  H
  H12      1.0000 0.53180  0.64700  0.93340  Biso   1.000  H
  C13      1.0000 0.96990  0.76930  0.27200  Biso   1.000  C
  C14      1.0000 0.53010  0.26930  0.22800  Biso   1.000  C
  C15      1.0000 0.03010  0.23070  0.72800  Biso   1.000  C
  C16      1.0000 0.46990  0.73070  0.77200  Biso   1.000  C
  H13      1.0000 0.86460  0.78940  0.29530  Biso   1.000  H
  H14      1.0000 0.63540  0.28940  0.20470  Biso   1.000  H
  H15      1.0000 0.13540  0.21060  0.70470  Biso   1.000  H
  H16      1.0000 0.36460  0.71060  0.79530  Biso   1.000  H
  H17      1.0000 0.99090  0.69470  0.28370  Biso   1.000  H
  H18      1.0000 0.50910  0.19470  0.21630  Biso   1.000  H
  H19      1.0000 0.00910  0.30530  0.71630  Biso   1.000  H
  H20      1.0000 0.49090  0.80530  0.78370  Biso   1.000  H
  C17      1.0000 0.95060  0.79060  0.17250  Biso   1.000  C
  C18      1.0000 0.54940  0.29060  0.32750  Biso   1.000  C
  C19      1.0000 0.04940  0.20940  0.82750  Biso   1.000  C
  C20      1.0000 0.45060  0.70940  0.67250  Biso   1.000  C
  H21      1.0000 0.04530  0.75820  0.14690  Biso   1.000  H
  H22      1.0000 0.45470  0.25820  0.35310  Biso   1.000  H
  H23      1.0000 0.95470  0.24180  0.85310  Biso   1.000  H
  H24      1.0000 0.54530  0.74180  0.64690  Biso   1.000  H
  H25      1.0000 0.84200  0.76160  0.14310  Biso   1.000  H
  H26      1.0000 0.65800  0.26160  0.35690  Biso   1.000  H
  H27      1.0000 0.15800  0.23840  0.85690  Biso   1.000  H
  H28      1.0000 0.34200  0.73840  0.64310  Biso   1.000  H
  N17      1.0000 0.95340  0.90460  0.16110  Biso   1.000  N
  N18      1.0000 0.54660  0.40460  0.33890  Biso   1.000  N
  N19      1.0000 0.04660  0.09540  0.83890  Biso   1.000  N
  N20      1.0000 0.45340  0.59540  0.66110  Biso   1.000  N
  C21      1.0000 0.86910  0.94720  0.09090  Biso   1.000  C
  C22      1.0000 0.63090  0.44720  0.40910  Biso   1.000  C
  C23      1.0000 0.13090  0.05280  0.90910  Biso   1.000  C
  C24      1.0000 0.36910  0.55280  0.59090  Biso   1.000  C
  H29      1.0000 0.80960  0.90090  0.04980  Biso   1.000  H
  H30      1.0000 0.69040  0.40090  0.45020  Biso   1.000  H
  H31      1.0000 0.19040  0.09910  0.95020  Biso   1.000  H
  H32      1.0000 0.30960  0.59910  0.54980  Biso   1.000  H
  C25      1.0000 0.85590  0.05500  0.06890  Biso   1.000  C
  C26      1.0000 0.64410  0.55500  0.43110  Biso   1.000  C
  C27      1.0000 0.14410  0.94500  0.93110  Biso   1.000  C
  C28      1.0000 0.35590  0.44500  0.56890  Biso   1.000  C
  C29      1.0000 0.95360  0.13270  0.12250  Biso   1.000  C
  C30      1.0000 0.54640  0.63270  0.37750  Biso   1.000  C
  C31      1.0000 0.04640  0.86730  0.87750  Biso   1.000  C
  C32      1.0000 0.45360  0.36730  0.62250  Biso   1.000  C
  C33      1.0000 0.93180  0.24070  0.09790  Biso   1.000  C
  C34      1.0000 0.56820  0.74070  0.40210  Biso   1.000  C
  C35      1.0000 0.06820  0.75930  0.90210  Biso   1.000  C
  C36      1.0000 0.43180  0.25930  0.59790  Biso   1.000  C
  H33      1.0000 0.99550  0.29160  0.13270  Biso   1.000  H
  H34      1.0000 0.50450  0.79160  0.36730  Biso   1.000  H
  H35      1.0000 0.00450  0.70840  0.86730  Biso   1.000  H
  H36      1.0000 0.49550  0.20840  0.63270  Biso   1.000  H
  C37      1.0000 0.82130  0.27210  0.02560  Biso   1.000  C
  C38      1.0000 0.67870  0.77210  0.47440  Biso   1.000  C
  C39      1.0000 0.17870  0.72790  0.97440  Biso   1.000  C
  C40      1.0000 0.32130  0.22790  0.52560  Biso   1.000  C
  H37      1.0000 0.81080  0.34370  0.01190  Biso   1.000  H
  H38      1.0000 0.68920  0.84370  0.48810  Biso   1.000  H
  H39      1.0000 0.18920  0.65630  0.98810  Biso   1.000  H
  H40      1.0000 0.31080  0.15630  0.51190  Biso   1.000  H
  C41      1.0000 0.72080  0.19710  0.96980  Biso   1.000  C
  C42      1.0000 0.77920  0.69710  0.53020  Biso   1.000  C
  C43      1.0000 0.27920  0.80290  0.03020  Biso   1.000  C
  C44      1.0000 0.22080  0.30290  0.46980  Biso   1.000  C
  C45      1.0000 0.60660  0.23190  0.89370  Biso   1.000  C
  C46      1.0000 0.89340  0.73190  0.60630  Biso   1.000  C
  C47      1.0000 0.39340  0.76810  0.10630  Biso   1.000  C
  C48      1.0000 0.10660  0.26810  0.39370  Biso   1.000  C
  H41      1.0000 0.59590  0.30380  0.88110  Biso   1.000  H
  H42      1.0000 0.90410  0.80380  0.61890  Biso   1.000  H
  H43      1.0000 0.40410  0.69620  0.11890  Biso   1.000  H
  H44      1.0000 0.09590  0.19620  0.38110  Biso   1.000  H
  C49      1.0000 0.51480  0.16210  0.84030  Biso   1.000  C
  C50      1.0000 0.98520  0.66210  0.65970  Biso   1.000  C
  C51      1.0000 0.48520  0.83790  0.15970  Biso   1.000  C
  C52      1.0000 0.01480  0.33790  0.34030  Biso   1.000  C
  H45      1.0000 0.43860  0.18540  0.79130  Biso   1.000  H
  H46      1.0000 0.06140  0.68540  0.70870  Biso   1.000  H
  H47      1.0000 0.56140  0.81460  0.20870  Biso   1.000  H
  H48      1.0000 0.93860  0.31460  0.29130  Biso   1.000  H
  C53      1.0000 0.53340  0.05480  0.85800  Biso   1.000  C
  C54      1.0000 0.96660  0.55480  0.64200  Biso   1.000  C
  C55      1.0000 0.46660  0.94520  0.14200  Biso   1.000  C
  C56      1.0000 0.03340  0.44520  0.35800  Biso   1.000  C
  H49      1.0000 0.47070  0.00680  0.81970  Biso   1.000  H
  H50      1.0000 0.02930  0.50680  0.68030  Biso   1.000  H
  H51      1.0000 0.52930  0.99320  0.18030  Biso   1.000  H
  H52      1.0000 0.97070  0.49320  0.31970  Biso   1.000  H
  C57      1.0000 0.64180  0.01790  0.93040  Biso   1.000  C
  C58      1.0000 0.85820  0.51790  0.56960  Biso   1.000  C
  C59      1.0000 0.35820  0.98210  0.06960  Biso   1.000  C
  C60      1.0000 0.14180  0.48210  0.43040  Biso   1.000  C
  H53      1.0000 0.65120  0.94550  0.94080  Biso   1.000  H
  H54      1.0000 0.84880  0.44550  0.55920  Biso   1.000  H
  H55      1.0000 0.34880  0.05450  0.05920  Biso   1.000  H
  H56      1.0000 0.15120  0.55450  0.44080  Biso   1.000  H
  C61      1.0000 0.73990  0.08940  0.98970  Biso   1.000  C
  C62      1.0000 0.76010  0.58940  0.51030  Biso   1.000  C
  C63      1.0000 0.26010  0.91060  0.01030  Biso   1.000  C
  C64      1.0000 0.23990  0.41060  0.48970  Biso   1.000  C
  H57      1.0000 0.20700  0.80900  0.30200  Biso   1.000  H
  H58      1.0000 0.29300  0.30900  0.19800  Biso   1.000  H
  H59      1.0000 0.79300  0.19100  0.69800  Biso   1.000  H
  H60      1.0000 0.70700  0.69100  0.80200  Biso   1.000  H
