data_image0
_cell_length_a       7.632
_cell_length_b       8.633
_cell_length_c       24.577
_cell_angle_alpha    90
_cell_angle_beta     105.783
_cell_angle_gamma    90

_symmetry_space_group_name_H-M    "P 1"
_symmetry_int_tables_number       1

loop_
  _symmetry_equiv_pos_as_xyz
  'x, y, z'

loop_
  _atom_site_label
  _atom_site_occupancy
  _atom_site_fract_x
  _atom_site_fract_y
  _atom_site_fract_z
  _atom_site_thermal_displace_type
  _atom_site_B_iso_or_equiv
  _atom_site_type_symbol
  C1       1.0000 0.26890  0.78790  0.83812  Biso   1.000  C
  C2       1.0000 0.73110  0.28790  0.66188  Biso   1.000  C
  C3       1.0000 0.73110  0.21210  0.16188  Biso   1.000  C
  C4       1.0000 0.26890  0.71210  0.33812  Biso   1.000  C
  H1       1.0000 0.26440  0.77320  0.80030  Biso   1.000  H
  H2       1.0000 0.73560  0.27320  0.69970  Biso   1.000  H
  H3       1.0000 0.73560  0.22680  0.19970  Biso   1.000  H
  H4       1.0000 0.26440  0.72680  0.30030  Biso   1.000  H
  C5       1.0000 0.24410  0.89110  0.91605  Biso   1.000  C
  C6       1.0000 0.75590  0.39110  0.58395  Biso   1.000  C
  C7       1.0000 0.75590  0.10890  0.08395  Biso   1.000  C
  C8       1.0000 0.24410  0.60890  0.41605  Biso   1.000  C
  H5       1.0000 0.21930  0.96090  0.94180  Biso   1.000  H
  H6       1.0000 0.78070  0.46090  0.55820  Biso   1.000  H
  H7       1.0000 0.78070  0.03910  0.05820  Biso   1.000  H
  H8       1.0000 0.21930  0.53910  0.44180  Biso   1.000  H
  C9       1.0000 0.59950  0.17080  0.90648  Biso   1.000  C
  C10      1.0000 0.40050  0.67080  0.59352  Biso   1.000  C
  C11      1.0000 0.40050  0.82920  0.09352  Biso   1.000  C
  C12      1.0000 0.59950  0.32920  0.40648  Biso   1.000  C
  C13      1.0000 0.65650  0.03040  0.87927  Biso   1.000  C
  C14      1.0000 0.34350  0.53040  0.62073  Biso   1.000  C
  C15      1.0000 0.34350  0.96960  0.12073  Biso   1.000  C
  C16      1.0000 0.65650  0.46960  0.37927  Biso   1.000  C
  C17      1.0000 0.73010  0.90030  0.91109  Biso   1.000  C
  C18      1.0000 0.26990  0.40030  0.58891  Biso   1.000  C
  C19      1.0000 0.26990  0.09970  0.08891  Biso   1.000  C
  C20      1.0000 0.73010  0.59970  0.41109  Biso   1.000  C
  H9       1.0000 0.74360  0.89790  0.94980  Biso   1.000  H
  H10      1.0000 0.25640  0.39790  0.55020  Biso   1.000  H
  H11      1.0000 0.25640  0.10210  0.05020  Biso   1.000  H
  H12      1.0000 0.74360  0.60210  0.44980  Biso   1.000  H
  C21      1.0000 0.78300  0.77390  0.88398  Biso   1.000  C
  C22      1.0000 0.21700  0.27390  0.61602  Biso   1.000  C
  C23      1.0000 0.21700  0.22610  0.11602  Biso   1.000  C
  C24      1.0000 0.78300  0.72610  0.38398  Biso   1.000  C
  C25      1.0000 0.77520  0.77970  0.82680  Biso   1.000  C
  C26      1.0000 0.22480  0.27970  0.67320  Biso   1.000  C
  C27      1.0000 0.22480  0.22030  0.17320  Biso   1.000  C
  C28      1.0000 0.77520  0.72030  0.32680  Biso   1.000  C
  H13      1.0000 0.81770  0.69700  0.80970  Biso   1.000  H
  H14      1.0000 0.18230  0.19700  0.69030  Biso   1.000  H
  H15      1.0000 0.18230  0.30300  0.19030  Biso   1.000  H
  H16      1.0000 0.81770  0.80300  0.30970  Biso   1.000  H
  C29      1.0000 0.70310  0.91050  0.79536  Biso   1.000  C
  C30      1.0000 0.29690  0.41050  0.70464  Biso   1.000  C
  C31      1.0000 0.29690  0.08950  0.20464  Biso   1.000  C
  C32      1.0000 0.70310  0.58950  0.29536  Biso   1.000  C
  C33      1.0000 0.70920  0.92030  0.73429  Biso   1.000  C
  C34      1.0000 0.29080  0.42030  0.76571  Biso   1.000  C
  C35      1.0000 0.29080  0.07970  0.26571  Biso   1.000  C
  C36      1.0000 0.70920  0.57970  0.23429  Biso   1.000  C
  C37      1.0000 0.63890  0.03350  0.82110  Biso   1.000  C
  C38      1.0000 0.36110  0.53350  0.67890  Biso   1.000  C
  C39      1.0000 0.36110  0.96650  0.17890  Biso   1.000  C
  C40      1.0000 0.63890  0.46650  0.32110  Biso   1.000  C
  H17      1.0000 0.58420  0.11790  0.79960  Biso   1.000  H
  H18      1.0000 0.41580  0.61790  0.70040  Biso   1.000  H
  H19      1.0000 0.41580  0.88210  0.20040  Biso   1.000  H
  H20      1.0000 0.58420  0.38210  0.29960  Biso   1.000  H
  N1       1.0000 0.13610  0.05250  0.83155  Biso   1.000  N
  N2       1.0000 0.86390  0.55250  0.66845  Biso   1.000  N
  N3       1.0000 0.86390  0.94750  0.16845  Biso   1.000  N
  N4       1.0000 0.13610  0.44750  0.33155  Biso   1.000  N
  H21      1.0000 0.09940  0.12520  0.84970  Biso   1.000  H
  H22      1.0000 0.90060  0.62520  0.65030  Biso   1.000  H
  H23      1.0000 0.90060  0.87480  0.15030  Biso   1.000  H
  H24      1.0000 0.09940  0.37480  0.34970  Biso   1.000  H
  H25      1.0000 0.12320  0.06160  0.79580  Biso   1.000  H
  H26      1.0000 0.87680  0.56160  0.70420  Biso   1.000  H
  H27      1.0000 0.87680  0.93840  0.20420  Biso   1.000  H
  H28      1.0000 0.12320  0.43840  0.29580  Biso   1.000  H
  N5       1.0000 0.21730  0.91740  0.86051  Biso   1.000  N
  N6       1.0000 0.78270  0.41740  0.63949  Biso   1.000  N
  N7       1.0000 0.78270  0.08260  0.13949  Biso   1.000  N
  N8       1.0000 0.21730  0.58260  0.36051  Biso   1.000  N
  N9       1.0000 0.32620  0.68660  0.87864  Biso   1.000  N
  N10      1.0000 0.67380  0.18660  0.62136  Biso   1.000  N
  N11      1.0000 0.67380  0.31340  0.12136  Biso   1.000  N
  N12      1.0000 0.32620  0.81340  0.37864  Biso   1.000  N
  N13      1.0000 0.31060  0.75140  0.92821  Biso   1.000  N
  N14      1.0000 0.68940  0.25140  0.57179  Biso   1.000  N
  N15      1.0000 0.68940  0.24860  0.07179  Biso   1.000  N
  N16      1.0000 0.31060  0.74860  0.42821  Biso   1.000  N
  O1       1.0000 0.67370  0.19550  0.95795  Biso   1.000  O
  O2       1.0000 0.32630  0.69550  0.54205  Biso   1.000  O
  O3       1.0000 0.32630  0.80450  0.04205  Biso   1.000  O
  O4       1.0000 0.67370  0.30450  0.45795  Biso   1.000  O
  O5       1.0000 0.48240  0.25570  0.87356  Biso   1.000  O
  O6       1.0000 0.51760  0.75570  0.62644  Biso   1.000  O
  O7       1.0000 0.51760  0.74430  0.12644  Biso   1.000  O
  O8       1.0000 0.48240  0.24430  0.37356  Biso   1.000  O
  O9       1.0000 0.00470  0.65580  0.97356  Biso   1.000  O
  O10      1.0000 0.99530  0.15580  0.52644  Biso   1.000  O
  O11      1.0000 0.99530  0.34420  0.02644  Biso   1.000  O
  O12      1.0000 0.00470  0.84420  0.47356  Biso   1.000  O
  O13      1.0000 0.70690  0.53930  0.93815  Biso   1.000  O
  O14      1.0000 0.29310  0.03930  0.56185  Biso   1.000  O
  O15      1.0000 0.29310  0.46070  0.06185  Biso   1.000  O
  O16      1.0000 0.70690  0.96070  0.43815  Biso   1.000  O
  O17      1.0000 0.93730  0.50340  0.88754  Biso   1.000  O
  O18      1.0000 0.06270  0.00340  0.61246  Biso   1.000  O
  O19      1.0000 0.06270  0.49660  0.11246  Biso   1.000  O
  O20      1.0000 0.93730  0.99660  0.38754  Biso   1.000  O
  O21      1.0000 0.83430  0.86020  0.72014  Biso   1.000  O
  O22      1.0000 0.16570  0.36020  0.77986  Biso   1.000  O
  O23      1.0000 0.16570  0.13980  0.27986  Biso   1.000  O
  O24      1.0000 0.83430  0.63980  0.22014  Biso   1.000  O
  O25      1.0000 0.57600  0.99540  0.70023  Biso   1.000  O
  O26      1.0000 0.42400  0.49540  0.79977  Biso   1.000  O
  O27      1.0000 0.42400  0.00460  0.29977  Biso   1.000  O
  O28      1.0000 0.57600  0.50460  0.20023  Biso   1.000  O
  O29      1.0000 0.37650  0.44230  0.95320  Biso   1.000  O
  O30      1.0000 0.62350  0.94230  0.54680  Biso   1.000  O
  O31      1.0000 0.62350  0.55770  0.04680  Biso   1.000  O
  O32      1.0000 0.37650  0.05770  0.45320  Biso   1.000  O
  H29      1.0000 0.28980  0.35930  0.95420  Biso   1.000  H
  H30      1.0000 0.71020  0.85930  0.54580  Biso   1.000  H
  H31      1.0000 0.71020  0.64070  0.04580  Biso   1.000  H
  H32      1.0000 0.28980  0.14070  0.45420  Biso   1.000  H
  S1       1.0000 0.86758  0.60384  0.92358  Biso   1.000  S
  S2       1.0000 0.13242  0.10384  0.57642  Biso   1.000  S
  S3       1.0000 0.13242  0.39616  0.07642  Biso   1.000  S
  S4       1.0000 0.86758  0.89616  0.42358  Biso   1.000  S
  Cu1      1.0000 0.40741  0.47021  0.87767  Biso   1.000  Cu
  Cu2      1.0000 0.59259  0.97021  0.62233  Biso   1.000  Cu
  Cu3      1.0000 0.59259  0.52979  0.12233  Biso   1.000  Cu
  Cu4      1.0000 0.40741  0.02979  0.37767  Biso   1.000  Cu
  Cu5      1.0000 0.34491  0.61872  0.99834  Biso   1.000  Cu
  Cu6      1.0000 0.65509  0.11872  0.50167  Biso   1.000  Cu
  Cu7      1.0000 0.65509  0.38128  0.00167  Biso   1.000  Cu
  Cu8      1.0000 0.34491  0.88128  0.49834  Biso   1.000  Cu
  O33      1.0000 0.23640  0.88910  0.72186  Biso   1.000  O
  O34      1.0000 0.76360  0.38910  0.77814  Biso   1.000  O
  O35      1.0000 0.76360  0.11090  0.27814  Biso   1.000  O
  O36      1.0000 0.23640  0.61090  0.22186  Biso   1.000  O
  H33      1.0000 0.16490  0.96650  0.71640  Biso   1.000  H
  H34      1.0000 0.83510  0.46650  0.78360  Biso   1.000  H
  H35      1.0000 0.83510  0.03350  0.28360  Biso   1.000  H
  H36      1.0000 0.16490  0.53350  0.21640  Biso   1.000  H
  H37      1.0000 0.17800  0.80880  0.70710  Biso   1.000  H
  H38      1.0000 0.82200  0.30880  0.79290  Biso   1.000  H
  H39      1.0000 0.82200  0.19120  0.29290  Biso   1.000  H
  H40      1.0000 0.17800  0.69120  0.20710  Biso   1.000  H
  O37      1.0000 0.11820  0.20810  0.94266  Biso   1.000  O
  O38      1.0000 0.88180  0.70810  0.55734  Biso   1.000  O
  O39      1.0000 0.88180  0.79190  0.05734  Biso   1.000  O
  O40      1.0000 0.11820  0.29190  0.44266  Biso   1.000  O
  H41      1.0000 0.07440  0.12600  0.95280  Biso   1.000  H
  H42      1.0000 0.92560  0.62600  0.54720  Biso   1.000  H
  H43      1.0000 0.92560  0.87400  0.04720  Biso   1.000  H
  H44      1.0000 0.07440  0.37400  0.45280  Biso   1.000  H
  H45      1.0000 0.05720  0.23280  0.90940  Biso   1.000  H
  H46      1.0000 0.94280  0.73280  0.59060  Biso   1.000  H
  H47      1.0000 0.94280  0.76720  0.09060  Biso   1.000  H
  H48      1.0000 0.05720  0.26720  0.40940  Biso   1.000  H
