data_image0
_cell_length_a       6.446
_cell_length_b       6.446
_cell_length_c       14.444
_cell_angle_alpha    90
_cell_angle_beta     98.145
_cell_angle_gamma    90

_symmetry_space_group_name_H-M    "P 1"
_symmetry_int_tables_number       1

loop_
  _symmetry_equiv_pos_as_xyz
  'x, y, z'

loop_
  _atom_site_label
  _atom_site_occupancy
  _atom_site_fract_x
  _atom_site_fract_y
  _atom_site_fract_z
  _atom_site_thermal_displace_type
  _atom_site_B_iso_or_equiv
  _atom_site_type_symbol
  C1       1.0000 0.59200  0.39100  0.56920  Biso   1.000  C
  C2       1.0000 0.40800  0.89100  0.43080  Biso   1.000  C
  C3       1.0000 0.78060  0.28000  0.61270  Biso   1.000  C
  C4       1.0000 0.21940  0.78000  0.38730  Biso   1.000  C
  H1       1.0000 0.77320  0.13980  0.58570  Biso   1.000  H
  H2       1.0000 0.22680  0.63980  0.41430  Biso   1.000  H
  C5       1.0000 0.95600  0.39600  0.57060  Biso   1.000  C
  C6       1.0000 0.04400  0.89600  0.42940  Biso   1.000  C
  C7       1.0000 0.81000  0.25300  0.71740  Biso   1.000  C
  C8       1.0000 0.19000  0.75300  0.28260  Biso   1.000  C
  C9       1.0000 0.81700  0.41800  0.77560  Biso   1.000  C
  C10      1.0000 0.18300  0.91800  0.22440  Biso   1.000  C
  H3       1.0000 0.79690  0.55130  0.75170  Biso   1.000  H
  H4       1.0000 0.20310  0.05130  0.24830  Biso   1.000  H
  C11      1.0000 0.85400  0.38700  0.86680  Biso   1.000  C
  C12      1.0000 0.14600  0.88700  0.13320  Biso   1.000  C
  H5       1.0000 0.86440  0.50030  0.90690  Biso   1.000  H
  H6       1.0000 0.13560  0.00030  0.09310  Biso   1.000  H
  C13      1.0000 0.87600  0.18300  0.90500  Biso   1.000  C
  C14      1.0000 0.12400  0.68300  0.09500  Biso   1.000  C
  H7       1.0000 0.89840  0.16400  0.96950  Biso   1.000  H
  H8       1.0000 0.10160  0.66400  0.03050  Biso   1.000  H
  C15      1.0000 0.86400  0.00600  0.84310  Biso   1.000  C
  C16      1.0000 0.13600  0.50600  0.15690  Biso   1.000  C
  H9       1.0000 0.87400  0.87120  0.86610  Biso   1.000  H
  H10      1.0000 0.12600  0.37120  0.13390  Biso   1.000  H
  C17      1.0000 0.84000  0.04400  0.75240  Biso   1.000  C
  C18      1.0000 0.16000  0.54400  0.24760  Biso   1.000  C
  H11      1.0000 0.84140  0.93500  0.71050  Biso   1.000  H
  H12      1.0000 0.15860  0.43500  0.28950  Biso   1.000  H
  C19      1.0000 0.34200  0.71800  0.79310  Biso   1.000  C
  C20      1.0000 0.65800  0.21800  0.20690  Biso   1.000  C
  H13      1.0000 0.32480  0.58020  0.77500  Biso   1.000  H
  H14      1.0000 0.67520  0.08020  0.22500  Biso   1.000  H
  C21      1.0000 0.39000  0.96000  0.90420  Biso   1.000  C
  C22      1.0000 0.61000  0.46000  0.09580  Biso   1.000  C
  H15      1.0000 0.41360  0.99570  0.96720  Biso   1.000  H
  H16      1.0000 0.58640  0.49570  0.03280  Biso   1.000  H
  C23      1.0000 0.36400  0.11900  0.83820  Biso   1.000  C
  C24      1.0000 0.63600  0.61900  0.16180  Biso   1.000  C
  H17      1.0000 0.36980  0.25820  0.85590  Biso   1.000  H
  H18      1.0000 0.63020  0.75820  0.14410  Biso   1.000  H
  C25      1.0000 0.33070  0.06400  0.75010  Biso   1.000  C
  C26      1.0000 0.66930  0.56400  0.24990  Biso   1.000  C
  H19      1.0000 0.31390  0.16540  0.70390  Biso   1.000  H
  H20      1.0000 0.68610  0.66540  0.29610  Biso   1.000  H
  N1       1.0000 0.31980  0.85300  0.72390  Biso   1.000  N
  N2       1.0000 0.68020  0.35300  0.27610  Biso   1.000  N
  N3       1.0000 0.38400  0.74700  0.88000  Biso   1.000  N
  N4       1.0000 0.61600  0.24700  0.12000  Biso   1.000  N
  O1       1.0000 0.48930  0.49140  0.62270  Biso   1.000  O
  O2       1.0000 0.51070  0.99140  0.37730  Biso   1.000  O
  O3       1.0000 0.54500  0.37810  0.48100  Biso   1.000  O
  O4       1.0000 0.45500  0.87810  0.51900  Biso   1.000  O
  O5       1.0000 0.07800  0.50180  0.62360  Biso   1.000  O
  O6       1.0000 0.92200  0.00180  0.37640  Biso   1.000  O
  O7       1.0000 0.94840  0.38110  0.48330  Biso   1.000  O
  O8       1.0000 0.05160  0.88110  0.51670  Biso   1.000  O
  Cu1      1.0000 0.27339  0.70340  0.58174  Biso   1.000  Cu
  Cu2      1.0000 0.72661  0.20340  0.41826  Biso   1.000  Cu
