data_image0
_cell_length_a       7.8349
_cell_length_b       13.6689
_cell_length_c       16.0221
_cell_angle_alpha    90
_cell_angle_beta     106.526
_cell_angle_gamma    90

_symmetry_space_group_name_H-M    "P 1"
_symmetry_int_tables_number       1

loop_
  _symmetry_equiv_pos_as_xyz
  'x, y, z'

loop_
  _atom_site_label
  _atom_site_occupancy
  _atom_site_fract_x
  _atom_site_fract_y
  _atom_site_fract_z
  _atom_site_thermal_displace_type
  _atom_site_B_iso_or_equiv
  _atom_site_type_symbol
  Cu1      1.0000 0.69608  0.17481  0.39484  Biso   1.000  Cu
  Cu2      1.0000 0.30392  0.67481  0.10516  Biso   1.000  Cu
  Cu3      1.0000 0.30392  0.82519  0.60516  Biso   1.000  Cu
  Cu4      1.0000 0.69608  0.32519  0.89484  Biso   1.000  Cu
  O1       1.0000 0.81160  0.98980  0.29510  Biso   1.000  O
  O2       1.0000 0.18840  0.48980  0.20490  Biso   1.000  O
  O3       1.0000 0.18840  0.01020  0.70490  Biso   1.000  O
  O4       1.0000 0.81160  0.51020  0.79510  Biso   1.000  O
  O5       1.0000 0.90930  0.09710  0.40320  Biso   1.000  O
  O6       1.0000 0.09070  0.59710  0.09680  Biso   1.000  O
  O7       1.0000 0.09070  0.90290  0.59680  Biso   1.000  O
  O8       1.0000 0.90930  0.40290  0.90320  Biso   1.000  O
  O9       1.0000 0.25910  0.78870  0.20140  Biso   1.000  O
  O10      1.0000 0.74090  0.28870  0.29860  Biso   1.000  O
  O11      1.0000 0.74090  0.21130  0.79860  Biso   1.000  O
  O12      1.0000 0.25910  0.71130  0.70140  Biso   1.000  O
  O13      1.0000 0.49260  0.74210  0.31020  Biso   1.000  O
  O14      1.0000 0.50740  0.24210  0.18980  Biso   1.000  O
  O15      1.0000 0.50740  0.25790  0.68980  Biso   1.000  O
  O16      1.0000 0.49260  0.75790  0.81020  Biso   1.000  O
  O17      1.0000 0.54000  0.09790  0.29780  Biso   1.000  O
  O18      1.0000 0.46000  0.59790  0.20220  Biso   1.000  O
  O19      1.0000 0.46000  0.90210  0.70220  Biso   1.000  O
  O20      1.0000 0.54000  0.40210  0.79780  Biso   1.000  O
  H1       1.0000 0.60000  0.05860  0.28330  Biso   1.000  H
  H2       1.0000 0.40000  0.55860  0.21670  Biso   1.000  H
  H3       1.0000 0.40000  0.94140  0.71670  Biso   1.000  H
  H4       1.0000 0.60000  0.44140  0.78330  Biso   1.000  H
  H5       1.0000 0.52520  0.14390  0.26160  Biso   1.000  H
  H6       1.0000 0.47480  0.64390  0.23840  Biso   1.000  H
  H7       1.0000 0.47480  0.85610  0.73840  Biso   1.000  H
  H8       1.0000 0.52520  0.35610  0.76160  Biso   1.000  H
  N1       1.0000 0.82000  0.24660  0.50340  Biso   1.000  N
  N2       1.0000 0.18000  0.74660  0.99660  Biso   1.000  N
  N3       1.0000 0.18000  0.75340  0.49660  Biso   1.000  N
  N4       1.0000 0.82000  0.25340  0.00340  Biso   1.000  N
  N5       1.0000 0.48870  0.24750  0.41380  Biso   1.000  N
  N6       1.0000 0.51130  0.74750  0.08620  Biso   1.000  N
  N7       1.0000 0.51130  0.75250  0.58620  Biso   1.000  N
  N8       1.0000 0.48870  0.25250  0.91380  Biso   1.000  N
  C1       1.0000 0.93010  0.02620  0.35540  Biso   1.000  C
  C2       1.0000 0.06990  0.52620  0.14460  Biso   1.000  C
  C3       1.0000 0.06990  0.97380  0.64460  Biso   1.000  C
  C4       1.0000 0.93010  0.47380  0.85540  Biso   1.000  C
  C5       1.0000 0.11830  0.98690  0.37290  Biso   1.000  C
  C6       1.0000 0.88170  0.48690  0.12710  Biso   1.000  C
  C7       1.0000 0.88170  0.01310  0.62710  Biso   1.000  C
  C8       1.0000 0.11830  0.51310  0.87290  Biso   1.000  C
  C9       1.0000 0.15400  0.91710  0.31760  Biso   1.000  C
  C10      1.0000 0.84600  0.41710  0.18240  Biso   1.000  C
  C11      1.0000 0.84600  0.08290  0.68240  Biso   1.000  C
  C12      1.0000 0.15400  0.58290  0.81760  Biso   1.000  C
  H9       1.0000 0.06460  0.89710  0.26880  Biso   1.000  H
  H10      1.0000 0.93540  0.39710  0.23120  Biso   1.000  H
  H11      1.0000 0.93540  0.10290  0.73120  Biso   1.000  H
  H12      1.0000 0.06460  0.60290  0.76880  Biso   1.000  H
  C13      1.0000 0.32250  0.87690  0.33480  Biso   1.000  C
  C14      1.0000 0.67750  0.37690  0.16520  Biso   1.000  C
  C15      1.0000 0.67750  0.12310  0.66520  Biso   1.000  C
  C16      1.0000 0.32250  0.62310  0.83480  Biso   1.000  C
  C17      1.0000 0.36120  0.79690  0.27730  Biso   1.000  C
  C18      1.0000 0.63880  0.29690  0.22270  Biso   1.000  C
  C19      1.0000 0.63880  0.20310  0.72270  Biso   1.000  C
  C20      1.0000 0.36120  0.70310  0.77730  Biso   1.000  C
  C21      1.0000 0.45630  0.90850  0.40670  Biso   1.000  C
  C22      1.0000 0.54370  0.40850  0.09330  Biso   1.000  C
  C23      1.0000 0.54370  0.09150  0.59330  Biso   1.000  C
  C24      1.0000 0.45630  0.59150  0.90670  Biso   1.000  C
  H13      1.0000 0.56880  0.88050  0.41820  Biso   1.000  H
  H14      1.0000 0.43120  0.38050  0.08180  Biso   1.000  H
  H15      1.0000 0.43120  0.11950  0.58180  Biso   1.000  H
  H16      1.0000 0.56880  0.61950  0.91820  Biso   1.000  H
  C25      1.0000 0.42670  0.98150  0.46260  Biso   1.000  C
  C26      1.0000 0.57330  0.48150  0.03740  Biso   1.000  C
  C27      1.0000 0.57330  0.01850  0.53740  Biso   1.000  C
  C28      1.0000 0.42670  0.51850  0.96260  Biso   1.000  C
  C29      1.0000 0.25360  0.01800  0.44370  Biso   1.000  C
  C30      1.0000 0.74640  0.51800  0.05630  Biso   1.000  C
  C31      1.0000 0.74640  0.98200  0.55630  Biso   1.000  C
  C32      1.0000 0.25360  0.48200  0.94370  Biso   1.000  C
  H17      1.0000 0.22830  0.06530  0.48020  Biso   1.000  H
  H18      1.0000 0.77170  0.56530  0.01980  Biso   1.000  H
  H19      1.0000 0.77170  0.93470  0.51980  Biso   1.000  H
  H20      1.0000 0.22830  0.43470  0.98020  Biso   1.000  H
  C33      1.0000 0.99150  0.23650  0.54870  Biso   1.000  C
  C34      1.0000 0.00850  0.73650  0.95130  Biso   1.000  C
  C35      1.0000 0.00850  0.76350  0.45130  Biso   1.000  C
  C36      1.0000 0.99150  0.26350  0.04870  Biso   1.000  C
  H21      1.0000 0.06020  0.19050  0.53000  Biso   1.000  H
  H22      1.0000 0.93980  0.69050  0.97000  Biso   1.000  H
  H23      1.0000 0.93980  0.80950  0.47000  Biso   1.000  H
  H24      1.0000 0.06020  0.30950  0.03000  Biso   1.000  H
  C37      1.0000 0.07050  0.29100  0.62150  Biso   1.000  C
  C38      1.0000 0.92950  0.79100  0.87850  Biso   1.000  C
  C39      1.0000 0.92950  0.70900  0.37850  Biso   1.000  C
  C40      1.0000 0.07050  0.20900  0.12150  Biso   1.000  C
  H25      1.0000 0.18990  0.28210  0.65150  Biso   1.000  H
  H26      1.0000 0.81010  0.78210  0.84850  Biso   1.000  H
  H27      1.0000 0.81010  0.71790  0.34850  Biso   1.000  H
  H28      1.0000 0.18990  0.21790  0.15150  Biso   1.000  H
  C41      1.0000 0.96850  0.35930  0.64910  Biso   1.000  C
  C42      1.0000 0.03150  0.85930  0.85090  Biso   1.000  C
  C43      1.0000 0.03150  0.64070  0.35090  Biso   1.000  C
  C44      1.0000 0.96850  0.14070  0.14910  Biso   1.000  C
  H29      1.0000 0.01930  0.39800  0.69760  Biso   1.000  H
  H30      1.0000 0.98070  0.89800  0.80240  Biso   1.000  H
  H31      1.0000 0.98070  0.60200  0.30240  Biso   1.000  H
  H32      1.0000 0.01930  0.10200  0.19760  Biso   1.000  H
  C45      1.0000 0.79320  0.36970  0.60490  Biso   1.000  C
  C46      1.0000 0.20680  0.86970  0.89510  Biso   1.000  C
  C47      1.0000 0.20680  0.63030  0.39510  Biso   1.000  C
  C48      1.0000 0.79320  0.13030  0.10490  Biso   1.000  C
  H33      1.0000 0.72280  0.41450  0.62380  Biso   1.000  H
  H34      1.0000 0.27720  0.91450  0.87620  Biso   1.000  H
  H35      1.0000 0.27720  0.58550  0.37620  Biso   1.000  H
  H36      1.0000 0.72280  0.08550  0.12380  Biso   1.000  H
  C49      1.0000 0.72010  0.31270  0.53110  Biso   1.000  C
  C50      1.0000 0.27990  0.81270  0.96890  Biso   1.000  C
  C51      1.0000 0.27990  0.68730  0.46890  Biso   1.000  C
  C52      1.0000 0.72010  0.18730  0.03110  Biso   1.000  C
  C53      1.0000 0.53320  0.31430  0.47890  Biso   1.000  C
  C54      1.0000 0.46680  0.81430  0.02110  Biso   1.000  C
  C55      1.0000 0.46680  0.68570  0.52110  Biso   1.000  C
  C56      1.0000 0.53320  0.18570  0.97890  Biso   1.000  C
  C57      1.0000 0.40330  0.37420  0.49600  Biso   1.000  C
  C58      1.0000 0.59670  0.87420  0.00400  Biso   1.000  C
  C59      1.0000 0.59670  0.62580  0.50400  Biso   1.000  C
  C60      1.0000 0.40330  0.12580  0.99600  Biso   1.000  C
  H37      1.0000 0.43440  0.41930  0.54140  Biso   1.000  H
  H38      1.0000 0.56560  0.91930  0.95860  Biso   1.000  H
  H39      1.0000 0.56560  0.58070  0.45860  Biso   1.000  H
  H40      1.0000 0.43440  0.08070  0.04140  Biso   1.000  H
  C61      1.0000 0.23030  0.36700  0.44640  Biso   1.000  C
  C62      1.0000 0.76970  0.86700  0.05360  Biso   1.000  C
  C63      1.0000 0.76970  0.63300  0.55360  Biso   1.000  C
  C64      1.0000 0.23030  0.13300  0.94640  Biso   1.000  C
  H41      1.0000 0.14340  0.40780  0.45670  Biso   1.000  H
  H42      1.0000 0.85660  0.90780  0.04330  Biso   1.000  H
  H43      1.0000 0.85660  0.59220  0.54330  Biso   1.000  H
  H44      1.0000 0.14340  0.09220  0.95670  Biso   1.000  H
  C65      1.0000 0.18670  0.29780  0.38060  Biso   1.000  C
  C66      1.0000 0.81330  0.79780  0.11940  Biso   1.000  C
  C67      1.0000 0.81330  0.70220  0.61940  Biso   1.000  C
  C68      1.0000 0.18670  0.20220  0.88060  Biso   1.000  C
  H45      1.0000 0.06950  0.29020  0.34690  Biso   1.000  H
  H46      1.0000 0.93050  0.79020  0.15310  Biso   1.000  H
  H47      1.0000 0.93050  0.70980  0.65310  Biso   1.000  H
  H48      1.0000 0.06950  0.20980  0.84690  Biso   1.000  H
  C69      1.0000 0.31870  0.24120  0.36620  Biso   1.000  C
  C70      1.0000 0.68130  0.74120  0.13380  Biso   1.000  C
  C71      1.0000 0.68130  0.75880  0.63380  Biso   1.000  C
  C72      1.0000 0.31870  0.25880  0.86620  Biso   1.000  C
  H49      1.0000 0.28900  0.19600  0.32090  Biso   1.000  H
  H50      1.0000 0.71100  0.69600  0.17910  Biso   1.000  H
  H51      1.0000 0.71100  0.80400  0.67910  Biso   1.000  H
  H52      1.0000 0.28900  0.30400  0.82090  Biso   1.000  H
  O21      1.0000 0.72420  0.47820  0.37280  Biso   1.000  O
  O22      1.0000 0.27580  0.97820  0.12720  Biso   1.000  O
  O23      1.0000 0.27580  0.52180  0.62720  Biso   1.000  O
  O24      1.0000 0.72420  0.02180  0.87280  Biso   1.000  O
  H53      1.0000 0.74480  0.42410  0.36060  Biso   1.000  H
  H54      1.0000 0.25520  0.92410  0.13940  Biso   1.000  H
  H55      1.0000 0.25520  0.57590  0.63940  Biso   1.000  H
  H56      1.0000 0.74480  0.07590  0.86060  Biso   1.000  H
  H57      1.0000 0.82680  0.45550  0.38880  Biso   1.000  H
  H58      1.0000 0.17320  0.95550  0.11120  Biso   1.000  H
  H59      1.0000 0.17320  0.54450  0.61120  Biso   1.000  H
  H60      1.0000 0.82680  0.04450  0.88880  Biso   1.000  H
