data_image0
_cell_length_a       23.243
_cell_length_b       27.437
_cell_length_c       11.451
_cell_angle_alpha    90
_cell_angle_beta     90
_cell_angle_gamma    90

_symmetry_space_group_name_H-M    "P 1"
_symmetry_int_tables_number       1

loop_
  _symmetry_equiv_pos_as_xyz
  'x, y, z'

loop_
  _atom_site_label
  _atom_site_occupancy
  _atom_site_fract_x
  _atom_site_fract_y
  _atom_site_fract_z
  _atom_site_thermal_displace_type
  _atom_site_B_iso_or_equiv
  _atom_site_type_symbol
  Cu1      1.0000 0.17171  0.99543  0.51034  Biso   1.000  Cu
  Cu2      1.0000 0.82829  0.00457  0.51034  Biso   1.000  Cu
  Cu3      1.0000 0.42171  0.25457  0.76034  Biso   1.000  Cu
  Cu4      1.0000 0.07829  0.24543  0.76034  Biso   1.000  Cu
  Cu5      1.0000 0.17171  0.49543  0.01034  Biso   1.000  Cu
  Cu6      1.0000 0.82829  0.50457  0.01034  Biso   1.000  Cu
  Cu7      1.0000 0.42171  0.75457  0.26034  Biso   1.000  Cu
  Cu8      1.0000 0.07829  0.74543  0.26034  Biso   1.000  Cu
  Cu9      1.0000 0.67171  0.99543  0.01034  Biso   1.000  Cu
  Cu10     1.0000 0.32829  0.00457  0.01034  Biso   1.000  Cu
  Cu11     1.0000 0.92171  0.25457  0.26034  Biso   1.000  Cu
  Cu12     1.0000 0.57829  0.24543  0.26034  Biso   1.000  Cu
  Cu13     1.0000 0.67171  0.49543  0.51034  Biso   1.000  Cu
  Cu14     1.0000 0.32829  0.50457  0.51034  Biso   1.000  Cu
  Cu15     1.0000 0.92171  0.75457  0.76034  Biso   1.000  Cu
  Cu16     1.0000 0.57829  0.74543  0.76034  Biso   1.000  Cu
  O1       1.0000 0.18080  0.93880  0.40760  Biso   1.000  O
  O2       1.0000 0.81920  0.06120  0.40760  Biso   1.000  O
  O3       1.0000 0.43080  0.31120  0.65760  Biso   1.000  O
  O4       1.0000 0.06920  0.18880  0.65760  Biso   1.000  O
  O5       1.0000 0.18080  0.43880  0.90760  Biso   1.000  O
  O6       1.0000 0.81920  0.56120  0.90760  Biso   1.000  O
  O7       1.0000 0.43080  0.81120  0.15760  Biso   1.000  O
  O8       1.0000 0.06920  0.68880  0.15760  Biso   1.000  O
  O9       1.0000 0.68080  0.93880  0.90760  Biso   1.000  O
  O10      1.0000 0.31920  0.06120  0.90760  Biso   1.000  O
  O11      1.0000 0.93080  0.31120  0.15760  Biso   1.000  O
  O12      1.0000 0.56920  0.18880  0.15760  Biso   1.000  O
  O13      1.0000 0.68080  0.43880  0.40760  Biso   1.000  O
  O14      1.0000 0.31920  0.56120  0.40760  Biso   1.000  O
  O15      1.0000 0.93080  0.81120  0.65760  Biso   1.000  O
  O16      1.0000 0.56920  0.68880  0.65760  Biso   1.000  O
  O17      1.0000 0.27290  0.96016  0.40040  Biso   1.000  O
  O18      1.0000 0.72710  0.03984  0.40040  Biso   1.000  O
  O19      1.0000 0.52290  0.28984  0.65040  Biso   1.000  O
  O20      1.0000 0.97710  0.21016  0.65040  Biso   1.000  O
  O21      1.0000 0.27290  0.46016  0.90040  Biso   1.000  O
  O22      1.0000 0.72710  0.53984  0.90040  Biso   1.000  O
  O23      1.0000 0.52290  0.78984  0.15040  Biso   1.000  O
  O24      1.0000 0.97710  0.71016  0.15040  Biso   1.000  O
  O25      1.0000 0.77290  0.96016  0.90040  Biso   1.000  O
  O26      1.0000 0.22710  0.03984  0.90040  Biso   1.000  O
  O27      1.0000 0.02290  0.28984  0.15040  Biso   1.000  O
  O28      1.0000 0.47710  0.21016  0.15040  Biso   1.000  O
  O29      1.0000 0.77290  0.46016  0.40040  Biso   1.000  O
  O30      1.0000 0.22710  0.53984  0.40040  Biso   1.000  O
  O31      1.0000 0.02290  0.78984  0.65040  Biso   1.000  O
  O32      1.0000 0.47710  0.71016  0.65040  Biso   1.000  O
  O33      1.0000 0.23820  0.95836  0.11300  Biso   1.000  O
  O34      1.0000 0.76180  0.04164  0.11300  Biso   1.000  O
  O35      1.0000 0.48820  0.29164  0.36300  Biso   1.000  O
  O36      1.0000 0.01180  0.20836  0.36300  Biso   1.000  O
  O37      1.0000 0.23820  0.45836  0.61300  Biso   1.000  O
  O38      1.0000 0.76180  0.54164  0.61300  Biso   1.000  O
  O39      1.0000 0.48820  0.79164  0.86300  Biso   1.000  O
  O40      1.0000 0.01180  0.70836  0.86300  Biso   1.000  O
  O41      1.0000 0.73820  0.95836  0.61300  Biso   1.000  O
  O42      1.0000 0.26180  0.04164  0.61300  Biso   1.000  O
  O43      1.0000 0.98820  0.29164  0.86300  Biso   1.000  O
  O44      1.0000 0.51180  0.20836  0.86300  Biso   1.000  O
  O45      1.0000 0.73820  0.45836  0.11300  Biso   1.000  O
  O46      1.0000 0.26180  0.54164  0.11300  Biso   1.000  O
  O47      1.0000 0.98820  0.79164  0.36300  Biso   1.000  O
  O48      1.0000 0.51180  0.70836  0.36300  Biso   1.000  O
  O49      1.0000 0.33390  0.94694  0.11170  Biso   1.000  O
  O50      1.0000 0.66610  0.05306  0.11170  Biso   1.000  O
  O51      1.0000 0.58390  0.30306  0.36170  Biso   1.000  O
  O52      1.0000 0.91610  0.19694  0.36170  Biso   1.000  O
  O53      1.0000 0.33390  0.44694  0.61170  Biso   1.000  O
  O54      1.0000 0.66610  0.55306  0.61170  Biso   1.000  O
  O55      1.0000 0.58390  0.80306  0.86170  Biso   1.000  O
  O56      1.0000 0.91610  0.69694  0.86170  Biso   1.000  O
  O57      1.0000 0.83390  0.94694  0.61170  Biso   1.000  O
  O58      1.0000 0.16610  0.05306  0.61170  Biso   1.000  O
  O59      1.0000 0.08390  0.30306  0.86170  Biso   1.000  O
  O60      1.0000 0.41610  0.19694  0.86170  Biso   1.000  O
  O61      1.0000 0.83390  0.44694  0.11170  Biso   1.000  O
  O62      1.0000 0.16610  0.55306  0.11170  Biso   1.000  O
  O63      1.0000 0.08390  0.80306  0.36170  Biso   1.000  O
  O64      1.0000 0.41610  0.69694  0.36170  Biso   1.000  O
  O65      1.0000 0.25000  0.75000  0.48720  Biso   1.000  O
  O66      1.0000 0.75000  0.25000  0.48720  Biso   1.000  O
  O67      1.0000 0.50000  0.50000  0.73720  Biso   1.000  O
  O68      1.0000 0.00000  0.00000  0.73720  Biso   1.000  O
  O69      1.0000 0.25000  0.25000  0.98720  Biso   1.000  O
  O70      1.0000 0.75000  0.75000  0.98720  Biso   1.000  O
  O71      1.0000 0.50000  0.00000  0.23720  Biso   1.000  O
  O72      1.0000 0.00000  0.50000  0.23720  Biso   1.000  O
  N1       1.0000 0.15830  0.94890  0.64860  Biso   1.000  N
  N2       1.0000 0.84170  0.05110  0.64860  Biso   1.000  N
  N3       1.0000 0.40830  0.30110  0.89860  Biso   1.000  N
  N4       1.0000 0.09170  0.19890  0.89860  Biso   1.000  N
  N5       1.0000 0.15830  0.44890  0.14860  Biso   1.000  N
  N6       1.0000 0.84170  0.55110  0.14860  Biso   1.000  N
  N7       1.0000 0.40830  0.80110  0.39860  Biso   1.000  N
  N8       1.0000 0.09170  0.69890  0.39860  Biso   1.000  N
  N9       1.0000 0.65830  0.94890  0.14860  Biso   1.000  N
  N10      1.0000 0.34170  0.05110  0.14860  Biso   1.000  N
  N11      1.0000 0.90830  0.30110  0.39860  Biso   1.000  N
  N12      1.0000 0.59170  0.19890  0.39860  Biso   1.000  N
  N13      1.0000 0.65830  0.44890  0.64860  Biso   1.000  N
  N14      1.0000 0.34170  0.55110  0.64860  Biso   1.000  N
  N15      1.0000 0.90830  0.80110  0.89860  Biso   1.000  N
  N16      1.0000 0.59170  0.69890  0.89860  Biso   1.000  N
  N17      1.0000 0.09500  0.79070  0.12390  Biso   1.000  N
  N18      1.0000 0.90500  0.20930  0.12390  Biso   1.000  N
  N19      1.0000 0.34500  0.45930  0.37390  Biso   1.000  N
  N20      1.0000 0.15500  0.04070  0.37390  Biso   1.000  N
  N21      1.0000 0.09500  0.29070  0.62390  Biso   1.000  N
  N22      1.0000 0.90500  0.70930  0.62390  Biso   1.000  N
  N23      1.0000 0.34500  0.95930  0.87390  Biso   1.000  N
  N24      1.0000 0.15500  0.54070  0.87390  Biso   1.000  N
  N25      1.0000 0.59500  0.79070  0.62390  Biso   1.000  N
  N26      1.0000 0.40500  0.20930  0.62390  Biso   1.000  N
  N27      1.0000 0.84500  0.45930  0.87390  Biso   1.000  N
  N28      1.0000 0.65500  0.04070  0.87390  Biso   1.000  N
  N29      1.0000 0.59500  0.29070  0.12390  Biso   1.000  N
  N30      1.0000 0.40500  0.70930  0.12390  Biso   1.000  N
  N31      1.0000 0.84500  0.95930  0.37390  Biso   1.000  N
  N32      1.0000 0.65500  0.54070  0.37390  Biso   1.000  N
  C1       1.0000 0.14310  0.90230  0.63110  Biso   1.000  C
  C2       1.0000 0.85690  0.09770  0.63110  Biso   1.000  C
  C3       1.0000 0.39310  0.34770  0.88110  Biso   1.000  C
  C4       1.0000 0.10690  0.15230  0.88110  Biso   1.000  C
  C5       1.0000 0.14310  0.40230  0.13110  Biso   1.000  C
  C6       1.0000 0.85690  0.59770  0.13110  Biso   1.000  C
  C7       1.0000 0.39310  0.84770  0.38110  Biso   1.000  C
  C8       1.0000 0.10690  0.65230  0.38110  Biso   1.000  C
  C9       1.0000 0.64310  0.90230  0.13110  Biso   1.000  C
  C10      1.0000 0.35690  0.09770  0.13110  Biso   1.000  C
  C11      1.0000 0.89310  0.34770  0.38110  Biso   1.000  C
  C12      1.0000 0.60690  0.15230  0.38110  Biso   1.000  C
  C13      1.0000 0.64310  0.40230  0.63110  Biso   1.000  C
  C14      1.0000 0.35690  0.59770  0.63110  Biso   1.000  C
  C15      1.0000 0.89310  0.84770  0.88110  Biso   1.000  C
  C16      1.0000 0.60690  0.65230  0.88110  Biso   1.000  C
  H1       1.0000 0.14030  0.89110  0.55460  Biso   1.000  H
  H2       1.0000 0.85970  0.10890  0.55460  Biso   1.000  H
  H3       1.0000 0.39030  0.35890  0.80460  Biso   1.000  H
  H4       1.0000 0.10970  0.14110  0.80460  Biso   1.000  H
  H5       1.0000 0.14030  0.39110  0.05460  Biso   1.000  H
  H6       1.0000 0.85970  0.60890  0.05460  Biso   1.000  H
  H7       1.0000 0.39030  0.85890  0.30460  Biso   1.000  H
  H8       1.0000 0.10970  0.64110  0.30460  Biso   1.000  H
  H9       1.0000 0.64030  0.89110  0.05460  Biso   1.000  H
  H10      1.0000 0.35970  0.10890  0.05460  Biso   1.000  H
  H11      1.0000 0.89030  0.35890  0.30460  Biso   1.000  H
  H12      1.0000 0.60970  0.14110  0.30460  Biso   1.000  H
  H13      1.0000 0.64030  0.39110  0.55460  Biso   1.000  H
  H14      1.0000 0.35970  0.60890  0.55460  Biso   1.000  H
  H15      1.0000 0.89030  0.85890  0.80460  Biso   1.000  H
  H16      1.0000 0.60970  0.64110  0.80460  Biso   1.000  H
  C17      1.0000 0.13170  0.87020  0.72010  Biso   1.000  C
  C18      1.0000 0.86830  0.12980  0.72010  Biso   1.000  C
  C19      1.0000 0.38170  0.37980  0.97010  Biso   1.000  C
  C20      1.0000 0.11830  0.12020  0.97010  Biso   1.000  C
  C21      1.0000 0.13170  0.37020  0.22010  Biso   1.000  C
  C22      1.0000 0.86830  0.62980  0.22010  Biso   1.000  C
  C23      1.0000 0.38170  0.87980  0.47010  Biso   1.000  C
  C24      1.0000 0.11830  0.62020  0.47010  Biso   1.000  C
  C25      1.0000 0.63170  0.87020  0.22010  Biso   1.000  C
  C26      1.0000 0.36830  0.12980  0.22010  Biso   1.000  C
  C27      1.0000 0.88170  0.37980  0.47010  Biso   1.000  C
  C28      1.0000 0.61830  0.12020  0.47010  Biso   1.000  C
  C29      1.0000 0.63170  0.37020  0.72010  Biso   1.000  C
  C30      1.0000 0.36830  0.62980  0.72010  Biso   1.000  C
  C31      1.0000 0.88170  0.87980  0.97010  Biso   1.000  C
  C32      1.0000 0.61830  0.62020  0.97010  Biso   1.000  C
  H17      1.0000 0.12120  0.83820  0.70350  Biso   1.000  H
  H18      1.0000 0.87880  0.16180  0.70350  Biso   1.000  H
  H19      1.0000 0.37120  0.41180  0.95350  Biso   1.000  H
  H20      1.0000 0.12880  0.08820  0.95350  Biso   1.000  H
  H21      1.0000 0.12120  0.33820  0.20350  Biso   1.000  H
  H22      1.0000 0.87880  0.66180  0.20350  Biso   1.000  H
  H23      1.0000 0.37120  0.91180  0.45350  Biso   1.000  H
  H24      1.0000 0.12880  0.58820  0.45350  Biso   1.000  H
  H25      1.0000 0.62120  0.83820  0.20350  Biso   1.000  H
  H26      1.0000 0.37880  0.16180  0.20350  Biso   1.000  H
  H27      1.0000 0.87120  0.41180  0.45350  Biso   1.000  H
  H28      1.0000 0.62880  0.08820  0.45350  Biso   1.000  H
  H29      1.0000 0.62120  0.33820  0.70350  Biso   1.000  H
  H30      1.0000 0.37880  0.66180  0.70350  Biso   1.000  H
  H31      1.0000 0.87120  0.91180  0.95350  Biso   1.000  H
  H32      1.0000 0.62880  0.58820  0.95350  Biso   1.000  H
  C33      1.0000 0.13580  0.88580  0.83500  Biso   1.000  C
  C34      1.0000 0.86420  0.11420  0.83500  Biso   1.000  C
  C35      1.0000 0.38580  0.36420  0.08500  Biso   1.000  C
  C36      1.0000 0.11420  0.13580  0.08500  Biso   1.000  C
  C37      1.0000 0.13580  0.38580  0.33500  Biso   1.000  C
  C38      1.0000 0.86420  0.61420  0.33500  Biso   1.000  C
  C39      1.0000 0.38580  0.86420  0.58500  Biso   1.000  C
  C40      1.0000 0.11420  0.63580  0.58500  Biso   1.000  C
  C41      1.0000 0.63580  0.88580  0.33500  Biso   1.000  C
  C42      1.0000 0.36420  0.11420  0.33500  Biso   1.000  C
  C43      1.0000 0.88580  0.36420  0.58500  Biso   1.000  C
  C44      1.0000 0.61420  0.13580  0.58500  Biso   1.000  C
  C45      1.0000 0.63580  0.38580  0.83500  Biso   1.000  C
  C46      1.0000 0.36420  0.61420  0.83500  Biso   1.000  C
  C47      1.0000 0.88580  0.86420  0.08500  Biso   1.000  C
  C48      1.0000 0.61420  0.63580  0.08500  Biso   1.000  C
  C49      1.0000 0.15090  0.93390  0.85300  Biso   1.000  C
  C50      1.0000 0.84910  0.06610  0.85300  Biso   1.000  C
  C51      1.0000 0.40090  0.31610  0.10300  Biso   1.000  C
  C52      1.0000 0.09910  0.18390  0.10300  Biso   1.000  C
  C53      1.0000 0.15090  0.43390  0.35300  Biso   1.000  C
  C54      1.0000 0.84910  0.56610  0.35300  Biso   1.000  C
  C55      1.0000 0.40090  0.81610  0.60300  Biso   1.000  C
  C56      1.0000 0.09910  0.68390  0.60300  Biso   1.000  C
  C57      1.0000 0.65090  0.93390  0.35300  Biso   1.000  C
  C58      1.0000 0.34910  0.06610  0.35300  Biso   1.000  C
  C59      1.0000 0.90090  0.31610  0.60300  Biso   1.000  C
  C60      1.0000 0.59910  0.18390  0.60300  Biso   1.000  C
  C61      1.0000 0.65090  0.43390  0.85300  Biso   1.000  C
  C62      1.0000 0.34910  0.56610  0.85300  Biso   1.000  C
  C63      1.0000 0.90090  0.81610  0.10300  Biso   1.000  C
  C64      1.0000 0.59910  0.68390  0.10300  Biso   1.000  C
  H33      1.0000 0.15470  0.94600  0.92850  Biso   1.000  H
  H34      1.0000 0.84530  0.05400  0.92850  Biso   1.000  H
  H35      1.0000 0.40470  0.30400  0.17850  Biso   1.000  H
  H36      1.0000 0.09530  0.19600  0.17850  Biso   1.000  H
  H37      1.0000 0.15470  0.44600  0.42850  Biso   1.000  H
  H38      1.0000 0.84530  0.55400  0.42850  Biso   1.000  H
  H39      1.0000 0.40470  0.80400  0.67850  Biso   1.000  H
  H40      1.0000 0.09530  0.69600  0.67850  Biso   1.000  H
  H41      1.0000 0.65470  0.94600  0.42850  Biso   1.000  H
  H42      1.0000 0.34530  0.05400  0.42850  Biso   1.000  H
  H43      1.0000 0.90470  0.30400  0.67850  Biso   1.000  H
  H44      1.0000 0.59530  0.19600  0.67850  Biso   1.000  H
  H45      1.0000 0.65470  0.44600  0.92850  Biso   1.000  H
  H46      1.0000 0.34530  0.55400  0.92850  Biso   1.000  H
  H47      1.0000 0.90470  0.80400  0.17850  Biso   1.000  H
  H48      1.0000 0.59530  0.69600  0.17850  Biso   1.000  H
  C65      1.0000 0.16020  0.96370  0.75850  Biso   1.000  C
  C66      1.0000 0.83980  0.03630  0.75850  Biso   1.000  C
  C67      1.0000 0.41020  0.28630  0.00850  Biso   1.000  C
  C68      1.0000 0.08980  0.21370  0.00850  Biso   1.000  C
  C69      1.0000 0.16020  0.46370  0.25850  Biso   1.000  C
  C70      1.0000 0.83980  0.53630  0.25850  Biso   1.000  C
  C71      1.0000 0.41020  0.78630  0.50850  Biso   1.000  C
  C72      1.0000 0.08980  0.71370  0.50850  Biso   1.000  C
  C73      1.0000 0.66020  0.96370  0.25850  Biso   1.000  C
  C74      1.0000 0.33980  0.03630  0.25850  Biso   1.000  C
  C75      1.0000 0.91020  0.28630  0.50850  Biso   1.000  C
  C76      1.0000 0.58980  0.21370  0.50850  Biso   1.000  C
  C77      1.0000 0.66020  0.46370  0.75850  Biso   1.000  C
  C78      1.0000 0.33980  0.53630  0.75850  Biso   1.000  C
  C79      1.0000 0.91020  0.78630  0.00850  Biso   1.000  C
  C80      1.0000 0.58980  0.71370  0.00850  Biso   1.000  C
  H49      1.0000 0.16830  0.99630  0.77260  Biso   1.000  H
  H50      1.0000 0.83170  0.00370  0.77260  Biso   1.000  H
  H51      1.0000 0.41830  0.25370  0.02260  Biso   1.000  H
  H52      1.0000 0.08170  0.24630  0.02260  Biso   1.000  H
  H53      1.0000 0.16830  0.49630  0.27260  Biso   1.000  H
  H54      1.0000 0.83170  0.50370  0.27260  Biso   1.000  H
  H55      1.0000 0.41830  0.75370  0.52260  Biso   1.000  H
  H56      1.0000 0.08170  0.74630  0.52260  Biso   1.000  H
  H57      1.0000 0.66830  0.99630  0.27260  Biso   1.000  H
  H58      1.0000 0.33170  0.00370  0.27260  Biso   1.000  H
  H59      1.0000 0.91830  0.25370  0.52260  Biso   1.000  H
  H60      1.0000 0.58170  0.24630  0.52260  Biso   1.000  H
  H61      1.0000 0.66830  0.49630  0.77260  Biso   1.000  H
  H62      1.0000 0.33170  0.50370  0.77260  Biso   1.000  H
  H63      1.0000 0.91830  0.75370  0.02260  Biso   1.000  H
  H64      1.0000 0.58170  0.74630  0.02260  Biso   1.000  H
  C81      1.0000 0.07830  0.78160  0.01570  Biso   1.000  C
  C82      1.0000 0.92170  0.21840  0.01570  Biso   1.000  C
  C83      1.0000 0.32830  0.46840  0.26570  Biso   1.000  C
  C84      1.0000 0.17170  0.03160  0.26570  Biso   1.000  C
  C85      1.0000 0.07830  0.28160  0.51570  Biso   1.000  C
  C86      1.0000 0.92170  0.71840  0.51570  Biso   1.000  C
  C87      1.0000 0.32830  0.96840  0.76570  Biso   1.000  C
  C88      1.0000 0.17170  0.53160  0.76570  Biso   1.000  C
  C89      1.0000 0.57830  0.78160  0.51570  Biso   1.000  C
  C90      1.0000 0.42170  0.21840  0.51570  Biso   1.000  C
  C91      1.0000 0.82830  0.46840  0.76570  Biso   1.000  C
  C92      1.0000 0.67170  0.03160  0.76570  Biso   1.000  C
  C93      1.0000 0.57830  0.28160  0.01570  Biso   1.000  C
  C94      1.0000 0.42170  0.71840  0.01570  Biso   1.000  C
  C95      1.0000 0.82830  0.96840  0.26570  Biso   1.000  C
  C96      1.0000 0.67170  0.53160  0.26570  Biso   1.000  C
  H65      1.0000 0.05630  0.75380  0.00360  Biso   1.000  H
  H66      1.0000 0.94370  0.24620  0.00360  Biso   1.000  H
  H67      1.0000 0.30630  0.49620  0.25360  Biso   1.000  H
  H68      1.0000 0.19370  0.00380  0.25360  Biso   1.000  H
  H69      1.0000 0.05630  0.25380  0.50360  Biso   1.000  H
  H70      1.0000 0.94370  0.74620  0.50360  Biso   1.000  H
  H71      1.0000 0.30630  0.99620  0.75360  Biso   1.000  H
  H72      1.0000 0.19370  0.50380  0.75360  Biso   1.000  H
  H73      1.0000 0.55630  0.75380  0.50360  Biso   1.000  H
  H74      1.0000 0.44370  0.24620  0.50360  Biso   1.000  H
  H75      1.0000 0.80630  0.49620  0.75360  Biso   1.000  H
  H76      1.0000 0.69370  0.00380  0.75360  Biso   1.000  H
  H77      1.0000 0.55630  0.25380  0.00360  Biso   1.000  H
  H78      1.0000 0.44370  0.74620  0.00360  Biso   1.000  H
  H79      1.0000 0.80630  0.99620  0.25360  Biso   1.000  H
  H80      1.0000 0.69370  0.50380  0.25360  Biso   1.000  H
  C97      1.0000 0.09070  0.80980  0.91910  Biso   1.000  C
  C98      1.0000 0.90930  0.19020  0.91910  Biso   1.000  C
  C99      1.0000 0.34070  0.44020  0.16910  Biso   1.000  C
  C100     1.0000 0.15930  0.05980  0.16910  Biso   1.000  C
  C101     1.0000 0.09070  0.30980  0.41910  Biso   1.000  C
  C102     1.0000 0.90930  0.69020  0.41910  Biso   1.000  C
  C103     1.0000 0.34070  0.94020  0.66910  Biso   1.000  C
  C104     1.0000 0.15930  0.55980  0.66910  Biso   1.000  C
  C105     1.0000 0.59070  0.80980  0.41910  Biso   1.000  C
  C106     1.0000 0.40930  0.19020  0.41910  Biso   1.000  C
  C107     1.0000 0.84070  0.44020  0.66910  Biso   1.000  C
  C108     1.0000 0.65930  0.05980  0.66910  Biso   1.000  C
  C109     1.0000 0.59070  0.30980  0.91910  Biso   1.000  C
  C110     1.0000 0.40930  0.69020  0.91910  Biso   1.000  C
  C111     1.0000 0.84070  0.94020  0.16910  Biso   1.000  C
  C112     1.0000 0.65930  0.55980  0.16910  Biso   1.000  C
  H81      1.0000 0.07770  0.80080  0.84530  Biso   1.000  H
  H82      1.0000 0.92230  0.19920  0.84530  Biso   1.000  H
  H83      1.0000 0.32770  0.44920  0.09530  Biso   1.000  H
  H84      1.0000 0.17230  0.05080  0.09530  Biso   1.000  H
  H85      1.0000 0.07770  0.30080  0.34530  Biso   1.000  H
  H86      1.0000 0.92230  0.69920  0.34530  Biso   1.000  H
  H87      1.0000 0.32770  0.94920  0.59530  Biso   1.000  H
  H88      1.0000 0.17230  0.55080  0.59530  Biso   1.000  H
  H89      1.0000 0.57770  0.80080  0.34530  Biso   1.000  H
  H90      1.0000 0.42230  0.19920  0.34530  Biso   1.000  H
  H91      1.0000 0.82770  0.44920  0.59530  Biso   1.000  H
  H92      1.0000 0.67230  0.05080  0.59530  Biso   1.000  H
  H93      1.0000 0.57770  0.30080  0.84530  Biso   1.000  H
  H94      1.0000 0.42230  0.69920  0.84530  Biso   1.000  H
  H95      1.0000 0.82770  0.94920  0.09530  Biso   1.000  H
  H96      1.0000 0.67230  0.55080  0.09530  Biso   1.000  H
  C113     1.0000 0.12350  0.85250  0.93490  Biso   1.000  C
  C114     1.0000 0.87650  0.14750  0.93490  Biso   1.000  C
  C115     1.0000 0.37350  0.39750  0.18490  Biso   1.000  C
  C116     1.0000 0.12650  0.10250  0.18490  Biso   1.000  C
  C117     1.0000 0.12350  0.35250  0.43490  Biso   1.000  C
  C118     1.0000 0.87650  0.64750  0.43490  Biso   1.000  C
  C119     1.0000 0.37350  0.89750  0.68490  Biso   1.000  C
  C120     1.0000 0.12650  0.60250  0.68490  Biso   1.000  C
  C121     1.0000 0.62350  0.85250  0.43490  Biso   1.000  C
  C122     1.0000 0.37650  0.14750  0.43490  Biso   1.000  C
  C123     1.0000 0.87350  0.39750  0.68490  Biso   1.000  C
  C124     1.0000 0.62650  0.10250  0.68490  Biso   1.000  C
  C125     1.0000 0.62350  0.35250  0.93490  Biso   1.000  C
  C126     1.0000 0.37650  0.64750  0.93490  Biso   1.000  C
  C127     1.0000 0.87350  0.89750  0.18490  Biso   1.000  C
  C128     1.0000 0.62650  0.60250  0.18490  Biso   1.000  C
  C129     1.0000 0.14120  0.86310  0.04780  Biso   1.000  C
  C130     1.0000 0.85880  0.13690  0.04780  Biso   1.000  C
  C131     1.0000 0.39120  0.38690  0.29780  Biso   1.000  C
  C132     1.0000 0.10880  0.11310  0.29780  Biso   1.000  C
  C133     1.0000 0.14120  0.36310  0.54780  Biso   1.000  C
  C134     1.0000 0.85880  0.63690  0.54780  Biso   1.000  C
  C135     1.0000 0.39120  0.88690  0.79780  Biso   1.000  C
  C136     1.0000 0.10880  0.61310  0.79780  Biso   1.000  C
  C137     1.0000 0.64120  0.86310  0.54780  Biso   1.000  C
  C138     1.0000 0.35880  0.13690  0.54780  Biso   1.000  C
  C139     1.0000 0.89120  0.38690  0.79780  Biso   1.000  C
  C140     1.0000 0.60880  0.11310  0.79780  Biso   1.000  C
  C141     1.0000 0.64120  0.36310  0.04780  Biso   1.000  C
  C142     1.0000 0.35880  0.63690  0.04780  Biso   1.000  C
  C143     1.0000 0.89120  0.88690  0.29780  Biso   1.000  C
  C144     1.0000 0.60880  0.61310  0.29780  Biso   1.000  C
  H97      1.0000 0.16280  0.89090  0.06310  Biso   1.000  H
  H98      1.0000 0.83720  0.10910  0.06310  Biso   1.000  H
  H99      1.0000 0.41280  0.35910  0.31310  Biso   1.000  H
  H100     1.0000 0.08720  0.14090  0.31310  Biso   1.000  H
  H101     1.0000 0.16280  0.39090  0.56310  Biso   1.000  H
  H102     1.0000 0.83720  0.60910  0.56310  Biso   1.000  H
  H103     1.0000 0.41280  0.85910  0.81310  Biso   1.000  H
  H104     1.0000 0.08720  0.64090  0.81310  Biso   1.000  H
  H105     1.0000 0.66280  0.89090  0.56310  Biso   1.000  H
  H106     1.0000 0.33720  0.10910  0.56310  Biso   1.000  H
  H107     1.0000 0.91280  0.35910  0.81310  Biso   1.000  H
  H108     1.0000 0.58720  0.14090  0.81310  Biso   1.000  H
  H109     1.0000 0.66280  0.39090  0.06310  Biso   1.000  H
  H110     1.0000 0.33720  0.60910  0.06310  Biso   1.000  H
  H111     1.0000 0.91280  0.85910  0.31310  Biso   1.000  H
  H112     1.0000 0.58720  0.64090  0.31310  Biso   1.000  H
  C145     1.0000 0.12650  0.83180  0.13680  Biso   1.000  C
  C146     1.0000 0.87350  0.16820  0.13680  Biso   1.000  C
  C147     1.0000 0.37650  0.41820  0.38680  Biso   1.000  C
  C148     1.0000 0.12350  0.08180  0.38680  Biso   1.000  C
  C149     1.0000 0.12650  0.33180  0.63680  Biso   1.000  C
  C150     1.0000 0.87350  0.66820  0.63680  Biso   1.000  C
  C151     1.0000 0.37650  0.91820  0.88680  Biso   1.000  C
  C152     1.0000 0.12350  0.58180  0.88680  Biso   1.000  C
  C153     1.0000 0.62650  0.83180  0.63680  Biso   1.000  C
  C154     1.0000 0.37350  0.16820  0.63680  Biso   1.000  C
  C155     1.0000 0.87650  0.41820  0.88680  Biso   1.000  C
  C156     1.0000 0.62350  0.08180  0.88680  Biso   1.000  C
  C157     1.0000 0.62650  0.33180  0.13680  Biso   1.000  C
  C158     1.0000 0.37350  0.66820  0.13680  Biso   1.000  C
  C159     1.0000 0.87650  0.91820  0.38680  Biso   1.000  C
  C160     1.0000 0.62350  0.58180  0.38680  Biso   1.000  C
  H113     1.0000 0.13920  0.83950  0.21160  Biso   1.000  H
  H114     1.0000 0.86080  0.16050  0.21160  Biso   1.000  H
  H115     1.0000 0.38920  0.41050  0.46160  Biso   1.000  H
  H116     1.0000 0.11080  0.08950  0.46160  Biso   1.000  H
  H117     1.0000 0.13920  0.33950  0.71160  Biso   1.000  H
  H118     1.0000 0.86080  0.66050  0.71160  Biso   1.000  H
  H119     1.0000 0.38920  0.91050  0.96160  Biso   1.000  H
  H120     1.0000 0.11080  0.58950  0.96160  Biso   1.000  H
  H121     1.0000 0.63920  0.83950  0.71160  Biso   1.000  H
  H122     1.0000 0.36080  0.16050  0.71160  Biso   1.000  H
  H123     1.0000 0.88920  0.41050  0.96160  Biso   1.000  H
  H124     1.0000 0.61080  0.08950  0.96160  Biso   1.000  H
  H125     1.0000 0.63920  0.33950  0.21160  Biso   1.000  H
  H126     1.0000 0.36080  0.66050  0.21160  Biso   1.000  H
  H127     1.0000 0.88920  0.91050  0.46160  Biso   1.000  H
  H128     1.0000 0.61080  0.58950  0.46160  Biso   1.000  H
  C161     1.0000 0.23850  0.84040  0.36630  Biso   1.000  C
  C162     1.0000 0.76150  0.15960  0.36630  Biso   1.000  C
  C163     1.0000 0.48850  0.40960  0.61630  Biso   1.000  C
  C164     1.0000 0.01150  0.09040  0.61630  Biso   1.000  C
  C165     1.0000 0.23850  0.34040  0.86630  Biso   1.000  C
  C166     1.0000 0.76150  0.65960  0.86630  Biso   1.000  C
  C167     1.0000 0.48850  0.90960  0.11630  Biso   1.000  C
  C168     1.0000 0.01150  0.59040  0.11630  Biso   1.000  C
  C169     1.0000 0.73850  0.84040  0.86630  Biso   1.000  C
  C170     1.0000 0.26150  0.15960  0.86630  Biso   1.000  C
  C171     1.0000 0.98850  0.40960  0.11630  Biso   1.000  C
  C172     1.0000 0.51150  0.09040  0.11630  Biso   1.000  C
  C173     1.0000 0.73850  0.34040  0.36630  Biso   1.000  C
  C174     1.0000 0.26150  0.65960  0.36630  Biso   1.000  C
  C175     1.0000 0.98850  0.90960  0.61630  Biso   1.000  C
  C176     1.0000 0.51150  0.59040  0.61630  Biso   1.000  C
  H129     1.0000 0.21970  0.83900  0.43800  Biso   1.000  H
  H130     1.0000 0.78030  0.16100  0.43800  Biso   1.000  H
  H131     1.0000 0.46970  0.41100  0.68800  Biso   1.000  H
  H132     1.0000 0.03030  0.08900  0.68800  Biso   1.000  H
  H133     1.0000 0.21970  0.33900  0.93800  Biso   1.000  H
  H134     1.0000 0.78030  0.66100  0.93800  Biso   1.000  H
  H135     1.0000 0.46970  0.91100  0.18800  Biso   1.000  H
  H136     1.0000 0.03030  0.58900  0.18800  Biso   1.000  H
  H137     1.0000 0.71970  0.83900  0.93800  Biso   1.000  H
  H138     1.0000 0.28030  0.16100  0.93800  Biso   1.000  H
  H139     1.0000 0.96970  0.41100  0.18800  Biso   1.000  H
  H140     1.0000 0.53030  0.08900  0.18800  Biso   1.000  H
  H141     1.0000 0.71970  0.33900  0.43800  Biso   1.000  H
  H142     1.0000 0.28030  0.66100  0.43800  Biso   1.000  H
  H143     1.0000 0.96970  0.91100  0.68800  Biso   1.000  H
  H144     1.0000 0.53030  0.58900  0.68800  Biso   1.000  H
  C177     1.0000 0.24790  0.88520  0.31430  Biso   1.000  C
  C178     1.0000 0.75210  0.11480  0.31430  Biso   1.000  C
  C179     1.0000 0.49790  0.36480  0.56430  Biso   1.000  C
  C180     1.0000 0.00210  0.13520  0.56430  Biso   1.000  C
  C181     1.0000 0.24790  0.38520  0.81430  Biso   1.000  C
  C182     1.0000 0.75210  0.61480  0.81430  Biso   1.000  C
  C183     1.0000 0.49790  0.86480  0.06430  Biso   1.000  C
  C184     1.0000 0.00210  0.63520  0.06430  Biso   1.000  C
  C185     1.0000 0.74790  0.88520  0.81430  Biso   1.000  C
  C186     1.0000 0.25210  0.11480  0.81430  Biso   1.000  C
  C187     1.0000 0.99790  0.36480  0.06430  Biso   1.000  C
  C188     1.0000 0.50210  0.13520  0.06430  Biso   1.000  C
  C189     1.0000 0.74790  0.38520  0.31430  Biso   1.000  C
  C190     1.0000 0.25210  0.61480  0.31430  Biso   1.000  C
  C191     1.0000 0.99790  0.86480  0.56430  Biso   1.000  C
  C192     1.0000 0.50210  0.63520  0.56430  Biso   1.000  C
  C193     1.0000 0.27460  0.88660  0.20490  Biso   1.000  C
  C194     1.0000 0.72540  0.11340  0.20490  Biso   1.000  C
  C195     1.0000 0.52460  0.36340  0.45490  Biso   1.000  C
  C196     1.0000 0.97540  0.13660  0.45490  Biso   1.000  C
  C197     1.0000 0.27460  0.38660  0.70490  Biso   1.000  C
  C198     1.0000 0.72540  0.61340  0.70490  Biso   1.000  C
  C199     1.0000 0.52460  0.86340  0.95490  Biso   1.000  C
  C200     1.0000 0.97540  0.63660  0.95490  Biso   1.000  C
  C201     1.0000 0.77460  0.88660  0.70490  Biso   1.000  C
  C202     1.0000 0.22540  0.11340  0.70490  Biso   1.000  C
  C203     1.0000 0.02460  0.36340  0.95490  Biso   1.000  C
  C204     1.0000 0.47540  0.13660  0.95490  Biso   1.000  C
  C205     1.0000 0.77460  0.38660  0.20490  Biso   1.000  C
  C206     1.0000 0.22540  0.61340  0.20490  Biso   1.000  C
  C207     1.0000 0.02460  0.86340  0.45490  Biso   1.000  C
  C208     1.0000 0.47540  0.63660  0.45490  Biso   1.000  C
  C209     1.0000 0.29210  0.84350  0.15310  Biso   1.000  C
  C210     1.0000 0.70790  0.15650  0.15310  Biso   1.000  C
  C211     1.0000 0.54210  0.40650  0.40310  Biso   1.000  C
  C212     1.0000 0.95790  0.09350  0.40310  Biso   1.000  C
  C213     1.0000 0.29210  0.34350  0.65310  Biso   1.000  C
  C214     1.0000 0.70790  0.65650  0.65310  Biso   1.000  C
  C215     1.0000 0.54210  0.90650  0.90310  Biso   1.000  C
  C216     1.0000 0.95790  0.59350  0.90310  Biso   1.000  C
  C217     1.0000 0.79210  0.84350  0.65310  Biso   1.000  C
  C218     1.0000 0.20790  0.15650  0.65310  Biso   1.000  C
  C219     1.0000 0.04210  0.40650  0.90310  Biso   1.000  C
  C220     1.0000 0.45790  0.09350  0.90310  Biso   1.000  C
  C221     1.0000 0.79210  0.34350  0.15310  Biso   1.000  C
  C222     1.0000 0.20790  0.65650  0.15310  Biso   1.000  C
  C223     1.0000 0.04210  0.90650  0.40310  Biso   1.000  C
  C224     1.0000 0.45790  0.59350  0.40310  Biso   1.000  C
  H145     1.0000 0.30980  0.84480  0.08030  Biso   1.000  H
  H146     1.0000 0.69020  0.15520  0.08030  Biso   1.000  H
  H147     1.0000 0.55980  0.40520  0.33030  Biso   1.000  H
  H148     1.0000 0.94020  0.09480  0.33030  Biso   1.000  H
  H149     1.0000 0.30980  0.34480  0.58030  Biso   1.000  H
  H150     1.0000 0.69020  0.65520  0.58030  Biso   1.000  H
  H151     1.0000 0.55980  0.90520  0.83030  Biso   1.000  H
  H152     1.0000 0.94020  0.59480  0.83030  Biso   1.000  H
  H153     1.0000 0.80980  0.84480  0.58030  Biso   1.000  H
  H154     1.0000 0.19020  0.15520  0.58030  Biso   1.000  H
  H155     1.0000 0.05980  0.40520  0.83030  Biso   1.000  H
  H156     1.0000 0.44020  0.09480  0.83030  Biso   1.000  H
  H157     1.0000 0.80980  0.34480  0.08030  Biso   1.000  H
  H158     1.0000 0.19020  0.65520  0.08030  Biso   1.000  H
  H159     1.0000 0.05980  0.90520  0.33030  Biso   1.000  H
  H160     1.0000 0.44020  0.59480  0.33030  Biso   1.000  H
  C225     1.0000 0.28450  0.79910  0.20500  Biso   1.000  C
  C226     1.0000 0.71550  0.20090  0.20500  Biso   1.000  C
  C227     1.0000 0.53450  0.45090  0.45500  Biso   1.000  C
  C228     1.0000 0.96550  0.04910  0.45500  Biso   1.000  C
  C229     1.0000 0.28450  0.29910  0.70500  Biso   1.000  C
  C230     1.0000 0.71550  0.70090  0.70500  Biso   1.000  C
  C231     1.0000 0.53450  0.95090  0.95500  Biso   1.000  C
  C232     1.0000 0.96550  0.54910  0.95500  Biso   1.000  C
  C233     1.0000 0.78450  0.79910  0.70500  Biso   1.000  C
  C234     1.0000 0.21550  0.20090  0.70500  Biso   1.000  C
  C235     1.0000 0.03450  0.45090  0.95500  Biso   1.000  C
  C236     1.0000 0.46550  0.04910  0.95500  Biso   1.000  C
  C237     1.0000 0.78450  0.29910  0.20500  Biso   1.000  C
  C238     1.0000 0.21550  0.70090  0.20500  Biso   1.000  C
  C239     1.0000 0.03450  0.95090  0.45500  Biso   1.000  C
  C240     1.0000 0.46550  0.54910  0.45500  Biso   1.000  C
  H161     1.0000 0.29760  0.77080  0.16860  Biso   1.000  H
  H162     1.0000 0.70240  0.22920  0.16860  Biso   1.000  H
  H163     1.0000 0.54760  0.47920  0.41860  Biso   1.000  H
  H164     1.0000 0.95240  0.02080  0.41860  Biso   1.000  H
  H165     1.0000 0.29760  0.27080  0.66860  Biso   1.000  H
  H166     1.0000 0.70240  0.72920  0.66860  Biso   1.000  H
  H167     1.0000 0.54760  0.97920  0.91860  Biso   1.000  H
  H168     1.0000 0.95240  0.52080  0.91860  Biso   1.000  H
  H169     1.0000 0.79760  0.77080  0.66860  Biso   1.000  H
  H170     1.0000 0.20240  0.22920  0.66860  Biso   1.000  H
  H171     1.0000 0.04760  0.47920  0.91860  Biso   1.000  H
  H172     1.0000 0.45240  0.02080  0.91860  Biso   1.000  H
  H173     1.0000 0.79760  0.27080  0.16860  Biso   1.000  H
  H174     1.0000 0.20240  0.72920  0.16860  Biso   1.000  H
  H175     1.0000 0.04760  0.97920  0.41860  Biso   1.000  H
  H176     1.0000 0.45240  0.52080  0.41860  Biso   1.000  H
  C241     1.0000 0.25690  0.79650  0.31250  Biso   1.000  C
  C242     1.0000 0.74310  0.20350  0.31250  Biso   1.000  C
  C243     1.0000 0.50690  0.45350  0.56250  Biso   1.000  C
  C244     1.0000 0.99310  0.04650  0.56250  Biso   1.000  C
  C245     1.0000 0.25690  0.29650  0.81250  Biso   1.000  C
  C246     1.0000 0.74310  0.70350  0.81250  Biso   1.000  C
  C247     1.0000 0.50690  0.95350  0.06250  Biso   1.000  C
  C248     1.0000 0.99310  0.54650  0.06250  Biso   1.000  C
  C249     1.0000 0.75690  0.79650  0.81250  Biso   1.000  C
  C250     1.0000 0.24310  0.20350  0.81250  Biso   1.000  C
  C251     1.0000 0.00690  0.45350  0.06250  Biso   1.000  C
  C252     1.0000 0.49310  0.04650  0.06250  Biso   1.000  C
  C253     1.0000 0.75690  0.29650  0.31250  Biso   1.000  C
  C254     1.0000 0.24310  0.70350  0.31250  Biso   1.000  C
  C255     1.0000 0.00690  0.95350  0.56250  Biso   1.000  C
  C256     1.0000 0.49310  0.54650  0.56250  Biso   1.000  C
  C257     1.0000 0.25000  0.75000  0.38040  Biso   1.000  C
  C258     1.0000 0.75000  0.25000  0.38040  Biso   1.000  C
  C259     1.0000 0.50000  0.50000  0.63040  Biso   1.000  C
  C260     1.0000 0.00000  0.00000  0.63040  Biso   1.000  C
  C261     1.0000 0.25000  0.25000  0.88040  Biso   1.000  C
  C262     1.0000 0.75000  0.75000  0.88040  Biso   1.000  C
  C263     1.0000 0.50000  0.00000  0.13040  Biso   1.000  C
  C264     1.0000 0.00000  0.50000  0.13040  Biso   1.000  C
  C265     1.0000 0.23360  0.93190  0.37810  Biso   1.000  C
  C266     1.0000 0.76640  0.06810  0.37810  Biso   1.000  C
  C267     1.0000 0.48360  0.31810  0.62810  Biso   1.000  C
  C268     1.0000 0.01640  0.18190  0.62810  Biso   1.000  C
  C269     1.0000 0.23360  0.43190  0.87810  Biso   1.000  C
  C270     1.0000 0.76640  0.56810  0.87810  Biso   1.000  C
  C271     1.0000 0.48360  0.81810  0.12810  Biso   1.000  C
  C272     1.0000 0.01640  0.68190  0.12810  Biso   1.000  C
  C273     1.0000 0.73360  0.93190  0.87810  Biso   1.000  C
  C274     1.0000 0.26640  0.06810  0.87810  Biso   1.000  C
  C275     1.0000 0.98360  0.31810  0.12810  Biso   1.000  C
  C276     1.0000 0.51640  0.18190  0.12810  Biso   1.000  C
  C277     1.0000 0.73360  0.43190  0.37810  Biso   1.000  C
  C278     1.0000 0.26640  0.56810  0.37810  Biso   1.000  C
  C279     1.0000 0.98360  0.81810  0.62810  Biso   1.000  C
  C280     1.0000 0.51640  0.68190  0.62810  Biso   1.000  C
  C281     1.0000 0.28300  0.93410  0.13840  Biso   1.000  C
  C282     1.0000 0.71700  0.06590  0.13840  Biso   1.000  C
  C283     1.0000 0.53300  0.31590  0.38840  Biso   1.000  C
  C284     1.0000 0.96700  0.18410  0.38840  Biso   1.000  C
  C285     1.0000 0.28300  0.43410  0.63840  Biso   1.000  C
  C286     1.0000 0.71700  0.56590  0.63840  Biso   1.000  C
  C287     1.0000 0.53300  0.81590  0.88840  Biso   1.000  C
  C288     1.0000 0.96700  0.68410  0.88840  Biso   1.000  C
  C289     1.0000 0.78300  0.93410  0.63840  Biso   1.000  C
  C290     1.0000 0.21700  0.06590  0.63840  Biso   1.000  C
  C291     1.0000 0.03300  0.31590  0.88840  Biso   1.000  C
  C292     1.0000 0.46700  0.18410  0.88840  Biso   1.000  C
  C293     1.0000 0.78300  0.43410  0.13840  Biso   1.000  C
  C294     1.0000 0.21700  0.56590  0.13840  Biso   1.000  C
  C295     1.0000 0.03300  0.81590  0.38840  Biso   1.000  C
  C296     1.0000 0.46700  0.68410  0.38840  Biso   1.000  C
