data_image0
_cell_length_a       11.7014
_cell_length_b       26.458
_cell_length_c       6.8086
_cell_angle_alpha    90
_cell_angle_beta     90
_cell_angle_gamma    90

_symmetry_space_group_name_H-M    "P 1"
_symmetry_int_tables_number       1

loop_
  _symmetry_equiv_pos_as_xyz
  'x, y, z'

loop_
  _atom_site_label
  _atom_site_occupancy
  _atom_site_fract_x
  _atom_site_fract_y
  _atom_site_fract_z
  _atom_site_thermal_displace_type
  _atom_site_B_iso_or_equiv
  _atom_site_type_symbol
  Cu1      1.0000 0.41343  0.64141  0.00000  Biso   1.000  Cu
  Cu2      1.0000 0.58657  0.35859  0.00000  Biso   1.000  Cu
  Cu3      1.0000 0.41343  0.35859  0.50000  Biso   1.000  Cu
  Cu4      1.0000 0.58657  0.64141  0.50000  Biso   1.000  Cu
  Cu5      1.0000 0.91343  0.14141  0.50000  Biso   1.000  Cu
  Cu6      1.0000 0.08657  0.85859  0.50000  Biso   1.000  Cu
  Cu7      1.0000 0.91343  0.85859  0.00000  Biso   1.000  Cu
  Cu8      1.0000 0.08657  0.14141  0.00000  Biso   1.000  Cu
  C1       1.0000 0.78810  0.63445  0.00000  Biso   1.000  C
  C2       1.0000 0.21190  0.36555  0.00000  Biso   1.000  C
  C3       1.0000 0.78810  0.36555  0.50000  Biso   1.000  C
  C4       1.0000 0.21190  0.63445  0.50000  Biso   1.000  C
  C5       1.0000 0.28810  0.13445  0.50000  Biso   1.000  C
  C6       1.0000 0.71190  0.86555  0.50000  Biso   1.000  C
  C7       1.0000 0.28810  0.86555  0.00000  Biso   1.000  C
  C8       1.0000 0.71190  0.13445  0.00000  Biso   1.000  C
  C9       1.0000 0.85100  0.58984  0.00000  Biso   1.000  C
  C10      1.0000 0.14900  0.41016  0.00000  Biso   1.000  C
  C11      1.0000 0.85100  0.41016  0.50000  Biso   1.000  C
  C12      1.0000 0.14900  0.58984  0.50000  Biso   1.000  C
  C13      1.0000 0.35100  0.08984  0.50000  Biso   1.000  C
  C14      1.0000 0.64900  0.91016  0.50000  Biso   1.000  C
  C15      1.0000 0.35100  0.91016  0.00000  Biso   1.000  C
  C16      1.0000 0.64900  0.08984  0.00000  Biso   1.000  C
  C17      1.0000 0.97050  0.59256  0.00000  Biso   1.000  C
  C18      1.0000 0.02950  0.40744  0.00000  Biso   1.000  C
  C19      1.0000 0.97050  0.40744  0.50000  Biso   1.000  C
  C20      1.0000 0.02950  0.59256  0.50000  Biso   1.000  C
  C21      1.0000 0.47050  0.09256  0.50000  Biso   1.000  C
  C22      1.0000 0.52950  0.90744  0.50000  Biso   1.000  C
  C23      1.0000 0.47050  0.90744  0.00000  Biso   1.000  C
  C24      1.0000 0.52950  0.09256  0.00000  Biso   1.000  C
  H1       1.0000 0.01220  0.56260  0.00000  Biso   1.000  H
  H2       1.0000 0.98780  0.43740  0.00000  Biso   1.000  H
  H3       1.0000 0.01220  0.43740  0.50000  Biso   1.000  H
  H4       1.0000 0.98780  0.56260  0.50000  Biso   1.000  H
  H5       1.0000 0.51220  0.06260  0.50000  Biso   1.000  H
  H6       1.0000 0.48780  0.93740  0.50000  Biso   1.000  H
  H7       1.0000 0.51220  0.93740  0.00000  Biso   1.000  H
  H8       1.0000 0.48780  0.06260  0.00000  Biso   1.000  H
  C25      1.0000 0.02910  0.63794  0.00000  Biso   1.000  C
  C26      1.0000 0.97090  0.36206  0.00000  Biso   1.000  C
  C27      1.0000 0.02910  0.36206  0.50000  Biso   1.000  C
  C28      1.0000 0.97090  0.63794  0.50000  Biso   1.000  C
  C29      1.0000 0.52910  0.13794  0.50000  Biso   1.000  C
  C30      1.0000 0.47090  0.86206  0.50000  Biso   1.000  C
  C31      1.0000 0.52910  0.86206  0.00000  Biso   1.000  C
  C32      1.0000 0.47090  0.13794  0.00000  Biso   1.000  C
  C33      1.0000 0.96530  0.68344  0.00000  Biso   1.000  C
  C34      1.0000 0.03470  0.31656  0.00000  Biso   1.000  C
  C35      1.0000 0.96530  0.31656  0.50000  Biso   1.000  C
  C36      1.0000 0.03470  0.68344  0.50000  Biso   1.000  C
  C37      1.0000 0.46530  0.18344  0.50000  Biso   1.000  C
  C38      1.0000 0.53470  0.81656  0.50000  Biso   1.000  C
  C39      1.0000 0.46530  0.81656  0.00000  Biso   1.000  C
  C40      1.0000 0.53470  0.18344  0.00000  Biso   1.000  C
  C41      1.0000 0.84570  0.67984  0.00000  Biso   1.000  C
  C42      1.0000 0.15430  0.32016  0.00000  Biso   1.000  C
  C43      1.0000 0.84570  0.32016  0.50000  Biso   1.000  C
  C44      1.0000 0.15430  0.67984  0.50000  Biso   1.000  C
  C45      1.0000 0.34570  0.17984  0.50000  Biso   1.000  C
  C46      1.0000 0.65430  0.82016  0.50000  Biso   1.000  C
  C47      1.0000 0.34570  0.82016  0.00000  Biso   1.000  C
  C48      1.0000 0.65430  0.17984  0.00000  Biso   1.000  C
  H9       1.0000 0.80320  0.70960  0.00000  Biso   1.000  H
  H10      1.0000 0.19680  0.29040  0.00000  Biso   1.000  H
  H11      1.0000 0.80320  0.29040  0.50000  Biso   1.000  H
  H12      1.0000 0.19680  0.70960  0.50000  Biso   1.000  H
  H13      1.0000 0.30320  0.20960  0.50000  Biso   1.000  H
  H14      1.0000 0.69680  0.79040  0.50000  Biso   1.000  H
  H15      1.0000 0.30320  0.79040  0.00000  Biso   1.000  H
  H16      1.0000 0.69680  0.20960  0.00000  Biso   1.000  H
  C49      1.0000 0.65930  0.63538  0.00000  Biso   1.000  C
  C50      1.0000 0.34070  0.36462  0.00000  Biso   1.000  C
  C51      1.0000 0.65930  0.36462  0.50000  Biso   1.000  C
  C52      1.0000 0.34070  0.63538  0.50000  Biso   1.000  C
  C53      1.0000 0.15930  0.13538  0.50000  Biso   1.000  C
  C54      1.0000 0.84070  0.86462  0.50000  Biso   1.000  C
  C55      1.0000 0.15930  0.86462  0.00000  Biso   1.000  C
  C56      1.0000 0.84070  0.13538  0.00000  Biso   1.000  C
  C57      1.0000 0.79760  0.53742  0.00000  Biso   1.000  C
  C58      1.0000 0.20240  0.46258  0.00000  Biso   1.000  C
  C59      1.0000 0.79760  0.46258  0.50000  Biso   1.000  C
  C60      1.0000 0.20240  0.53742  0.50000  Biso   1.000  C
  C61      1.0000 0.29760  0.03742  0.50000  Biso   1.000  C
  C62      1.0000 0.70240  0.96258  0.50000  Biso   1.000  C
  C63      1.0000 0.29760  0.96258  0.00000  Biso   1.000  C
  C64      1.0000 0.70240  0.03742  0.00000  Biso   1.000  C
  C65      1.0000 0.15870  0.63218  0.00000  Biso   1.000  C
  C66      1.0000 0.84130  0.36782  0.00000  Biso   1.000  C
  C67      1.0000 0.15870  0.36782  0.50000  Biso   1.000  C
  C68      1.0000 0.84130  0.63218  0.50000  Biso   1.000  C
  C69      1.0000 0.65870  0.13218  0.50000  Biso   1.000  C
  C70      1.0000 0.34130  0.86782  0.50000  Biso   1.000  C
  C71      1.0000 0.65870  0.86782  0.00000  Biso   1.000  C
  C72      1.0000 0.34130  0.13218  0.00000  Biso   1.000  C
  C73      1.0000 0.00620  0.73820  0.00000  Biso   1.000  C
  C74      1.0000 0.99380  0.26180  0.00000  Biso   1.000  C
  C75      1.0000 0.00620  0.26180  0.50000  Biso   1.000  C
  C76      1.0000 0.99380  0.73820  0.50000  Biso   1.000  C
  C77      1.0000 0.50620  0.23820  0.50000  Biso   1.000  C
  C78      1.0000 0.49380  0.76180  0.50000  Biso   1.000  C
  C79      1.0000 0.50620  0.76180  0.00000  Biso   1.000  C
  C80      1.0000 0.49380  0.23820  0.00000  Biso   1.000  C
  O1       1.0000 0.60800  0.63708  0.16010  Biso   1.000  O
  O2       1.0000 0.39200  0.36292  0.16010  Biso   1.000  O
  O3       1.0000 0.60800  0.36292  0.33990  Biso   1.000  O
  O4       1.0000 0.39200  0.63708  0.33990  Biso   1.000  O
  O5       1.0000 0.10800  0.13708  0.66010  Biso   1.000  O
  O6       1.0000 0.89200  0.86292  0.66010  Biso   1.000  O
  O7       1.0000 0.10800  0.86292  0.83990  Biso   1.000  O
  O8       1.0000 0.89200  0.13708  0.83990  Biso   1.000  O
  O9       1.0000 0.39200  0.36292  0.83990  Biso   1.000  O
  O10      1.0000 0.60800  0.63708  0.83990  Biso   1.000  O
  O11      1.0000 0.39200  0.63708  0.66010  Biso   1.000  O
  O12      1.0000 0.60800  0.36292  0.66010  Biso   1.000  O
  O13      1.0000 0.89200  0.86292  0.33990  Biso   1.000  O
  O14      1.0000 0.10800  0.13708  0.33990  Biso   1.000  O
  O15      1.0000 0.89200  0.13708  0.16010  Biso   1.000  O
  O16      1.0000 0.10800  0.86292  0.16010  Biso   1.000  O
  O17      1.0000 0.85950  0.50542  0.91320  Biso   1.000  O
  O18      1.0000 0.14050  0.49458  0.91320  Biso   1.000  O
  O19      1.0000 0.85950  0.49458  0.58680  Biso   1.000  O
  O20      1.0000 0.14050  0.50542  0.58680  Biso   1.000  O
  O21      1.0000 0.35950  0.00542  0.41320  Biso   1.000  O
  O22      1.0000 0.64050  0.99458  0.41320  Biso   1.000  O
  O23      1.0000 0.35950  0.99458  0.08680  Biso   1.000  O
  O24      1.0000 0.64050  0.00542  0.08680  Biso   1.000  O
  O25      1.0000 0.14050  0.49458  0.08680  Biso   1.000  O
  O26      1.0000 0.85950  0.50542  0.08680  Biso   1.000  O
  O27      1.0000 0.14050  0.50542  0.41320  Biso   1.000  O
  O28      1.0000 0.85950  0.49458  0.41320  Biso   1.000  O
  O29      1.0000 0.64050  0.99458  0.58680  Biso   1.000  O
  O30      1.0000 0.35950  0.00542  0.58680  Biso   1.000  O
  O31      1.0000 0.64050  0.00542  0.91320  Biso   1.000  O
  O32      1.0000 0.35950  0.99458  0.91320  Biso   1.000  O
  O33      1.0000 0.69580  0.53257  0.00000  Biso   1.000  O
  O34      1.0000 0.30420  0.46743  0.00000  Biso   1.000  O
  O35      1.0000 0.69580  0.46743  0.50000  Biso   1.000  O
  O36      1.0000 0.30420  0.53257  0.50000  Biso   1.000  O
  O37      1.0000 0.19580  0.03257  0.50000  Biso   1.000  O
  O38      1.0000 0.80420  0.96743  0.50000  Biso   1.000  O
  O39      1.0000 0.19580  0.96743  0.00000  Biso   1.000  O
  O40      1.0000 0.80420  0.03257  0.00000  Biso   1.000  O
  O41      1.0000 0.20270  0.58986  0.00000  Biso   1.000  O
  O42      1.0000 0.79730  0.41014  0.00000  Biso   1.000  O
  O43      1.0000 0.20270  0.41014  0.50000  Biso   1.000  O
  O44      1.0000 0.79730  0.58986  0.50000  Biso   1.000  O
  O45      1.0000 0.70270  0.08986  0.50000  Biso   1.000  O
  O46      1.0000 0.29730  0.91014  0.50000  Biso   1.000  O
  O47      1.0000 0.70270  0.91014  0.00000  Biso   1.000  O
  O48      1.0000 0.29730  0.08986  0.00000  Biso   1.000  O
  O49      1.0000 0.22110  0.67112  0.00000  Biso   1.000  O
  O50      1.0000 0.77890  0.32888  0.00000  Biso   1.000  O
  O51      1.0000 0.22110  0.32888  0.50000  Biso   1.000  O
  O52      1.0000 0.77890  0.67112  0.50000  Biso   1.000  O
  O53      1.0000 0.72110  0.17112  0.50000  Biso   1.000  O
  O54      1.0000 0.27890  0.82888  0.50000  Biso   1.000  O
  O55      1.0000 0.72110  0.82888  0.00000  Biso   1.000  O
  O56      1.0000 0.27890  0.17112  0.00000  Biso   1.000  O
  O57      1.0000 0.11330  0.74799  0.00000  Biso   1.000  O
  O58      1.0000 0.88670  0.25201  0.00000  Biso   1.000  O
  O59      1.0000 0.11330  0.25201  0.50000  Biso   1.000  O
  O60      1.0000 0.88670  0.74799  0.50000  Biso   1.000  O
  O61      1.0000 0.61330  0.24799  0.50000  Biso   1.000  O
  O62      1.0000 0.38670  0.75201  0.50000  Biso   1.000  O
  O63      1.0000 0.61330  0.75201  0.00000  Biso   1.000  O
  O64      1.0000 0.38670  0.24799  0.00000  Biso   1.000  O
  O65      1.0000 0.93660  0.77156  0.00000  Biso   1.000  O
  O66      1.0000 0.06340  0.22844  0.00000  Biso   1.000  O
  O67      1.0000 0.93660  0.22844  0.50000  Biso   1.000  O
  O68      1.0000 0.06340  0.77156  0.50000  Biso   1.000  O
  O69      1.0000 0.43660  0.27156  0.50000  Biso   1.000  O
  O70      1.0000 0.56340  0.72844  0.50000  Biso   1.000  O
  O71      1.0000 0.43660  0.72844  0.00000  Biso   1.000  O
  O72      1.0000 0.56340  0.27156  0.00000  Biso   1.000  O
  H17      1.0000 0.14850  0.72040  0.00000  Biso   1.000  H
  H18      1.0000 0.85150  0.27960  0.00000  Biso   1.000  H
  H19      1.0000 0.14850  0.27960  0.50000  Biso   1.000  H
  H20      1.0000 0.85150  0.72040  0.50000  Biso   1.000  H
  H21      1.0000 0.64850  0.22040  0.50000  Biso   1.000  H
  H22      1.0000 0.35150  0.77960  0.50000  Biso   1.000  H
  H23      1.0000 0.64850  0.77960  0.00000  Biso   1.000  H
  H24      1.0000 0.35150  0.22040  0.00000  Biso   1.000  H
  O73      1.0000 0.44830  0.55452  0.00000  Biso   1.000  O
  O74      1.0000 0.55170  0.44548  0.00000  Biso   1.000  O
  O75      1.0000 0.44830  0.44548  0.50000  Biso   1.000  O
  O76      1.0000 0.55170  0.55452  0.50000  Biso   1.000  O
  O77      1.0000 0.94830  0.05452  0.50000  Biso   1.000  O
  O78      1.0000 0.05170  0.94548  0.50000  Biso   1.000  O
  O79      1.0000 0.94830  0.94548  0.00000  Biso   1.000  O
  O80      1.0000 0.05170  0.05452  0.00000  Biso   1.000  O
  H25      1.0000 0.39910  0.52980  0.00000  Biso   1.000  H
  H26      1.0000 0.60090  0.47020  0.00000  Biso   1.000  H
  H27      1.0000 0.39910  0.47020  0.50000  Biso   1.000  H
  H28      1.0000 0.60090  0.52980  0.50000  Biso   1.000  H
  H29      1.0000 0.89910  0.02980  0.50000  Biso   1.000  H
  H30      1.0000 0.10090  0.97020  0.50000  Biso   1.000  H
  H31      1.0000 0.89910  0.97020  0.00000  Biso   1.000  H
  H32      1.0000 0.10090  0.02980  0.00000  Biso   1.000  H
  H33      1.0000 0.52130  0.55010  0.00000  Biso   1.000  H
  H34      1.0000 0.47870  0.44990  0.00000  Biso   1.000  H
  H35      1.0000 0.52130  0.44990  0.50000  Biso   1.000  H
  H36      1.0000 0.47870  0.55010  0.50000  Biso   1.000  H
  H37      1.0000 0.02130  0.05010  0.50000  Biso   1.000  H
  H38      1.0000 0.97870  0.94990  0.50000  Biso   1.000  H
  H39      1.0000 0.02130  0.94990  0.00000  Biso   1.000  H
  H40      1.0000 0.97870  0.05010  0.00000  Biso   1.000  H
  H41      1.0000 0.84180  0.47350  0.92580  Biso   1.000  H
  H42      1.0000 0.15820  0.52650  0.92580  Biso   1.000  H
  H43      1.0000 0.84180  0.52650  0.57420  Biso   1.000  H
  H44      1.0000 0.15820  0.47350  0.57420  Biso   1.000  H
  H45      1.0000 0.34180  0.97350  0.42580  Biso   1.000  H
  H46      1.0000 0.65820  0.02650  0.42580  Biso   1.000  H
  H47      1.0000 0.34180  0.02650  0.07420  Biso   1.000  H
  H48      1.0000 0.65820  0.97350  0.07420  Biso   1.000  H
  H49      1.0000 0.15820  0.52650  0.07420  Biso   1.000  H
  H50      1.0000 0.84180  0.47350  0.07420  Biso   1.000  H
  H51      1.0000 0.15820  0.47350  0.42580  Biso   1.000  H
  H52      1.0000 0.84180  0.52650  0.42580  Biso   1.000  H
  H53      1.0000 0.65820  0.02650  0.57420  Biso   1.000  H
  H54      1.0000 0.34180  0.97350  0.57420  Biso   1.000  H
  H55      1.0000 0.65820  0.97350  0.92580  Biso   1.000  H
  H56      1.0000 0.34180  0.02650  0.92580  Biso   1.000  H
