data_image0
_cell_length_a       9.4206
_cell_length_b       10.4051
_cell_length_c       15.5323
_cell_angle_alpha    81.841
_cell_angle_beta     75.139
_cell_angle_gamma    80.927

_symmetry_space_group_name_H-M    "P 1"
_symmetry_int_tables_number       1

loop_
  _symmetry_equiv_pos_as_xyz
  'x, y, z'

loop_
  _atom_site_label
  _atom_site_occupancy
  _atom_site_fract_x
  _atom_site_fract_y
  _atom_site_fract_z
  _atom_site_thermal_displace_type
  _atom_site_B_iso_or_equiv
  _atom_site_type_symbol
  Cu1      1.0000 0.97446  0.61998  0.74345  Biso   1.000  Cu
  Cu2      1.0000 0.02554  0.38002  0.25655  Biso   1.000  Cu
  S1       1.0000 0.52484  0.38890  0.74941  Biso   1.000  S
  S2       1.0000 0.47516  0.61110  0.25059  Biso   1.000  S
  N1       1.0000 0.03738  0.49010  0.84214  Biso   1.000  N
  N2       1.0000 0.96262  0.50990  0.15786  Biso   1.000  N
  N3       1.0000 0.95713  0.48814  0.66228  Biso   1.000  N
  N4       1.0000 0.04287  0.51186  0.33772  Biso   1.000  N
  O1       1.0000 0.20721  0.64802  0.66158  Biso   1.000  O
  O2       1.0000 0.79279  0.35198  0.33842  Biso   1.000  O
  O3       1.0000 0.99718  0.76696  0.80849  Biso   1.000  O
  O4       1.0000 0.00282  0.23304  0.19151  Biso   1.000  O
  O5       1.0000 0.89965  0.76578  0.65973  Biso   1.000  O
  O6       1.0000 0.10035  0.23422  0.34027  Biso   1.000  O
  O7       1.0000 0.73564  0.63453  0.82487  Biso   1.000  O
  O8       1.0000 0.26436  0.36547  0.17513  Biso   1.000  O
  C1       1.0000 0.15300  0.51550  0.87005  Biso   1.000  C
  C2       1.0000 0.84700  0.48450  0.12995  Biso   1.000  C
  H1       1.0000 0.20030  0.58980  0.84160  Biso   1.000  H
  H2       1.0000 0.79970  0.41020  0.15840  Biso   1.000  H
  C3       1.0000 0.20660  0.43890  0.93795  Biso   1.000  C
  C4       1.0000 0.79340  0.56110  0.06205  Biso   1.000  C
  H3       1.0000 0.28770  0.46120  0.95610  Biso   1.000  H
  H4       1.0000 0.71230  0.53880  0.04390  Biso   1.000  H
  C5       1.0000 0.14010  0.32940  0.97901  Biso   1.000  C
  C6       1.0000 0.85990  0.67060  0.02099  Biso   1.000  C
  H5       1.0000 0.17500  0.27490  0.02570  Biso   1.000  H
  H6       1.0000 0.82500  0.72510  0.97430  Biso   1.000  H
  C7       1.0000 0.02230  0.30070  0.95089  Biso   1.000  C
  C8       1.0000 0.97770  0.69930  0.04911  Biso   1.000  C
  H7       1.0000 0.97560  0.22550  0.97790  Biso   1.000  H
  H8       1.0000 0.02440  0.77450  0.02210  Biso   1.000  H
  C9       1.0000 0.97180  0.38233  0.88262  Biso   1.000  C
  C10      1.0000 0.02820  0.61767  0.11738  Biso   1.000  C
  C11      1.0000 0.84810  0.35216  0.85570  Biso   1.000  C
  C12      1.0000 0.15190  0.64784  0.14430  Biso   1.000  C
  C13      1.0000 0.74280  0.31740  0.83995  Biso   1.000  C
  C14      1.0000 0.25720  0.68260  0.16005  Biso   1.000  C
  C15      1.0000 0.61800  0.28220  0.81830  Biso   1.000  C
  C16      1.0000 0.38200  0.71780  0.18170  Biso   1.000  C
  C17      1.0000 0.55470  0.16850  0.84454  Biso   1.000  C
  C18      1.0000 0.44530  0.83150  0.15546  Biso   1.000  C
  H9       1.0000 0.59020  0.09810  0.88270  Biso   1.000  H
  H10      1.0000 0.40980  0.90190  0.11730  Biso   1.000  H
  C19      1.0000 0.43180  0.16700  0.80908  Biso   1.000  C
  C20      1.0000 0.56820  0.83300  0.19092  Biso   1.000  C
  H11      1.0000 0.37510  0.09580  0.82120  Biso   1.000  H
  H12      1.0000 0.62490  0.90420  0.17880  Biso   1.000  H
  C21      1.0000 0.40260  0.27920  0.75520  Biso   1.000  C
  C22      1.0000 0.59740  0.72080  0.24480  Biso   1.000  C
  C23      1.0000 0.28520  0.31460  0.71120  Biso   1.000  C
  C24      1.0000 0.71480  0.68540  0.28880  Biso   1.000  C
  C25      1.0000 0.84030  0.51250  0.62546  Biso   1.000  C
  C26      1.0000 0.15970  0.48750  0.37454  Biso   1.000  C
  H13      1.0000 0.76920  0.58600  0.64170  Biso   1.000  H
  H14      1.0000 0.23080  0.41400  0.35830  Biso   1.000  H
  C27      1.0000 0.81760  0.43670  0.56521  Biso   1.000  C
  C28      1.0000 0.18240  0.56330  0.43479  Biso   1.000  C
  H15      1.0000 0.73350  0.45830  0.54040  Biso   1.000  H
  H16      1.0000 0.26650  0.54170  0.45960  Biso   1.000  H
  C29      1.0000 0.91910  0.32910  0.54176  Biso   1.000  C
  C30      1.0000 0.08090  0.67090  0.45824  Biso   1.000  C
  H17      1.0000 0.90650  0.27560  0.50020  Biso   1.000  H
  H18      1.0000 0.09350  0.72440  0.49980  Biso   1.000  H
  C31      1.0000 0.03950  0.30050  0.57976  Biso   1.000  C
  C32      1.0000 0.96050  0.69950  0.42024  Biso   1.000  C
  H19      1.0000 0.11010  0.22620  0.56520  Biso   1.000  H
  H20      1.0000 0.88990  0.77380  0.43480  Biso   1.000  H
  C33      1.0000 0.05660  0.38150  0.63963  Biso   1.000  C
  C34      1.0000 0.94340  0.61850  0.36037  Biso   1.000  C
  C35      1.0000 0.18190  0.35046  0.67833  Biso   1.000  C
  C36      1.0000 0.81810  0.64954  0.32167  Biso   1.000  C
  C37      1.0000 0.25830  0.75260  0.65502  Biso   1.000  C
  C38      1.0000 0.74170  0.24740  0.34498  Biso   1.000  C
  C39      1.0000 0.20110  0.85940  0.70552  Biso   1.000  C
  C40      1.0000 0.79890  0.14060  0.29448  Biso   1.000  C
  H21      1.0000 0.24900  0.93610  0.69030  Biso   1.000  H
  H22      1.0000 0.75100  0.06390  0.30970  Biso   1.000  H
  C41      1.0000 0.07770  0.85650  0.77659  Biso   1.000  C
  C42      1.0000 0.92230  0.14350  0.22341  Biso   1.000  C
  C43      1.0000 0.40460  0.76210  0.58398  Biso   1.000  C
  C44      1.0000 0.59540  0.23790  0.41602  Biso   1.000  C
  C45      1.0000 0.03110  0.97670  0.82867  Biso   1.000  C
  C46      1.0000 0.96890  0.02330  0.17133  Biso   1.000  C
  C47      1.0000 0.78550  0.84760  0.67984  Biso   1.000  C
  C48      1.0000 0.21450  0.15240  0.32016  Biso   1.000  C
  C49      1.0000 0.66200  0.84070  0.75040  Biso   1.000  C
  C50      1.0000 0.33800  0.15930  0.24960  Biso   1.000  C
  H23      1.0000 0.58360  0.91090  0.75370  Biso   1.000  H
  H24      1.0000 0.41640  0.08910  0.24630  Biso   1.000  H
  C51      1.0000 0.64740  0.73420  0.81754  Biso   1.000  C
  C52      1.0000 0.35260  0.26580  0.18246  Biso   1.000  C
  C53      1.0000 0.79100  0.97270  0.61459  Biso   1.000  C
  C54      1.0000 0.20900  0.02730  0.38541  Biso   1.000  C
  C55      1.0000 0.50240  0.74310  0.89160  Biso   1.000  C
  C56      1.0000 0.49760  0.25690  0.10840  Biso   1.000  C
  F1       1.0000 0.39528  0.73019  0.50582  Biso   1.000  F
  F2       1.0000 0.60472  0.26981  0.49418  Biso   1.000  F
  F3       1.0000 0.51335  0.67972  0.60944  Biso   1.000  F
  F4       1.0000 0.48665  0.32028  0.39056  Biso   1.000  F
  F5       1.0000 0.44964  0.87988  0.56817  Biso   1.000  F
  F6       1.0000 0.55036  0.12012  0.43183  Biso   1.000  F
  F7       1.0000 0.10780  0.96120  0.89520  Biso   1.000  F
  F8       1.0000 0.89220  0.03880  0.10480  Biso   1.000  F
  F9       1.0000 0.06520  0.08590  0.78180  Biso   1.000  F
  F10      1.0000 0.93480  0.91410  0.21820  Biso   1.000  F
  F11      1.0000 0.89640  0.98960  0.87610  Biso   1.000  F
  F12      1.0000 0.10360  0.01040  0.12390  Biso   1.000  F
  F13      1.0000 0.88750  0.00990  0.83580  Biso   1.000  F
  F14      1.0000 0.11250  0.99010  0.16420  Biso   1.000  F
  F15      1.0000 0.06140  0.95760  0.90390  Biso   1.000  F
  F16      1.0000 0.93860  0.04240  0.09610  Biso   1.000  F
  F17      1.0000 0.08790  0.08120  0.78830  Biso   1.000  F
  F18      1.0000 0.91210  0.91880  0.21170  Biso   1.000  F
  F19      1.0000 0.80440  0.94807  0.53174  Biso   1.000  F
  F20      1.0000 0.19560  0.05193  0.46826  Biso   1.000  F
  F21      1.0000 0.90600  0.02980  0.61477  Biso   1.000  F
  F22      1.0000 0.09400  0.97020  0.38523  Biso   1.000  F
  F23      1.0000 0.67360  0.06030  0.63255  Biso   1.000  F
  F24      1.0000 0.32640  0.93970  0.36745  Biso   1.000  F
  F25      1.0000 0.48990  0.84300  0.93490  Biso   1.000  F
  F26      1.0000 0.51010  0.15700  0.06510  Biso   1.000  F
  F27      1.0000 0.38730  0.75810  0.86040  Biso   1.000  F
  F28      1.0000 0.61270  0.24190  0.13960  Biso   1.000  F
  F29      1.0000 0.49070  0.64410  0.95380  Biso   1.000  F
  F30      1.0000 0.50930  0.35590  0.04620  Biso   1.000  F
  F31      1.0000 0.39080  0.72060  0.86110  Biso   1.000  F
  F32      1.0000 0.60920  0.27940  0.13890  Biso   1.000  F
  F33      1.0000 0.51220  0.65660  0.95820  Biso   1.000  F
  F34      1.0000 0.48780  0.34340  0.04180  Biso   1.000  F
  F35      1.0000 0.46560  0.85780  0.92140  Biso   1.000  F
  F36      1.0000 0.53440  0.14220  0.07860  Biso   1.000  F
