data_image0
_cell_length_a       17.2605
_cell_length_b       8.1387
_cell_length_c       19.1467
_cell_angle_alpha    90
_cell_angle_beta     115.396
_cell_angle_gamma    90

_symmetry_space_group_name_H-M    "P 1"
_symmetry_int_tables_number       1

loop_
  _symmetry_equiv_pos_as_xyz
  'x, y, z'

loop_
  _atom_site_label
  _atom_site_occupancy
  _atom_site_fract_x
  _atom_site_fract_y
  _atom_site_fract_z
  _atom_site_thermal_displace_type
  _atom_site_B_iso_or_equiv
  _atom_site_type_symbol
  Cu1      1.0000 0.00000  0.00000  0.50000  Biso   1.000  Cu
  Cu2      1.0000 0.50000  0.50000  0.00000  Biso   1.000  Cu
  Cu3      1.0000 0.00000  0.00000  0.00000  Biso   1.000  Cu
  Cu4      1.0000 0.50000  0.50000  0.50000  Biso   1.000  Cu
  C1       1.0000 0.12896  0.23540  0.51531  Biso   1.000  C
  C2       1.0000 0.37104  0.73540  0.98469  Biso   1.000  C
  C3       1.0000 0.87104  0.76460  0.48469  Biso   1.000  C
  C4       1.0000 0.62896  0.26460  0.01531  Biso   1.000  C
  C5       1.0000 0.10604  0.34250  0.55969  Biso   1.000  C
  C6       1.0000 0.39396  0.84250  0.94031  Biso   1.000  C
  C7       1.0000 0.89396  0.65750  0.44031  Biso   1.000  C
  C8       1.0000 0.60604  0.15750  0.05969  Biso   1.000  C
  C9       1.0000 0.20953  0.27360  0.50347  Biso   1.000  C
  C10      1.0000 0.29047  0.77360  0.99653  Biso   1.000  C
  C11      1.0000 0.79047  0.72640  0.49653  Biso   1.000  C
  C12      1.0000 0.70953  0.22640  0.00347  Biso   1.000  C
  C13      1.0000 0.03280  0.31550  0.57133  Biso   1.000  C
  C14      1.0000 0.46720  0.81550  0.92867  Biso   1.000  C
  C15      1.0000 0.96720  0.68450  0.42867  Biso   1.000  C
  C16      1.0000 0.53280  0.18450  0.07133  Biso   1.000  C
  C17      1.0000 0.01655  0.43820  0.62495  Biso   1.000  C
  C18      1.0000 0.48345  0.93820  0.87505  Biso   1.000  C
  C19      1.0000 0.98345  0.56180  0.37505  Biso   1.000  C
  C20      1.0000 0.51655  0.06180  0.12495  Biso   1.000  C
  C21      1.0000 0.82572  0.15340  0.38016  Biso   1.000  C
  C22      1.0000 0.67428  0.65340  0.11984  Biso   1.000  C
  C23      1.0000 0.17428  0.84660  0.61984  Biso   1.000  C
  C24      1.0000 0.32572  0.34660  0.88016  Biso   1.000  C
  C25      1.0000 0.76106  0.23880  0.32153  Biso   1.000  C
  C26      1.0000 0.73894  0.73880  0.17847  Biso   1.000  C
  C27      1.0000 0.23894  0.76120  0.67847  Biso   1.000  C
  C28      1.0000 0.26106  0.26120  0.82153  Biso   1.000  C
  C29      1.0000 0.76387  0.24980  0.25064  Biso   1.000  C
  C30      1.0000 0.73613  0.74980  0.24936  Biso   1.000  C
  C31      1.0000 0.23613  0.75020  0.74936  Biso   1.000  C
  C32      1.0000 0.26387  0.25020  0.75064  Biso   1.000  C
  C33      1.0000 0.82954  0.17430  0.23982  Biso   1.000  C
  C34      1.0000 0.67046  0.67430  0.26018  Biso   1.000  C
  C35      1.0000 0.17046  0.82570  0.76018  Biso   1.000  C
  C36      1.0000 0.32954  0.32570  0.73982  Biso   1.000  C
  C37      1.0000 0.89164  0.09110  0.30195  Biso   1.000  C
  C38      1.0000 0.60836  0.59110  0.19805  Biso   1.000  C
  C39      1.0000 0.10836  0.90890  0.69805  Biso   1.000  C
  C40      1.0000 0.39164  0.40890  0.80195  Biso   1.000  C
  C41      1.0000 0.98275  0.19000  0.16381  Biso   1.000  C
  C42      1.0000 0.51725  0.69000  0.33619  Biso   1.000  C
  C43      1.0000 0.01725  0.81000  0.83619  Biso   1.000  C
  C44      1.0000 0.48275  0.31000  0.66381  Biso   1.000  C
  C45      1.0000 0.00631  0.31900  0.21582  Biso   1.000  C
  C46      1.0000 0.49369  0.81900  0.28418  Biso   1.000  C
  C47      1.0000 0.99369  0.68100  0.78418  Biso   1.000  C
  C48      1.0000 0.50631  0.18100  0.71582  Biso   1.000  C
  C49      1.0000 0.01359  0.47350  0.18871  Biso   1.000  C
  C50      1.0000 0.48641  0.97350  0.31129  Biso   1.000  C
  C51      1.0000 0.98641  0.52650  0.81129  Biso   1.000  C
  C52      1.0000 0.51359  0.02650  0.68871  Biso   1.000  C
  C53      1.0000 0.99672  0.49260  0.11186  Biso   1.000  C
  C54      1.0000 0.50328  0.99260  0.38814  Biso   1.000  C
  C55      1.0000 0.00328  0.50740  0.88814  Biso   1.000  C
  C56      1.0000 0.49672  0.00740  0.61186  Biso   1.000  C
  C57      1.0000 0.97638  0.35560  0.06516  Biso   1.000  C
  C58      1.0000 0.52362  0.85560  0.43484  Biso   1.000  C
  C59      1.0000 0.02362  0.64440  0.93484  Biso   1.000  C
  C60      1.0000 0.47638  0.14440  0.56516  Biso   1.000  C
  C61      1.0000 0.15823  0.92120  0.12813  Biso   1.000  C
  C62      1.0000 0.34177  0.42120  0.37187  Biso   1.000  C
  C63      1.0000 0.84177  0.07880  0.87187  Biso   1.000  C
  C64      1.0000 0.65823  0.57880  0.62813  Biso   1.000  C
  C65      1.0000 0.20260  0.05080  0.11497  Biso   1.000  C
  C66      1.0000 0.29740  0.55080  0.38503  Biso   1.000  C
  C67      1.0000 0.79740  0.94920  0.88503  Biso   1.000  C
  C68      1.0000 0.70260  0.44920  0.61497  Biso   1.000  C
  C69      1.0000 0.16291  0.15550  0.05239  Biso   1.000  C
  C70      1.0000 0.33709  0.65550  0.44761  Biso   1.000  C
  C71      1.0000 0.83709  0.84450  0.94761  Biso   1.000  C
  C72      1.0000 0.66291  0.34450  0.55239  Biso   1.000  C
  C73      1.0000 0.20546  0.81050  0.19892  Biso   1.000  C
  C74      1.0000 0.29454  0.31050  0.30108  Biso   1.000  C
  C75      1.0000 0.79454  0.18950  0.80108  Biso   1.000  C
  C76      1.0000 0.70546  0.68950  0.69892  Biso   1.000  C
  C77      1.0000 0.21445  0.29770  0.04052  Biso   1.000  C
  C78      1.0000 0.28555  0.79770  0.45948  Biso   1.000  C
  C79      1.0000 0.78555  0.70230  0.95948  Biso   1.000  C
  C80      1.0000 0.71445  0.20230  0.54052  Biso   1.000  C
  N1       1.0000 0.89104  0.08060  0.37160  Biso   1.000  N
  N2       1.0000 0.60896  0.58060  0.12840  Biso   1.000  N
  N3       1.0000 0.10896  0.91940  0.62840  Biso   1.000  N
  N4       1.0000 0.39104  0.41940  0.87160  Biso   1.000  N
  N5       1.0000 0.97032  0.20330  0.09021  Biso   1.000  N
  N6       1.0000 0.52968  0.70330  0.40979  Biso   1.000  N
  N7       1.0000 0.02968  0.79670  0.90979  Biso   1.000  N
  N8       1.0000 0.47032  0.29670  0.59021  Biso   1.000  N
  O1       1.0000 0.09341  0.10336  0.48384  Biso   1.000  O
  O2       1.0000 0.40659  0.60336  0.01616  Biso   1.000  O
  O3       1.0000 0.90659  0.89664  0.51616  Biso   1.000  O
  O4       1.0000 0.59341  0.39664  0.98384  Biso   1.000  O
  O5       1.0000 0.97936  0.20178  0.54633  Biso   1.000  O
  O6       1.0000 0.52064  0.70178  0.95367  Biso   1.000  O
  O7       1.0000 0.02064  0.79822  0.45367  Biso   1.000  O
  O8       1.0000 0.47936  0.29822  0.04633  Biso   1.000  O
  O9       1.0000 0.08104  0.88083  0.08953  Biso   1.000  O
  O10      1.0000 0.41896  0.38083  0.41047  Biso   1.000  O
  O11      1.0000 0.91896  0.11917  0.91047  Biso   1.000  O
  O12      1.0000 0.58104  0.61917  0.58953  Biso   1.000  O
  O13      1.0000 0.08638  0.15400  0.00183  Biso   1.000  O
  O14      1.0000 0.41362  0.65400  0.49817  Biso   1.000  O
  O15      1.0000 0.91362  0.84600  0.99817  Biso   1.000  O
  O16      1.0000 0.58638  0.34600  0.50183  Biso   1.000  O
  S1       1.0000 0.98435  0.99613  0.29977  Biso   1.000  S
  S2       1.0000 0.51565  0.49613  0.20023  Biso   1.000  S
  S3       1.0000 0.01565  0.00387  0.70023  Biso   1.000  S
  S4       1.0000 0.48435  0.50387  0.79977  Biso   1.000  S
  S5       1.0000 0.95943  0.98709  0.18577  Biso   1.000  S
  S6       1.0000 0.54057  0.48709  0.31423  Biso   1.000  S
  S7       1.0000 0.04057  0.01291  0.81423  Biso   1.000  S
  S8       1.0000 0.45943  0.51291  0.68577  Biso   1.000  S
  F1       1.0000 0.23775  0.42737  0.52406  Biso   1.000  F
  F2       1.0000 0.26225  0.92737  0.97594  Biso   1.000  F
  F3       1.0000 0.76225  0.57263  0.47594  Biso   1.000  F
  F4       1.0000 0.73775  0.07263  0.02406  Biso   1.000  F
  F5       1.0000 0.19593  0.25210  0.43058  Biso   1.000  F
  F6       1.0000 0.30407  0.75210  0.06942  Biso   1.000  F
  F7       1.0000 0.80407  0.74790  0.56942  Biso   1.000  F
  F8       1.0000 0.69593  0.24790  0.93058  Biso   1.000  F
  F9       1.0000 0.27327  0.17320  0.54766  Biso   1.000  F
  F10      1.0000 0.22673  0.67320  0.95234  Biso   1.000  F
  F11      1.0000 0.72673  0.82680  0.45234  Biso   1.000  F
  F12      1.0000 0.77327  0.32680  0.04766  Biso   1.000  F
  F13      1.0000 0.06982  0.40751  0.69874  Biso   1.000  F
  F14      1.0000 0.43018  0.90751  0.80126  Biso   1.000  F
  F15      1.0000 0.93018  0.59249  0.30126  Biso   1.000  F
  F16      1.0000 0.56982  0.09249  0.19874  Biso   1.000  F
  F17      1.0000 0.93710  0.43140  0.61808  Biso   1.000  F
  F18      1.0000 0.56290  0.93140  0.88192  Biso   1.000  F
  F19      1.0000 0.06290  0.56860  0.38192  Biso   1.000  F
  F20      1.0000 0.43710  0.06860  0.11808  Biso   1.000  F
  F21      1.0000 0.03150  0.59336  0.61102  Biso   1.000  F
  F22      1.0000 0.46850  0.09336  0.88898  Biso   1.000  F
  F23      1.0000 0.96850  0.40664  0.38898  Biso   1.000  F
  F24      1.0000 0.53150  0.90664  0.11102  Biso   1.000  F
  F25      1.0000 0.17613  0.83670  0.25141  Biso   1.000  F
  F26      1.0000 0.32387  0.33670  0.24859  Biso   1.000  F
  F27      1.0000 0.82387  0.16330  0.74859  Biso   1.000  F
  F28      1.0000 0.67613  0.66330  0.75141  Biso   1.000  F
  F29      1.0000 0.19312  0.65423  0.17897  Biso   1.000  F
  F30      1.0000 0.30688  0.15423  0.32103  Biso   1.000  F
  F31      1.0000 0.80688  0.34577  0.82103  Biso   1.000  F
  F32      1.0000 0.69312  0.84577  0.67897  Biso   1.000  F
  F33      1.0000 0.28926  0.83610  0.23303  Biso   1.000  F
  F34      1.0000 0.21074  0.33610  0.26697  Biso   1.000  F
  F35      1.0000 0.71074  0.16390  0.76697  Biso   1.000  F
  F36      1.0000 0.78926  0.66390  0.73303  Biso   1.000  F
  F37      1.0000 0.29848  0.28500  0.08394  Biso   1.000  F
  F38      1.0000 0.20152  0.78500  0.41606  Biso   1.000  F
  F39      1.0000 0.70152  0.71500  0.91606  Biso   1.000  F
  F40      1.0000 0.79848  0.21500  0.58394  Biso   1.000  F
  F41      1.0000 0.20233  0.30540  0.96705  Biso   1.000  F
  F42      1.0000 0.29767  0.80540  0.53295  Biso   1.000  F
  F43      1.0000 0.79767  0.69460  0.03295  Biso   1.000  F
  F44      1.0000 0.70233  0.19460  0.46705  Biso   1.000  F
  F45      1.0000 0.18879  0.43949  0.05787  Biso   1.000  F
  F46      1.0000 0.31121  0.93949  0.44213  Biso   1.000  F
  F47      1.0000 0.81121  0.56051  0.94213  Biso   1.000  F
  F48      1.0000 0.68879  0.06051  0.55787  Biso   1.000  F
  H1       1.0000 0.13880  0.43800  0.58280  Biso   1.000  H
  H2       1.0000 0.36120  0.93800  0.91720  Biso   1.000  H
  H3       1.0000 0.86120  0.56200  0.41720  Biso   1.000  H
  H4       1.0000 0.63880  0.06200  0.08280  Biso   1.000  H
  H5       1.0000 0.82930  0.14300  0.42980  Biso   1.000  H
  H6       1.0000 0.67070  0.64300  0.07020  Biso   1.000  H
  H7       1.0000 0.17070  0.85700  0.57020  Biso   1.000  H
  H8       1.0000 0.32930  0.35700  0.92980  Biso   1.000  H
  H9       1.0000 0.71720  0.28500  0.32870  Biso   1.000  H
  H10      1.0000 0.78280  0.78500  0.17130  Biso   1.000  H
  H11      1.0000 0.28280  0.71500  0.67130  Biso   1.000  H
  H12      1.0000 0.21720  0.21500  0.82870  Biso   1.000  H
  H13      1.0000 0.71830  0.30600  0.20700  Biso   1.000  H
  H14      1.0000 0.78170  0.80600  0.29300  Biso   1.000  H
  H15      1.0000 0.28170  0.69400  0.79300  Biso   1.000  H
  H16      1.0000 0.21830  0.19400  0.70700  Biso   1.000  H
  H17      1.0000 0.83360  0.17900  0.19520  Biso   1.000  H
  H18      1.0000 0.66640  0.67900  0.30480  Biso   1.000  H
  H19      1.0000 0.16640  0.82100  0.80480  Biso   1.000  H
  H20      1.0000 0.33360  0.32100  0.69520  Biso   1.000  H
  H21      1.0000 0.01810  0.30600  0.26930  Biso   1.000  H
  H22      1.0000 0.48190  0.80600  0.23070  Biso   1.000  H
  H23      1.0000 0.98190  0.69400  0.73070  Biso   1.000  H
  H24      1.0000 0.51810  0.19400  0.76930  Biso   1.000  H
  H25      1.0000 0.02840  0.56900  0.22390  Biso   1.000  H
  H26      1.0000 0.47160  0.06900  0.27610  Biso   1.000  H
  H27      1.0000 0.97160  0.43100  0.77610  Biso   1.000  H
  H28      1.0000 0.52840  0.93100  0.72390  Biso   1.000  H
  H29      1.0000 0.00230  0.59700  0.09020  Biso   1.000  H
  H30      1.0000 0.49770  0.09700  0.40980  Biso   1.000  H
  H31      1.0000 0.99770  0.40300  0.90980  Biso   1.000  H
  H32      1.0000 0.50230  0.90300  0.59020  Biso   1.000  H
  H33      1.0000 0.96510  0.36600  0.01300  Biso   1.000  H
  H34      1.0000 0.53490  0.86600  0.48700  Biso   1.000  H
  H35      1.0000 0.03490  0.63400  0.98700  Biso   1.000  H
  H36      1.0000 0.46510  0.13400  0.51300  Biso   1.000  H
  H37      1.0000 0.26100  0.07200  0.14790  Biso   1.000  H
  H38      1.0000 0.23900  0.57200  0.35210  Biso   1.000  H
  H39      1.0000 0.73900  0.92800  0.85210  Biso   1.000  H
  H40      1.0000 0.76100  0.42800  0.64790  Biso   1.000  H
