data_image0
_cell_length_a       13.0798
_cell_length_b       15.605
_cell_length_c       13.3245
_cell_angle_alpha    90
_cell_angle_beta     107.465
_cell_angle_gamma    90

_symmetry_space_group_name_H-M    "P 1"
_symmetry_int_tables_number       1

loop_
  _symmetry_equiv_pos_as_xyz
  'x, y, z'

loop_
  _atom_site_label
  _atom_site_occupancy
  _atom_site_fract_x
  _atom_site_fract_y
  _atom_site_fract_z
  _atom_site_thermal_displace_type
  _atom_site_B_iso_or_equiv
  _atom_site_type_symbol
  Cu1      1.0000 0.78778  0.16881  0.61785  Biso   1.000  Cu
  Cu2      1.0000 0.71222  0.66881  0.88215  Biso   1.000  Cu
  Cu3      1.0000 0.21222  0.83119  0.38215  Biso   1.000  Cu
  Cu4      1.0000 0.28778  0.33119  0.11785  Biso   1.000  Cu
  C1       1.0000 0.61487  0.16175  0.73580  Biso   1.000  C
  C2       1.0000 0.88513  0.66175  0.76420  Biso   1.000  C
  C3       1.0000 0.38513  0.83825  0.26420  Biso   1.000  C
  C4       1.0000 0.11487  0.33825  0.23580  Biso   1.000  C
  C5       1.0000 0.69823  0.15457  0.83173  Biso   1.000  C
  C6       1.0000 0.80177  0.65457  0.66827  Biso   1.000  C
  C7       1.0000 0.30177  0.84543  0.16827  Biso   1.000  C
  C8       1.0000 0.19823  0.34543  0.33173  Biso   1.000  C
  C9       1.0000 0.80083  0.18104  0.84027  Biso   1.000  C
  C10      1.0000 0.69917  0.68104  0.65973  Biso   1.000  C
  C11      1.0000 0.19917  0.81896  0.15973  Biso   1.000  C
  C12      1.0000 0.30083  0.31896  0.34027  Biso   1.000  C
  C13      1.0000 0.82547  0.33346  0.53015  Biso   1.000  C
  C14      1.0000 0.67453  0.83346  0.96985  Biso   1.000  C
  C15      1.0000 0.17453  0.66654  0.46985  Biso   1.000  C
  C16      1.0000 0.32547  0.16654  0.03015  Biso   1.000  C
  C17      1.0000 0.92746  0.31728  0.52507  Biso   1.000  C
  C18      1.0000 0.57254  0.81728  0.97493  Biso   1.000  C
  C19      1.0000 0.07254  0.68272  0.47493  Biso   1.000  C
  C20      1.0000 0.42746  0.18272  0.02507  Biso   1.000  C
  C21      1.0000 0.98714  0.24522  0.57282  Biso   1.000  C
  C22      1.0000 0.51286  0.74522  0.92718  Biso   1.000  C
  C23      1.0000 0.01286  0.75478  0.42718  Biso   1.000  C
  C24      1.0000 0.48714  0.25478  0.07282  Biso   1.000  C
  C25      1.0000 0.49995  0.15006  0.74164  Biso   1.000  C
  C26      1.0000 0.00005  0.65006  0.75836  Biso   1.000  C
  C27      1.0000 0.50005  0.84994  0.25836  Biso   1.000  C
  C28      1.0000 0.99995  0.34994  0.24164  Biso   1.000  C
  C29      1.0000 0.88148  0.18676  0.95050  Biso   1.000  C
  C30      1.0000 0.61852  0.68676  0.54950  Biso   1.000  C
  C31      1.0000 0.11852  0.81324  0.04950  Biso   1.000  C
  C32      1.0000 0.38148  0.31324  0.45050  Biso   1.000  C
  C33      1.0000 0.76990  0.41586  0.47732  Biso   1.000  C
  C34      1.0000 0.73010  0.91586  0.02268  Biso   1.000  C
  C35      1.0000 0.23010  0.58414  0.52268  Biso   1.000  C
  C36      1.0000 0.26990  0.08414  0.97732  Biso   1.000  C
  C37      1.0000 0.10240  0.23749  0.56660  Biso   1.000  C
  C38      1.0000 0.39760  0.73749  0.93340  Biso   1.000  C
  C39      1.0000 0.89760  0.76251  0.43340  Biso   1.000  C
  C40      1.0000 0.60240  0.26251  0.06660  Biso   1.000  C
  C41      1.0000 0.91907  0.03327  0.73714  Biso   1.000  C
  C42      1.0000 0.58093  0.53327  0.76286  Biso   1.000  C
  C43      1.0000 0.08093  0.96673  0.26286  Biso   1.000  C
  C44      1.0000 0.41907  0.46673  0.23714  Biso   1.000  C
  C45      1.0000 0.95009  0.95864  0.79391  Biso   1.000  C
  C46      1.0000 0.54991  0.45864  0.70609  Biso   1.000  C
  C47      1.0000 0.04991  0.04136  0.20609  Biso   1.000  C
  C48      1.0000 0.45009  0.54136  0.29391  Biso   1.000  C
  C49      1.0000 0.87588  0.89421  0.78585  Biso   1.000  C
  C50      1.0000 0.62412  0.39421  0.71415  Biso   1.000  C
  C51      1.0000 0.12412  0.10579  0.21415  Biso   1.000  C
  C52      1.0000 0.37588  0.60579  0.28585  Biso   1.000  C
  C53      1.0000 0.77342  0.90550  0.71791  Biso   1.000  C
  C54      1.0000 0.72658  0.40550  0.78209  Biso   1.000  C
  C55      1.0000 0.22658  0.09450  0.28209  Biso   1.000  C
  C56      1.0000 0.27342  0.59450  0.21791  Biso   1.000  C
  C57      1.0000 0.74746  0.98160  0.66198  Biso   1.000  C
  C58      1.0000 0.75254  0.48160  0.83802  Biso   1.000  C
  C59      1.0000 0.25254  0.01840  0.33802  Biso   1.000  C
  C60      1.0000 0.24746  0.51840  0.16198  Biso   1.000  C
  C61      1.0000 0.64153  0.99275  0.59103  Biso   1.000  C
  C62      1.0000 0.85847  0.49275  0.90897  Biso   1.000  C
  C63      1.0000 0.35847  0.00725  0.40897  Biso   1.000  C
  C64      1.0000 0.14153  0.50725  0.09103  Biso   1.000  C
  C65      1.0000 0.55133  0.99657  0.53329  Biso   1.000  C
  C66      1.0000 0.94867  0.49657  0.96671  Biso   1.000  C
  C67      1.0000 0.44867  0.00343  0.46671  Biso   1.000  C
  C68      1.0000 0.05133  0.50343  0.03329  Biso   1.000  C
  C69      1.0000 0.62128  0.17231  0.41941  Biso   1.000  C
  C70      1.0000 0.87872  0.67231  0.08059  Biso   1.000  C
  C71      1.0000 0.37872  0.82769  0.58059  Biso   1.000  C
  C72      1.0000 0.12128  0.32769  0.91941  Biso   1.000  C
  C73      1.0000 0.55823  0.15206  0.31871  Biso   1.000  C
  C74      1.0000 0.94177  0.65206  0.18129  Biso   1.000  C
  C75      1.0000 0.44177  0.84794  0.68129  Biso   1.000  C
  C76      1.0000 0.05823  0.34794  0.81871  Biso   1.000  C
  C77      1.0000 0.59495  0.09194  0.26212  Biso   1.000  C
  C78      1.0000 0.90505  0.59194  0.23788  Biso   1.000  C
  C79      1.0000 0.40505  0.90806  0.73788  Biso   1.000  C
  C80      1.0000 0.09495  0.40806  0.76212  Biso   1.000  C
  C81      1.0000 0.69462  0.05543  0.30615  Biso   1.000  C
  C82      1.0000 0.80538  0.55543  0.19385  Biso   1.000  C
  C83      1.0000 0.30538  0.94457  0.69385  Biso   1.000  C
  C84      1.0000 0.19462  0.44457  0.80615  Biso   1.000  C
  C85      1.0000 0.75525  0.07993  0.40715  Biso   1.000  C
  C86      1.0000 0.74475  0.57993  0.09285  Biso   1.000  C
  C87      1.0000 0.24475  0.92007  0.59285  Biso   1.000  C
  C88      1.0000 0.25525  0.42007  0.90715  Biso   1.000  C
  C89      1.0000 0.86031  0.04527  0.45175  Biso   1.000  C
  C90      1.0000 0.63969  0.54527  0.04825  Biso   1.000  C
  C91      1.0000 0.13969  0.95473  0.54825  Biso   1.000  C
  C92      1.0000 0.36031  0.45473  0.95175  Biso   1.000  C
  C93      1.0000 0.94905  0.01595  0.48142  Biso   1.000  C
  C94      1.0000 0.55095  0.51595  0.01858  Biso   1.000  C
  C95      1.0000 0.05095  0.98405  0.51858  Biso   1.000  C
  C96      1.0000 0.44905  0.48405  0.98142  Biso   1.000  C
  N1       1.0000 0.81911  0.04626  0.67253  Biso   1.000  N
  N2       1.0000 0.68089  0.54626  0.82747  Biso   1.000  N
  N3       1.0000 0.18089  0.95374  0.32747  Biso   1.000  N
  N4       1.0000 0.31911  0.45374  0.17253  Biso   1.000  N
  N5       1.0000 0.71792  0.13693  0.46443  Biso   1.000  N
  N6       1.0000 0.78208  0.63693  0.03557  Biso   1.000  N
  N7       1.0000 0.28208  0.86307  0.53557  Biso   1.000  N
  N8       1.0000 0.21792  0.36307  0.96443  Biso   1.000  N
  O1       1.0000 0.62280  0.18126  0.64863  Biso   1.000  O
  O2       1.0000 0.87720  0.68126  0.85137  Biso   1.000  O
  O3       1.0000 0.37720  0.81874  0.35137  Biso   1.000  O
  O4       1.0000 0.12280  0.31874  0.14863  Biso   1.000  O
  O5       1.0000 0.84025  0.20638  0.76926  Biso   1.000  O
  O6       1.0000 0.65975  0.70638  0.73074  Biso   1.000  O
  O7       1.0000 0.15975  0.79362  0.23074  Biso   1.000  O
  O8       1.0000 0.34025  0.29362  0.26926  Biso   1.000  O
  O9       1.0000 0.76793  0.29104  0.57288  Biso   1.000  O
  O10      1.0000 0.73207  0.79104  0.92712  Biso   1.000  O
  O11      1.0000 0.23207  0.70896  0.42712  Biso   1.000  O
  O12      1.0000 0.26793  0.20896  0.07288  Biso   1.000  O
  O13      1.0000 0.95828  0.18606  0.61924  Biso   1.000  O
  O14      1.0000 0.54172  0.68606  0.88076  Biso   1.000  O
  O15      1.0000 0.04172  0.81394  0.38076  Biso   1.000  O
  O16      1.0000 0.45828  0.31394  0.11924  Biso   1.000  O
  F1       1.0000 0.43467  0.11722  0.65378  Biso   1.000  F
  F2       1.0000 0.06533  0.61722  0.84622  Biso   1.000  F
  F3       1.0000 0.56533  0.88278  0.34622  Biso   1.000  F
  F4       1.0000 0.93467  0.38278  0.15378  Biso   1.000  F
  F5       1.0000 0.49534  0.09792  0.82027  Biso   1.000  F
  F6       1.0000 0.00466  0.59792  0.67973  Biso   1.000  F
  F7       1.0000 0.50466  0.90208  0.17973  Biso   1.000  F
  F8       1.0000 0.99534  0.40208  0.32027  Biso   1.000  F
  F9       1.0000 0.45935  0.22533  0.75791  Biso   1.000  F
  F10      1.0000 0.04065  0.72533  0.74209  Biso   1.000  F
  F11      1.0000 0.54065  0.77467  0.24209  Biso   1.000  F
  F12      1.0000 0.95935  0.27467  0.25791  Biso   1.000  F
  F13      1.0000 0.84763  0.15054  0.02558  Biso   1.000  F
  F14      1.0000 0.65237  0.65054  0.47442  Biso   1.000  F
  F15      1.0000 0.15237  0.84946  0.97442  Biso   1.000  F
  F16      1.0000 0.34763  0.34946  0.52558  Biso   1.000  F
  F17      1.0000 0.90301  0.26902  0.97672  Biso   1.000  F
  F18      1.0000 0.59699  0.76902  0.52328  Biso   1.000  F
  F19      1.0000 0.09699  0.73098  0.02328  Biso   1.000  F
  F20      1.0000 0.40301  0.23098  0.47672  Biso   1.000  F
  F21      1.0000 0.97473  0.15003  0.95415  Biso   1.000  F
  F22      1.0000 0.52527  0.65003  0.54585  Biso   1.000  F
  F23      1.0000 0.02527  0.84997  0.04585  Biso   1.000  F
  F24      1.0000 0.47473  0.34997  0.45415  Biso   1.000  F
  F25      1.0000 0.72680  0.45878  0.53783  Biso   1.000  F
  F26      1.0000 0.77320  0.95878  0.96217  Biso   1.000  F
  F27      1.0000 0.27320  0.54122  0.46217  Biso   1.000  F
  F28      1.0000 0.22680  0.04122  0.03783  Biso   1.000  F
  F29      1.0000 0.69010  0.39723  0.39196  Biso   1.000  F
  F30      1.0000 0.80990  0.89723  0.10804  Biso   1.000  F
  F31      1.0000 0.30990  0.60277  0.60804  Biso   1.000  F
  F32      1.0000 0.19010  0.10277  0.89196  Biso   1.000  F
  F33      1.0000 0.83230  0.46831  0.44540  Biso   1.000  F
  F34      1.0000 0.66770  0.96831  0.05460  Biso   1.000  F
  F35      1.0000 0.16770  0.53169  0.55460  Biso   1.000  F
  F36      1.0000 0.33230  0.03169  0.94540  Biso   1.000  F
  F37      1.0000 0.14857  0.31428  0.56605  Biso   1.000  F
  F38      1.0000 0.35143  0.81428  0.93395  Biso   1.000  F
  F39      1.0000 0.85143  0.68572  0.43395  Biso   1.000  F
  F40      1.0000 0.64857  0.18572  0.06605  Biso   1.000  F
  F41      1.0000 0.10391  0.19792  0.47831  Biso   1.000  F
  F42      1.0000 0.39609  0.69792  0.02169  Biso   1.000  F
  F43      1.0000 0.89609  0.80208  0.52169  Biso   1.000  F
  F44      1.0000 0.60391  0.30208  0.97831  Biso   1.000  F
  F45      1.0000 0.16424  0.19337  0.64632  Biso   1.000  F
  F46      1.0000 0.33576  0.69337  0.85368  Biso   1.000  F
  F47      1.0000 0.83576  0.80663  0.35368  Biso   1.000  F
  F48      1.0000 0.66424  0.30663  0.14632  Biso   1.000  F
  H1       1.0000 0.68240  0.13600  0.89170  Biso   1.000  H
  H2       1.0000 0.81760  0.63600  0.60830  Biso   1.000  H
  H3       1.0000 0.31760  0.86400  0.10830  Biso   1.000  H
  H4       1.0000 0.18240  0.36400  0.39170  Biso   1.000  H
  H5       1.0000 0.95700  0.35640  0.49200  Biso   1.000  H
  H6       1.0000 0.54300  0.85640  0.00800  Biso   1.000  H
  H7       1.0000 0.04300  0.64360  0.50800  Biso   1.000  H
  H8       1.0000 0.45700  0.14360  0.99200  Biso   1.000  H
  H9       1.0000 0.96550  0.07800  0.74280  Biso   1.000  H
  H10      1.0000 0.53450  0.57800  0.75720  Biso   1.000  H
  H11      1.0000 0.03450  0.92200  0.25720  Biso   1.000  H
  H12      1.0000 0.46550  0.42200  0.24280  Biso   1.000  H
  H13      1.0000 0.02000  0.95460  0.83820  Biso   1.000  H
  H14      1.0000 0.48000  0.45460  0.66180  Biso   1.000  H
  H15      1.0000 0.98000  0.04540  0.16180  Biso   1.000  H
  H16      1.0000 0.52000  0.54540  0.33820  Biso   1.000  H
  H17      1.0000 0.89100  0.84370  0.82200  Biso   1.000  H
  H18      1.0000 0.60900  0.34370  0.67800  Biso   1.000  H
  H19      1.0000 0.10900  0.15630  0.17800  Biso   1.000  H
  H20      1.0000 0.39100  0.65630  0.32200  Biso   1.000  H
  H21      1.0000 0.72100  0.86340  0.70800  Biso   1.000  H
  H22      1.0000 0.77900  0.36340  0.79200  Biso   1.000  H
  H23      1.0000 0.27900  0.13660  0.29200  Biso   1.000  H
  H24      1.0000 0.22100  0.63660  0.20800  Biso   1.000  H
  H25      1.0000 0.59980  0.21200  0.46230  Biso   1.000  H
  H26      1.0000 0.90020  0.71200  0.03770  Biso   1.000  H
  H27      1.0000 0.40020  0.78800  0.53770  Biso   1.000  H
  H28      1.0000 0.09980  0.28800  0.96230  Biso   1.000  H
  H29      1.0000 0.49000  0.17950  0.29110  Biso   1.000  H
  H30      1.0000 0.01000  0.67950  0.20890  Biso   1.000  H
  H31      1.0000 0.51000  0.82050  0.70890  Biso   1.000  H
  H32      1.0000 0.99000  0.32050  0.79110  Biso   1.000  H
  H33      1.0000 0.55500  0.07570  0.19500  Biso   1.000  H
  H34      1.0000 0.94500  0.57570  0.30500  Biso   1.000  H
  H35      1.0000 0.44500  0.92430  0.80500  Biso   1.000  H
  H36      1.0000 0.05500  0.42430  0.69500  Biso   1.000  H
  H37      1.0000 0.72200  0.01520  0.26900  Biso   1.000  H
  H38      1.0000 0.77800  0.51520  0.23100  Biso   1.000  H
  H39      1.0000 0.27800  0.98480  0.73100  Biso   1.000  H
  H40      1.0000 0.22200  0.48480  0.76900  Biso   1.000  H
