data_image0
_cell_length_a       25.9972
_cell_length_b       25.9972
_cell_length_c       6.2587
_cell_angle_alpha    90
_cell_angle_beta     90
_cell_angle_gamma    120

_symmetry_space_group_name_H-M    "P 1"
_symmetry_int_tables_number       1

loop_
  _symmetry_equiv_pos_as_xyz
  'x, y, z'

loop_
  _atom_site_label
  _atom_site_occupancy
  _atom_site_fract_x
  _atom_site_fract_y
  _atom_site_fract_z
  _atom_site_thermal_displace_type
  _atom_site_B_iso_or_equiv
  _atom_site_type_symbol
  O1       1.0000 0.05730  0.89460  0.85300  Biso   1.000  O
  O2       1.0000 0.10540  0.16270  0.85300  Biso   1.000  O
  O3       1.0000 0.83730  0.94270  0.85300  Biso   1.000  O
  O4       1.0000 0.72397  0.22793  0.18633  Biso   1.000  O
  O5       1.0000 0.77207  0.49603  0.18633  Biso   1.000  O
  O6       1.0000 0.50397  0.27603  0.18633  Biso   1.000  O
  O7       1.0000 0.39063  0.56127  0.51967  Biso   1.000  O
  O8       1.0000 0.43873  0.82937  0.51967  Biso   1.000  O
  O9       1.0000 0.17063  0.60937  0.51967  Biso   1.000  O
  O10      1.0000 0.94270  0.10540  0.14700  Biso   1.000  O
  O11      1.0000 0.89460  0.83730  0.14700  Biso   1.000  O
  O12      1.0000 0.16270  0.05730  0.14700  Biso   1.000  O
  O13      1.0000 0.60937  0.43873  0.48033  Biso   1.000  O
  O14      1.0000 0.56127  0.17063  0.48033  Biso   1.000  O
  O15      1.0000 0.82937  0.39063  0.48033  Biso   1.000  O
  O16      1.0000 0.27603  0.77207  0.81367  Biso   1.000  O
  O17      1.0000 0.22793  0.50397  0.81367  Biso   1.000  O
  O18      1.0000 0.49603  0.72397  0.81367  Biso   1.000  O
  Cu1      1.0000 0.29095  0.01523  0.34667  Biso   1.000  Cu
  Cu2      1.0000 0.98477  0.27572  0.34667  Biso   1.000  Cu
  Cu3      1.0000 0.72428  0.70905  0.34667  Biso   1.000  Cu
  Cu4      1.0000 0.95762  0.34856  0.68000  Biso   1.000  Cu
  Cu5      1.0000 0.65144  0.60905  0.68000  Biso   1.000  Cu
  Cu6      1.0000 0.39095  0.04238  0.68000  Biso   1.000  Cu
  Cu7      1.0000 0.62428  0.68190  0.01334  Biso   1.000  Cu
  Cu8      1.0000 0.31810  0.94239  0.01334  Biso   1.000  Cu
  Cu9      1.0000 0.05761  0.37572  0.01334  Biso   1.000  Cu
  Cu10     1.0000 0.70905  0.98477  0.65333  Biso   1.000  Cu
  Cu11     1.0000 0.01523  0.72428  0.65333  Biso   1.000  Cu
  Cu12     1.0000 0.27572  0.29095  0.65333  Biso   1.000  Cu
  Cu13     1.0000 0.37572  0.31810  0.98666  Biso   1.000  Cu
  Cu14     1.0000 0.68190  0.05761  0.98666  Biso   1.000  Cu
  Cu15     1.0000 0.94239  0.62428  0.98666  Biso   1.000  Cu
  Cu16     1.0000 0.04238  0.65144  0.32000  Biso   1.000  Cu
  Cu17     1.0000 0.34856  0.39095  0.32000  Biso   1.000  Cu
  Cu18     1.0000 0.60905  0.95762  0.32000  Biso   1.000  Cu
  O19      1.0000 0.25019  0.94327  0.16870  Biso   1.000  O
  O20      1.0000 0.05673  0.30692  0.16870  Biso   1.000  O
  O21      1.0000 0.69308  0.74981  0.16870  Biso   1.000  O
  O22      1.0000 0.91686  0.27660  0.50203  Biso   1.000  O
  O23      1.0000 0.72340  0.64025  0.50203  Biso   1.000  O
  O24      1.0000 0.35975  0.08314  0.50203  Biso   1.000  O
  O25      1.0000 0.58352  0.60994  0.83537  Biso   1.000  O
  O26      1.0000 0.39006  0.97359  0.83537  Biso   1.000  O
  O27      1.0000 0.02641  0.41648  0.83537  Biso   1.000  O
  O28      1.0000 0.74981  0.05673  0.83130  Biso   1.000  O
  O29      1.0000 0.94327  0.69308  0.83130  Biso   1.000  O
  O30      1.0000 0.30692  0.25019  0.83130  Biso   1.000  O
  O31      1.0000 0.41648  0.39006  0.16463  Biso   1.000  O
  O32      1.0000 0.60994  0.02641  0.16463  Biso   1.000  O
  O33      1.0000 0.97359  0.58352  0.16463  Biso   1.000  O
  O34      1.0000 0.08314  0.72340  0.49797  Biso   1.000  O
  O35      1.0000 0.27660  0.35975  0.49797  Biso   1.000  O
  O36      1.0000 0.64025  0.91686  0.49797  Biso   1.000  O
  O37      1.0000 0.28480  0.96923  0.59890  Biso   1.000  O
  O38      1.0000 0.03077  0.31557  0.59890  Biso   1.000  O
  O39      1.0000 0.68443  0.71520  0.59890  Biso   1.000  O
  O40      1.0000 0.95147  0.30256  0.93223  Biso   1.000  O
  O41      1.0000 0.69744  0.64890  0.93223  Biso   1.000  O
  O42      1.0000 0.35110  0.04853  0.93223  Biso   1.000  O
  O43      1.0000 0.61813  0.63590  0.26557  Biso   1.000  O
  O44      1.0000 0.36410  0.98224  0.26557  Biso   1.000  O
  O45      1.0000 0.01776  0.38187  0.26557  Biso   1.000  O
  O46      1.0000 0.71520  0.03077  0.40110  Biso   1.000  O
  O47      1.0000 0.96923  0.68443  0.40110  Biso   1.000  O
  O48      1.0000 0.31557  0.28480  0.40110  Biso   1.000  O
  O49      1.0000 0.38187  0.36410  0.73443  Biso   1.000  O
  O50      1.0000 0.63590  0.01776  0.73443  Biso   1.000  O
  O51      1.0000 0.98224  0.61813  0.73443  Biso   1.000  O
  O52      1.0000 0.04853  0.69744  0.06777  Biso   1.000  O
  O53      1.0000 0.30256  0.35110  0.06777  Biso   1.000  O
  O54      1.0000 0.64890  0.95147  0.06777  Biso   1.000  O
  O55      1.0000 0.26622  0.89081  0.78900  Biso   1.000  O
  O56      1.0000 0.10919  0.37541  0.78900  Biso   1.000  O
  O57      1.0000 0.62459  0.73378  0.78900  Biso   1.000  O
  O58      1.0000 0.93289  0.22414  0.12233  Biso   1.000  O
  O59      1.0000 0.77586  0.70874  0.12233  Biso   1.000  O
  O60      1.0000 0.29126  0.06711  0.12233  Biso   1.000  O
  O61      1.0000 0.59955  0.55748  0.45567  Biso   1.000  O
  O62      1.0000 0.44252  0.04208  0.45567  Biso   1.000  O
  O63      1.0000 0.95792  0.40045  0.45567  Biso   1.000  O
  O64      1.0000 0.73378  0.10919  0.21100  Biso   1.000  O
  O65      1.0000 0.89081  0.62459  0.21100  Biso   1.000  O
  O66      1.0000 0.37541  0.26622  0.21100  Biso   1.000  O
  O67      1.0000 0.40045  0.44252  0.54433  Biso   1.000  O
  O68      1.0000 0.55748  0.95792  0.54433  Biso   1.000  O
  O69      1.0000 0.04208  0.59955  0.54433  Biso   1.000  O
  O70      1.0000 0.06711  0.77586  0.87767  Biso   1.000  O
  O71      1.0000 0.22414  0.29126  0.87767  Biso   1.000  O
  O72      1.0000 0.70874  0.93289  0.87767  Biso   1.000  O
  C1       1.0000 0.16350  0.84980  0.12820  Biso   1.000  C
  C2       1.0000 0.15020  0.31370  0.12820  Biso   1.000  C
  C3       1.0000 0.68630  0.83650  0.12820  Biso   1.000  C
  C4       1.0000 0.83017  0.18313  0.46153  Biso   1.000  C
  C5       1.0000 0.81687  0.64703  0.46153  Biso   1.000  C
  C6       1.0000 0.35297  0.16983  0.46153  Biso   1.000  C
  C7       1.0000 0.49683  0.51647  0.79487  Biso   1.000  C
  C8       1.0000 0.48353  0.98037  0.79487  Biso   1.000  C
  C9       1.0000 0.01963  0.50317  0.79487  Biso   1.000  C
  C10      1.0000 0.83650  0.15020  0.87180  Biso   1.000  C
  C11      1.0000 0.84980  0.68630  0.87180  Biso   1.000  C
  C12      1.0000 0.31370  0.16350  0.87180  Biso   1.000  C
  C13      1.0000 0.50317  0.48353  0.20513  Biso   1.000  C
  C14      1.0000 0.51647  0.01963  0.20513  Biso   1.000  C
  C15      1.0000 0.98037  0.49683  0.20513  Biso   1.000  C
  C16      1.0000 0.16983  0.81687  0.53847  Biso   1.000  C
  C17      1.0000 0.18313  0.35297  0.53847  Biso   1.000  C
  C18      1.0000 0.64703  0.83017  0.53847  Biso   1.000  C
  H1       1.0000 0.16080  0.86060  0.98550  Biso   1.000  H
  H2       1.0000 0.13940  0.30020  0.98550  Biso   1.000  H
  H3       1.0000 0.69980  0.83920  0.98550  Biso   1.000  H
  H4       1.0000 0.82747  0.19393  0.31883  Biso   1.000  H
  H5       1.0000 0.80607  0.63353  0.31883  Biso   1.000  H
  H6       1.0000 0.36647  0.17253  0.31883  Biso   1.000  H
  H7       1.0000 0.49413  0.52727  0.65217  Biso   1.000  H
  H8       1.0000 0.47273  0.96687  0.65217  Biso   1.000  H
  H9       1.0000 0.03313  0.50587  0.65217  Biso   1.000  H
  H10      1.0000 0.83920  0.13940  0.01450  Biso   1.000  H
  H11      1.0000 0.86060  0.69980  0.01450  Biso   1.000  H
  H12      1.0000 0.30020  0.16080  0.01450  Biso   1.000  H
  H13      1.0000 0.50587  0.47273  0.34783  Biso   1.000  H
  H14      1.0000 0.52727  0.03313  0.34783  Biso   1.000  H
  H15      1.0000 0.96687  0.49413  0.34783  Biso   1.000  H
  H16      1.0000 0.17253  0.80607  0.68117  Biso   1.000  H
  H17      1.0000 0.19393  0.36647  0.68117  Biso   1.000  H
  H18      1.0000 0.63353  0.82747  0.68117  Biso   1.000  H
  C19      1.0000 0.25770  0.91390  0.62560  Biso   1.000  C
  C20      1.0000 0.08610  0.34380  0.62560  Biso   1.000  C
  C21      1.0000 0.65620  0.74230  0.62560  Biso   1.000  C
  C22      1.0000 0.92437  0.24723  0.95893  Biso   1.000  C
  C23      1.0000 0.75277  0.67713  0.95893  Biso   1.000  C
  C24      1.0000 0.32287  0.07563  0.95893  Biso   1.000  C
  C25      1.0000 0.59103  0.58057  0.29227  Biso   1.000  C
  C26      1.0000 0.41943  0.01047  0.29227  Biso   1.000  C
  C27      1.0000 0.98953  0.40897  0.29227  Biso   1.000  C
  C28      1.0000 0.74230  0.08610  0.37440  Biso   1.000  C
  C29      1.0000 0.91390  0.65620  0.37440  Biso   1.000  C
  C30      1.0000 0.34380  0.25770  0.37440  Biso   1.000  C
  C31      1.0000 0.40897  0.41943  0.70773  Biso   1.000  C
  C32      1.0000 0.58057  0.98953  0.70773  Biso   1.000  C
  C33      1.0000 0.01047  0.59103  0.70773  Biso   1.000  C
  C34      1.0000 0.07563  0.75277  0.04107  Biso   1.000  C
  C35      1.0000 0.24723  0.32287  0.04107  Biso   1.000  C
  C36      1.0000 0.67713  0.92437  0.04107  Biso   1.000  C
  C37      1.0000 0.20960  0.89050  0.25520  Biso   1.000  C
  C38      1.0000 0.10950  0.31910  0.25520  Biso   1.000  C
  C39      1.0000 0.68090  0.79040  0.25520  Biso   1.000  C
  C40      1.0000 0.87627  0.22383  0.58853  Biso   1.000  C
  C41      1.0000 0.77617  0.65243  0.58853  Biso   1.000  C
  C42      1.0000 0.34757  0.12373  0.58853  Biso   1.000  C
  C43      1.0000 0.54293  0.55717  0.92187  Biso   1.000  C
  C44      1.0000 0.44283  0.98577  0.92187  Biso   1.000  C
  C45      1.0000 0.01423  0.45707  0.92187  Biso   1.000  C
  C46      1.0000 0.79040  0.10950  0.74480  Biso   1.000  C
  C47      1.0000 0.89050  0.68090  0.74480  Biso   1.000  C
  C48      1.0000 0.31910  0.20960  0.74480  Biso   1.000  C
  C49      1.0000 0.45707  0.44283  0.07813  Biso   1.000  C
  C50      1.0000 0.55717  0.01423  0.07813  Biso   1.000  C
  C51      1.0000 0.98577  0.54293  0.07813  Biso   1.000  C
  C52      1.0000 0.12373  0.77617  0.41147  Biso   1.000  C
  C53      1.0000 0.22383  0.34757  0.41147  Biso   1.000  C
  C54      1.0000 0.65243  0.87627  0.41147  Biso   1.000  C
  C55      1.0000 0.21210  0.87270  0.46690  Biso   1.000  C
  C56      1.0000 0.12730  0.33940  0.46690  Biso   1.000  C
  C57      1.0000 0.66060  0.78790  0.46690  Biso   1.000  C
  C58      1.0000 0.87877  0.20603  0.80023  Biso   1.000  C
  C59      1.0000 0.79397  0.67273  0.80023  Biso   1.000  C
  C60      1.0000 0.32727  0.12123  0.80023  Biso   1.000  C
  C61      1.0000 0.54543  0.53937  0.13357  Biso   1.000  C
  C62      1.0000 0.46063  0.00607  0.13357  Biso   1.000  C
  C63      1.0000 0.99393  0.45457  0.13357  Biso   1.000  C
  C64      1.0000 0.78790  0.12730  0.53310  Biso   1.000  C
  C65      1.0000 0.87270  0.66060  0.53310  Biso   1.000  C
  C66      1.0000 0.33940  0.21210  0.53310  Biso   1.000  C
  C67      1.0000 0.45457  0.46063  0.86643  Biso   1.000  C
  C68      1.0000 0.53937  0.99393  0.86643  Biso   1.000  C
  C69      1.0000 0.00607  0.54543  0.86643  Biso   1.000  C
  C70      1.0000 0.12123  0.79397  0.19977  Biso   1.000  C
  C71      1.0000 0.20603  0.32727  0.19977  Biso   1.000  C
  C72      1.0000 0.67273  0.87877  0.19977  Biso   1.000  C
  C73      1.0000 0.19440  0.06290  0.46900  Biso   1.000  C
  C74      1.0000 0.93710  0.13150  0.46900  Biso   1.000  C
  C75      1.0000 0.86850  0.80560  0.46900  Biso   1.000  C
  C76      1.0000 0.86107  0.39623  0.80233  Biso   1.000  C
  C77      1.0000 0.60377  0.46483  0.80233  Biso   1.000  C
  C78      1.0000 0.53517  0.13893  0.80233  Biso   1.000  C
  C79      1.0000 0.52773  0.72957  0.13567  Biso   1.000  C
  C80      1.0000 0.27043  0.79817  0.13567  Biso   1.000  C
  C81      1.0000 0.20183  0.47227  0.13567  Biso   1.000  C
  C82      1.0000 0.80560  0.93710  0.53100  Biso   1.000  C
  C83      1.0000 0.06290  0.86850  0.53100  Biso   1.000  C
  C84      1.0000 0.13150  0.19440  0.53100  Biso   1.000  C
  C85      1.0000 0.47227  0.27043  0.86433  Biso   1.000  C
  C86      1.0000 0.72957  0.20183  0.86433  Biso   1.000  C
  C87      1.0000 0.79817  0.52773  0.86433  Biso   1.000  C
  C88      1.0000 0.13893  0.60377  0.19767  Biso   1.000  C
  C89      1.0000 0.39623  0.53517  0.19767  Biso   1.000  C
  C90      1.0000 0.46483  0.86107  0.19767  Biso   1.000  C
  O73      1.0000 0.20990  0.01740  0.48410  Biso   1.000  O
  O74      1.0000 0.98260  0.19250  0.48410  Biso   1.000  O
  O75      1.0000 0.80750  0.79010  0.48410  Biso   1.000  O
  O76      1.0000 0.87657  0.35073  0.81743  Biso   1.000  O
  O77      1.0000 0.64927  0.52583  0.81743  Biso   1.000  O
  O78      1.0000 0.47417  0.12343  0.81743  Biso   1.000  O
  O79      1.0000 0.54323  0.68407  0.15077  Biso   1.000  O
  O80      1.0000 0.31593  0.85917  0.15077  Biso   1.000  O
  O81      1.0000 0.14083  0.45677  0.15077  Biso   1.000  O
  O82      1.0000 0.79010  0.98260  0.51590  Biso   1.000  O
  O83      1.0000 0.01740  0.80750  0.51590  Biso   1.000  O
  O84      1.0000 0.19250  0.20990  0.51590  Biso   1.000  O
  O85      1.0000 0.45677  0.31593  0.84923  Biso   1.000  O
  O86      1.0000 0.68407  0.14083  0.84923  Biso   1.000  O
  O87      1.0000 0.85917  0.54323  0.84923  Biso   1.000  O
  O88      1.0000 0.12343  0.64927  0.18257  Biso   1.000  O
  O89      1.0000 0.35073  0.47417  0.18257  Biso   1.000  O
  O90      1.0000 0.52583  0.87657  0.18257  Biso   1.000  O
  O91      1.0000 0.18020  0.97340  0.89310  Biso   1.000  O
  O92      1.0000 0.02660  0.20680  0.89310  Biso   1.000  O
  O93      1.0000 0.79320  0.81980  0.89310  Biso   1.000  O
  O94      1.0000 0.84687  0.30673  0.22643  Biso   1.000  O
  O95      1.0000 0.69327  0.54013  0.22643  Biso   1.000  O
  O96      1.0000 0.45987  0.15313  0.22643  Biso   1.000  O
  O97      1.0000 0.51353  0.64007  0.55977  Biso   1.000  O
  O98      1.0000 0.35993  0.87347  0.55977  Biso   1.000  O
  O99      1.0000 0.12653  0.48647  0.55977  Biso   1.000  O
  O100     1.0000 0.81980  0.02660  0.10690  Biso   1.000  O
  O101     1.0000 0.97340  0.79320  0.10690  Biso   1.000  O
  O102     1.0000 0.20680  0.18020  0.10690  Biso   1.000  O
  O103     1.0000 0.48647  0.35993  0.44023  Biso   1.000  O
  O104     1.0000 0.64007  0.12653  0.44023  Biso   1.000  O
  O105     1.0000 0.87347  0.51353  0.44023  Biso   1.000  O
  O106     1.0000 0.15313  0.69327  0.77357  Biso   1.000  O
  O107     1.0000 0.30673  0.45987  0.77357  Biso   1.000  O
  O108     1.0000 0.54013  0.84687  0.77357  Biso   1.000  O
  C91      1.0000 0.18960  0.00780  0.66800  Biso   1.000  C
  C92      1.0000 0.99220  0.18180  0.66800  Biso   1.000  C
  C93      1.0000 0.81820  0.81040  0.66800  Biso   1.000  C
  C94      1.0000 0.85627  0.34113  0.00133  Biso   1.000  C
  C95      1.0000 0.65887  0.51513  0.00133  Biso   1.000  C
  C96      1.0000 0.48487  0.14373  0.00133  Biso   1.000  C
  C97      1.0000 0.52293  0.67447  0.33467  Biso   1.000  C
  C98      1.0000 0.32553  0.84847  0.33467  Biso   1.000  C
  C99      1.0000 0.15153  0.47707  0.33467  Biso   1.000  C
  C100     1.0000 0.81040  0.99220  0.33200  Biso   1.000  C
  C101     1.0000 0.00780  0.81820  0.33200  Biso   1.000  C
  C102     1.0000 0.18180  0.18960  0.33200  Biso   1.000  C
  C103     1.0000 0.47707  0.32553  0.66533  Biso   1.000  C
  C104     1.0000 0.67447  0.15153  0.66533  Biso   1.000  C
  C105     1.0000 0.84847  0.52293  0.66533  Biso   1.000  C
  C106     1.0000 0.14373  0.65887  0.99867  Biso   1.000  C
  C107     1.0000 0.34113  0.48487  0.99867  Biso   1.000  C
  C108     1.0000 0.51513  0.85627  0.99867  Biso   1.000  C
  N1       1.0000 0.16200  0.02460  0.80300  Biso   1.000  N
  N2       1.0000 0.97540  0.13740  0.80300  Biso   1.000  N
  N3       1.0000 0.86260  0.83800  0.80300  Biso   1.000  N
  N4       1.0000 0.82867  0.35793  0.13633  Biso   1.000  N
  N5       1.0000 0.64207  0.47073  0.13633  Biso   1.000  N
  N6       1.0000 0.52927  0.17133  0.13633  Biso   1.000  N
  N7       1.0000 0.49533  0.69127  0.46967  Biso   1.000  N
  N8       1.0000 0.30873  0.80407  0.46967  Biso   1.000  N
  N9       1.0000 0.19593  0.50467  0.46967  Biso   1.000  N
  N10      1.0000 0.83800  0.97540  0.19700  Biso   1.000  N
  N11      1.0000 0.02460  0.86260  0.19700  Biso   1.000  N
  N12      1.0000 0.13740  0.16200  0.19700  Biso   1.000  N
  N13      1.0000 0.50467  0.30873  0.53033  Biso   1.000  N
  N14      1.0000 0.69127  0.19593  0.53033  Biso   1.000  N
  N15      1.0000 0.80407  0.49533  0.53033  Biso   1.000  N
  N16      1.0000 0.17133  0.64207  0.86367  Biso   1.000  N
  N17      1.0000 0.35793  0.52927  0.86367  Biso   1.000  N
  N18      1.0000 0.47073  0.82867  0.86367  Biso   1.000  N
  C109     1.0000 0.14460  0.98490  0.98400  Biso   1.000  C
  C110     1.0000 0.01510  0.15970  0.98400  Biso   1.000  C
  C111     1.0000 0.84030  0.85540  0.98400  Biso   1.000  C
  C112     1.0000 0.81127  0.31823  0.31733  Biso   1.000  C
  C113     1.0000 0.68177  0.49303  0.31733  Biso   1.000  C
  C114     1.0000 0.50697  0.18873  0.31733  Biso   1.000  C
  C115     1.0000 0.47793  0.65157  0.65067  Biso   1.000  C
  C116     1.0000 0.34843  0.82637  0.65067  Biso   1.000  C
  C117     1.0000 0.17363  0.52207  0.65067  Biso   1.000  C
  C118     1.0000 0.85540  0.01510  0.01600  Biso   1.000  C
  C119     1.0000 0.98490  0.84030  0.01600  Biso   1.000  C
  C120     1.0000 0.15970  0.14460  0.01600  Biso   1.000  C
  C121     1.0000 0.52207  0.34843  0.34933  Biso   1.000  C
  C122     1.0000 0.65157  0.17363  0.34933  Biso   1.000  C
  C123     1.0000 0.82637  0.47793  0.34933  Biso   1.000  C
  C124     1.0000 0.18873  0.68177  0.68267  Biso   1.000  C
  C125     1.0000 0.31823  0.50697  0.68267  Biso   1.000  C
  C126     1.0000 0.49303  0.81127  0.68267  Biso   1.000  C
  C127     1.0000 0.15100  0.06700  0.69800  Biso   1.000  C
  C128     1.0000 0.93300  0.08400  0.69800  Biso   1.000  C
  C129     1.0000 0.91600  0.84900  0.69800  Biso   1.000  C
  C130     1.0000 0.81767  0.40033  0.03133  Biso   1.000  C
  C131     1.0000 0.59967  0.41733  0.03133  Biso   1.000  C
  C132     1.0000 0.58267  0.18233  0.03133  Biso   1.000  C
  C133     1.0000 0.48433  0.73367  0.36467  Biso   1.000  C
  C134     1.0000 0.26633  0.75067  0.36467  Biso   1.000  C
  C135     1.0000 0.24933  0.51567  0.36467  Biso   1.000  C
  C136     1.0000 0.84900  0.93300  0.30200  Biso   1.000  C
  C137     1.0000 0.06700  0.91600  0.30200  Biso   1.000  C
  C138     1.0000 0.08400  0.15100  0.30200  Biso   1.000  C
  C139     1.0000 0.51567  0.26633  0.63533  Biso   1.000  C
  C140     1.0000 0.73367  0.24933  0.63533  Biso   1.000  C
  C141     1.0000 0.75067  0.48433  0.63533  Biso   1.000  C
  C142     1.0000 0.18233  0.59967  0.96867  Biso   1.000  C
  C143     1.0000 0.40033  0.58267  0.96867  Biso   1.000  C
  C144     1.0000 0.41733  0.81767  0.96867  Biso   1.000  C
