data_image0
_cell_length_a       35.4345
_cell_length_b       8.7228
_cell_length_c       7.5556
_cell_angle_alpha    90
_cell_angle_beta     95.573
_cell_angle_gamma    90

_symmetry_space_group_name_H-M    "P 1"
_symmetry_int_tables_number       1

loop_
  _symmetry_equiv_pos_as_xyz
  'x, y, z'

loop_
  _atom_site_label
  _atom_site_occupancy
  _atom_site_fract_x
  _atom_site_fract_y
  _atom_site_fract_z
  _atom_site_thermal_displace_type
  _atom_site_B_iso_or_equiv
  _atom_site_type_symbol
  Cu1      1.0000 0.35230  0.35987  0.34429  Biso   1.000  Cu
  Cu2      1.0000 0.64770  0.35987  0.65571  Biso   1.000  Cu
  Cu3      1.0000 0.85230  0.85987  0.34429  Biso   1.000  Cu
  Cu4      1.0000 0.14770  0.85987  0.65571  Biso   1.000  Cu
  Cu5      1.0000 0.35137  0.18031  0.77639  Biso   1.000  Cu
  Cu6      1.0000 0.64863  0.18031  0.22361  Biso   1.000  Cu
  Cu7      1.0000 0.85137  0.68031  0.77639  Biso   1.000  Cu
  Cu8      1.0000 0.14863  0.68031  0.22361  Biso   1.000  Cu
  Cl1      1.0000 0.30610  0.25090  0.48700  Biso   1.000  Cl
  Cl2      1.0000 0.69390  0.25090  0.51300  Biso   1.000  Cl
  Cl3      1.0000 0.80610  0.75090  0.48700  Biso   1.000  Cl
  Cl4      1.0000 0.19390  0.75090  0.51300  Biso   1.000  Cl
  Cl5      1.0000 0.32246  0.31490  0.98100  Biso   1.000  Cl
  Cl6      1.0000 0.67754  0.31490  0.01900  Biso   1.000  Cl
  Cl7      1.0000 0.82246  0.81490  0.98100  Biso   1.000  Cl
  Cl8      1.0000 0.17754  0.81490  0.01900  Biso   1.000  Cl
  O1       1.0000 0.38139  0.17120  0.32430  Biso   1.000  O
  O2       1.0000 0.61861  0.17120  0.67570  Biso   1.000  O
  O3       1.0000 0.88139  0.67120  0.32430  Biso   1.000  O
  O4       1.0000 0.11861  0.67120  0.67570  Biso   1.000  O
  O5       1.0000 0.42370  0.07660  0.15850  Biso   1.000  O
  O6       1.0000 0.57630  0.07660  0.84150  Biso   1.000  O
  O7       1.0000 0.92370  0.57660  0.15850  Biso   1.000  O
  O8       1.0000 0.07630  0.57660  0.84150  Biso   1.000  O
  N1       1.0000 0.33300  0.57140  0.32570  Biso   1.000  N
  N2       1.0000 0.66700  0.57140  0.67430  Biso   1.000  N
  N3       1.0000 0.83300  0.07140  0.32570  Biso   1.000  N
  N4       1.0000 0.16700  0.07140  0.67430  Biso   1.000  N
  N5       1.0000 0.40010  0.45670  0.28290  Biso   1.000  N
  N6       1.0000 0.59990  0.45670  0.71710  Biso   1.000  N
  N7       1.0000 0.90010  0.95670  0.28290  Biso   1.000  N
  N8       1.0000 0.09990  0.95670  0.71710  Biso   1.000  N
  H1       1.0000 0.41560  0.46590  0.38560  Biso   1.000  H
  H2       1.0000 0.58440  0.46590  0.61440  Biso   1.000  H
  H3       1.0000 0.91560  0.96590  0.38560  Biso   1.000  H
  H4       1.0000 0.08440  0.96590  0.61440  Biso   1.000  H
  C1       1.0000 0.29870  0.62760  0.36960  Biso   1.000  C
  C2       1.0000 0.70130  0.62760  0.63040  Biso   1.000  C
  C3       1.0000 0.79870  0.12760  0.36960  Biso   1.000  C
  C4       1.0000 0.20130  0.12760  0.63040  Biso   1.000  C
  H5       1.0000 0.28180  0.55930  0.41390  Biso   1.000  H
  H6       1.0000 0.71820  0.55930  0.58610  Biso   1.000  H
  H7       1.0000 0.78180  0.05930  0.41390  Biso   1.000  H
  H8       1.0000 0.21820  0.05930  0.58610  Biso   1.000  H
  C5       1.0000 0.28840  0.77540  0.35170  Biso   1.000  C
  C6       1.0000 0.71160  0.77540  0.64830  Biso   1.000  C
  C7       1.0000 0.78840  0.27540  0.35170  Biso   1.000  C
  C8       1.0000 0.21160  0.27540  0.64830  Biso   1.000  C
  H9       1.0000 0.26450  0.80670  0.37820  Biso   1.000  H
  H10      1.0000 0.73550  0.80670  0.62180  Biso   1.000  H
  H11      1.0000 0.76450  0.30670  0.37820  Biso   1.000  H
  H12      1.0000 0.23550  0.30670  0.62180  Biso   1.000  H
  C9       1.0000 0.31400  0.88250  0.29240  Biso   1.000  C
  C10      1.0000 0.68600  0.88250  0.70760  Biso   1.000  C
  C11      1.0000 0.81400  0.38250  0.29240  Biso   1.000  C
  C12      1.0000 0.18600  0.38250  0.70760  Biso   1.000  C
  H13      1.0000 0.30810  0.98620  0.28340  Biso   1.000  H
  H14      1.0000 0.69190  0.98620  0.71660  Biso   1.000  H
  H15      1.0000 0.80810  0.48620  0.28340  Biso   1.000  H
  H16      1.0000 0.19190  0.48620  0.71660  Biso   1.000  H
  C13      1.0000 0.34930  0.82580  0.24690  Biso   1.000  C
  C14      1.0000 0.65070  0.82580  0.75310  Biso   1.000  C
  C15      1.0000 0.84930  0.32580  0.24690  Biso   1.000  C
  C16      1.0000 0.15070  0.32580  0.75310  Biso   1.000  C
  H17      1.0000 0.36690  0.89200  0.20450  Biso   1.000  H
  H18      1.0000 0.63310  0.89200  0.79550  Biso   1.000  H
  H19      1.0000 0.86690  0.39200  0.20450  Biso   1.000  H
  H20      1.0000 0.13310  0.39200  0.79550  Biso   1.000  H
  C17      1.0000 0.35720  0.67370  0.26590  Biso   1.000  C
  C18      1.0000 0.64280  0.67370  0.73410  Biso   1.000  C
  C19      1.0000 0.85720  0.17370  0.26590  Biso   1.000  C
  C20      1.0000 0.14280  0.17370  0.73410  Biso   1.000  C
  C21      1.0000 0.39350  0.61010  0.21160  Biso   1.000  C
  C22      1.0000 0.60650  0.61010  0.78840  Biso   1.000  C
  C23      1.0000 0.89350  0.11010  0.21160  Biso   1.000  C
  C24      1.0000 0.10650  0.11010  0.78840  Biso   1.000  C
  H21      1.0000 0.39250  0.60690  0.08290  Biso   1.000  H
  H22      1.0000 0.60750  0.60690  0.91710  Biso   1.000  H
  H23      1.0000 0.89250  0.10690  0.08290  Biso   1.000  H
  H24      1.0000 0.10750  0.10690  0.91710  Biso   1.000  H
  H25      1.0000 0.41440  0.67640  0.25500  Biso   1.000  H
  H26      1.0000 0.58560  0.67640  0.74500  Biso   1.000  H
  H27      1.0000 0.91440  0.17640  0.25500  Biso   1.000  H
  H28      1.0000 0.08560  0.17640  0.74500  Biso   1.000  H
  C25      1.0000 0.41830  0.34700  0.16760  Biso   1.000  C
  C26      1.0000 0.58170  0.34700  0.83240  Biso   1.000  C
  C27      1.0000 0.91830  0.84700  0.16760  Biso   1.000  C
  C28      1.0000 0.08170  0.84700  0.83240  Biso   1.000  C
  H29      1.0000 0.40700  0.36370  0.04550  Biso   1.000  H
  H30      1.0000 0.59300  0.36370  0.95450  Biso   1.000  H
  H31      1.0000 0.90700  0.86370  0.04550  Biso   1.000  H
  H32      1.0000 0.09300  0.86370  0.95450  Biso   1.000  H
  C29      1.0000 0.40770  0.18820  0.21980  Biso   1.000  C
  C30      1.0000 0.59230  0.18820  0.78020  Biso   1.000  C
  C31      1.0000 0.90770  0.68820  0.21980  Biso   1.000  C
  C32      1.0000 0.09230  0.68820  0.78020  Biso   1.000  C
  C33      1.0000 0.46140  0.36920  0.16840  Biso   1.000  C
  C34      1.0000 0.53860  0.36920  0.83160  Biso   1.000  C
  C35      1.0000 0.96140  0.86920  0.16840  Biso   1.000  C
  C36      1.0000 0.03860  0.86920  0.83160  Biso   1.000  C
  H33      1.0000 0.46650  0.47090  0.12820  Biso   1.000  H
  H34      1.0000 0.53350  0.47090  0.87180  Biso   1.000  H
  H35      1.0000 0.96650  0.97090  0.12820  Biso   1.000  H
  H36      1.0000 0.03350  0.97090  0.87180  Biso   1.000  H
  H37      1.0000 0.47120  0.29560  0.09050  Biso   1.000  H
  H38      1.0000 0.52880  0.29560  0.90950  Biso   1.000  H
  H39      1.0000 0.97120  0.79560  0.09050  Biso   1.000  H
  H40      1.0000 0.02880  0.79560  0.90950  Biso   1.000  H
  H41      1.0000 0.47330  0.35520  0.28690  Biso   1.000  H
  H42      1.0000 0.52670  0.35520  0.71310  Biso   1.000  H
  H43      1.0000 0.97330  0.85520  0.28690  Biso   1.000  H
  H44      1.0000 0.02670  0.85520  0.71310  Biso   1.000  H
  O9       1.0000 0.38622  0.34590  0.71980  Biso   1.000  O
  O10      1.0000 0.61378  0.34590  0.28020  Biso   1.000  O
  O11      1.0000 0.88622  0.84590  0.71980  Biso   1.000  O
  O12      1.0000 0.11378  0.84590  0.28020  Biso   1.000  O
  O13      1.0000 0.44390  0.38040  0.63440  Biso   1.000  O
  O14      1.0000 0.55610  0.38040  0.36560  Biso   1.000  O
  O15      1.0000 0.94390  0.88040  0.63440  Biso   1.000  O
  O16      1.0000 0.05610  0.88040  0.36560  Biso   1.000  O
  N9       1.0000 0.32650  0.97890  0.81180  Biso   1.000  N
  N10      1.0000 0.67350  0.97890  0.18820  Biso   1.000  N
  N11      1.0000 0.82650  0.47890  0.81180  Biso   1.000  N
  N12      1.0000 0.17350  0.47890  0.18820  Biso   1.000  N
  N13      1.0000 0.39040  0.04430  0.68170  Biso   1.000  N
  N14      1.0000 0.60960  0.04430  0.31830  Biso   1.000  N
  N15      1.0000 0.89040  0.54430  0.68170  Biso   1.000  N
  N16      1.0000 0.10960  0.54430  0.31830  Biso   1.000  N
  H45      1.0000 0.38530  0.03900  0.56150  Biso   1.000  H
  H46      1.0000 0.61470  0.03900  0.43850  Biso   1.000  H
  H47      1.0000 0.88530  0.53900  0.56150  Biso   1.000  H
  H48      1.0000 0.11470  0.53900  0.43850  Biso   1.000  H
  C37      1.0000 0.28940  0.95940  0.84490  Biso   1.000  C
  C38      1.0000 0.71060  0.95940  0.15510  Biso   1.000  C
  C39      1.0000 0.78940  0.45940  0.84490  Biso   1.000  C
  C40      1.0000 0.21060  0.45940  0.15510  Biso   1.000  C
  H49      1.0000 0.27450  0.04530  0.85970  Biso   1.000  H
  H50      1.0000 0.72550  0.04530  0.14030  Biso   1.000  H
  H51      1.0000 0.77450  0.54530  0.85970  Biso   1.000  H
  H52      1.0000 0.22550  0.54530  0.14030  Biso   1.000  H
  C41      1.0000 0.27400  0.81880  0.85650  Biso   1.000  C
  C42      1.0000 0.72600  0.81880  0.14350  Biso   1.000  C
  C43      1.0000 0.77400  0.31880  0.85650  Biso   1.000  C
  C44      1.0000 0.22600  0.31880  0.14350  Biso   1.000  C
  H53      1.0000 0.24910  0.80740  0.88300  Biso   1.000  H
  H54      1.0000 0.75090  0.80740  0.11700  Biso   1.000  H
  H55      1.0000 0.74910  0.30740  0.88300  Biso   1.000  H
  H56      1.0000 0.25090  0.30740  0.11700  Biso   1.000  H
  C45      1.0000 0.29590  0.69260  0.82840  Biso   1.000  C
  C46      1.0000 0.70410  0.69260  0.17160  Biso   1.000  C
  C47      1.0000 0.79590  0.19260  0.82840  Biso   1.000  C
  C48      1.0000 0.20410  0.19260  0.17160  Biso   1.000  C
  H57      1.0000 0.28570  0.59470  0.83490  Biso   1.000  H
  H58      1.0000 0.71430  0.59470  0.16510  Biso   1.000  H
  H59      1.0000 0.78570  0.09470  0.83490  Biso   1.000  H
  H60      1.0000 0.21430  0.09470  0.16510  Biso   1.000  H
  C49      1.0000 0.33300  0.71080  0.79060  Biso   1.000  C
  C50      1.0000 0.66700  0.71080  0.20940  Biso   1.000  C
  C51      1.0000 0.83300  0.21080  0.79060  Biso   1.000  C
  C52      1.0000 0.16700  0.21080  0.20940  Biso   1.000  C
  H61      1.0000 0.34780  0.62660  0.76730  Biso   1.000  H
  H62      1.0000 0.65220  0.62660  0.23270  Biso   1.000  H
  H63      1.0000 0.84780  0.12660  0.76730  Biso   1.000  H
  H64      1.0000 0.15220  0.12660  0.23270  Biso   1.000  H
  C53      1.0000 0.34750  0.86030  0.78850  Biso   1.000  C
  C54      1.0000 0.65250  0.86030  0.21150  Biso   1.000  C
  C55      1.0000 0.84750  0.36030  0.78850  Biso   1.000  C
  C56      1.0000 0.15250  0.36030  0.21150  Biso   1.000  C
  C57      1.0000 0.38810  0.89030  0.75310  Biso   1.000  C
  C58      1.0000 0.61190  0.89030  0.24690  Biso   1.000  C
  C59      1.0000 0.88810  0.39030  0.75310  Biso   1.000  C
  C60      1.0000 0.11190  0.39030  0.24690  Biso   1.000  C
  H65      1.0000 0.40460  0.88090  0.86250  Biso   1.000  H
  H66      1.0000 0.59540  0.88090  0.13750  Biso   1.000  H
  H67      1.0000 0.90460  0.38090  0.86250  Biso   1.000  H
  H68      1.0000 0.09540  0.38090  0.13750  Biso   1.000  H
  H69      1.0000 0.39600  0.81610  0.66850  Biso   1.000  H
  H70      1.0000 0.60400  0.81610  0.33150  Biso   1.000  H
  H71      1.0000 0.89600  0.31610  0.66850  Biso   1.000  H
  H72      1.0000 0.10400  0.31610  0.33150  Biso   1.000  H
  C61      1.0000 0.42760  0.13050  0.72240  Biso   1.000  C
  C62      1.0000 0.57240  0.13050  0.27760  Biso   1.000  C
  C63      1.0000 0.92760  0.63050  0.72240  Biso   1.000  C
  C64      1.0000 0.07240  0.63050  0.27760  Biso   1.000  C
  H73      1.0000 0.43550  0.11820  0.84950  Biso   1.000  H
  H74      1.0000 0.56450  0.11820  0.15050  Biso   1.000  H
  H75      1.0000 0.93550  0.61820  0.84950  Biso   1.000  H
  H76      1.0000 0.06450  0.61820  0.15050  Biso   1.000  H
  C65      1.0000 0.41990  0.29370  0.68890  Biso   1.000  C
  C66      1.0000 0.58010  0.29370  0.31110  Biso   1.000  C
  C67      1.0000 0.91990  0.79370  0.68890  Biso   1.000  C
  C68      1.0000 0.08010  0.79370  0.31110  Biso   1.000  C
  C69      1.0000 0.45920  0.06310  0.61760  Biso   1.000  C
  C70      1.0000 0.54080  0.06310  0.38240  Biso   1.000  C
  C71      1.0000 0.95920  0.56310  0.61760  Biso   1.000  C
  C72      1.0000 0.04080  0.56310  0.38240  Biso   1.000  C
  H77      1.0000 0.46320  0.95750  0.64950  Biso   1.000  H
  H78      1.0000 0.53680  0.95750  0.35050  Biso   1.000  H
  H79      1.0000 0.96320  0.45750  0.64950  Biso   1.000  H
  H80      1.0000 0.03680  0.45750  0.35050  Biso   1.000  H
  H81      1.0000 0.48220  0.11950  0.64610  Biso   1.000  H
  H82      1.0000 0.51780  0.11950  0.35390  Biso   1.000  H
  H83      1.0000 0.98220  0.61950  0.64610  Biso   1.000  H
  H84      1.0000 0.01780  0.61950  0.35390  Biso   1.000  H
  H85      1.0000 0.45170  0.07070  0.49240  Biso   1.000  H
  H86      1.0000 0.54830  0.07070  0.50760  Biso   1.000  H
  H87      1.0000 0.95170  0.57070  0.49240  Biso   1.000  H
  H88      1.0000 0.04830  0.57070  0.50760  Biso   1.000  H
  O17      1.0000 0.47340  0.81730  0.12800  Biso   1.000  O
  O18      1.0000 0.52660  0.81730  0.87200  Biso   1.000  O
  O19      1.0000 0.97340  0.31730  0.12800  Biso   1.000  O
  O20      1.0000 0.02660  0.31730  0.87200  Biso   1.000  O
  O21      1.0000 0.47340  0.67310  0.63100  Biso   1.000  O
  O22      1.0000 0.52660  0.67310  0.36900  Biso   1.000  O
  O23      1.0000 0.97340  0.17310  0.63100  Biso   1.000  O
  O24      1.0000 0.02660  0.17310  0.36900  Biso   1.000  O
