data_image0
_cell_length_a       7.2957
_cell_length_b       9.0059
_cell_length_c       16.6311
_cell_angle_alpha    104.432
_cell_angle_beta     99.004
_cell_angle_gamma    90.104

_symmetry_space_group_name_H-M    "P 1"
_symmetry_int_tables_number       1

loop_
  _symmetry_equiv_pos_as_xyz
  'x, y, z'

loop_
  _atom_site_label
  _atom_site_occupancy
  _atom_site_fract_x
  _atom_site_fract_y
  _atom_site_fract_z
  _atom_site_thermal_displace_type
  _atom_site_B_iso_or_equiv
  _atom_site_type_symbol
  Cu1      1.0000 0.15810  0.22188  0.28228  Biso   1.000  Cu
  Cu2      1.0000 0.84190  0.77812  0.71772  Biso   1.000  Cu
  Cu3      1.0000 0.65550  0.03704  0.28263  Biso   1.000  Cu
  Cu4      1.0000 0.34450  0.96296  0.71737  Biso   1.000  Cu
  Cl1      1.0000 0.39340  0.15640  0.37110  Biso   1.000  Cl
  Cl2      1.0000 0.60660  0.84360  0.62890  Biso   1.000  Cl
  Cl3      1.0000 0.89420  0.18270  0.37030  Biso   1.000  Cl
  Cl4      1.0000 0.10580  0.81730  0.62970  Biso   1.000  Cl
  O1       1.0000 0.10980  0.01140  0.20940  Biso   1.000  O
  O2       1.0000 0.89020  0.98860  0.79060  Biso   1.000  O
  O3       1.0000 0.93450  0.88210  0.09060  Biso   1.000  O
  O4       1.0000 0.06550  0.11790  0.90940  Biso   1.000  O
  O5       1.0000 0.60790  0.17640  0.20840  Biso   1.000  O
  O6       1.0000 0.39210  0.82360  0.79160  Biso   1.000  O
  O7       1.0000 0.43100  0.20090  0.09070  Biso   1.000  O
  O8       1.0000 0.56900  0.79910  0.90930  Biso   1.000  O
  N1       1.0000 0.19520  0.45180  0.32430  Biso   1.000  N
  N2       1.0000 0.80480  0.54820  0.67570  Biso   1.000  N
  N3       1.0000 0.98080  0.27990  0.18960  Biso   1.000  N
  N4       1.0000 0.01920  0.72010  0.81040  Biso   1.000  N
  H1       1.0000 0.86580  0.29130  0.20600  Biso   1.000  H
  H2       1.0000 0.13420  0.70870  0.79400  Biso   1.000  H
  N5       1.0000 0.69120  0.84690  0.32460  Biso   1.000  N
  N6       1.0000 0.30880  0.15310  0.67540  Biso   1.000  N
  N7       1.0000 0.48210  0.89140  0.19040  Biso   1.000  N
  N8       1.0000 0.51790  0.10860  0.80960  Biso   1.000  N
  H3       1.0000 0.36760  0.89420  0.20720  Biso   1.000  H
  H4       1.0000 0.63240  0.10580  0.79280  Biso   1.000  H
  C1       1.0000 0.27400  0.53100  0.40180  Biso   1.000  C
  C2       1.0000 0.72600  0.46900  0.59820  Biso   1.000  C
  H5       1.0000 0.32260  0.47620  0.44120  Biso   1.000  H
  H6       1.0000 0.67740  0.52380  0.55880  Biso   1.000  H
  C3       1.0000 0.28700  0.68800  0.42520  Biso   1.000  C
  C4       1.0000 0.71300  0.31200  0.57480  Biso   1.000  C
  H7       1.0000 0.33990  0.74210  0.47990  Biso   1.000  H
  H8       1.0000 0.66010  0.25790  0.52010  Biso   1.000  H
  C5       1.0000 0.21700  0.76290  0.36410  Biso   1.000  C
  C6       1.0000 0.78300  0.23710  0.63590  Biso   1.000  C
  H9       1.0000 0.22500  0.87070  0.37720  Biso   1.000  H
  H10      1.0000 0.77500  0.12930  0.62280  Biso   1.000  H
  C7       1.0000 0.13900  0.68300  0.28600  Biso   1.000  C
  C8       1.0000 0.86100  0.31700  0.71400  Biso   1.000  C
  H11      1.0000 0.09430  0.73550  0.24510  Biso   1.000  H
  H12      1.0000 0.90570  0.26450  0.75490  Biso   1.000  H
  C9       1.0000 0.12570  0.52980  0.26700  Biso   1.000  C
  C10      1.0000 0.87430  0.47020  0.73300  Biso   1.000  C
  C11      1.0000 0.04300  0.42710  0.18020  Biso   1.000  C
  C12      1.0000 0.95700  0.57290  0.81980  Biso   1.000  C
  H13      1.0000 0.93830  0.47680  0.15470  Biso   1.000  H
  H14      1.0000 0.06170  0.52320  0.84530  Biso   1.000  H
  H15      1.0000 0.13730  0.41180  0.14320  Biso   1.000  H
  H16      1.0000 0.86270  0.58820  0.85680  Biso   1.000  H
  C13      1.0000 0.96520  0.15540  0.11510  Biso   1.000  C
  C14      1.0000 0.03480  0.84460  0.88490  Biso   1.000  C
  H17      1.0000 0.05520  0.17330  0.08010  Biso   1.000  H
  H18      1.0000 0.94480  0.82670  0.91990  Biso   1.000  H
  H19      1.0000 0.84050  0.15090  0.08240  Biso   1.000  H
  H20      1.0000 0.15950  0.84910  0.91760  Biso   1.000  H
  C15      1.0000 0.00160  0.00100  0.13840  Biso   1.000  C
  C16      1.0000 0.99840  0.99900  0.86160  Biso   1.000  C
  C17      1.0000 0.77000  0.84100  0.40240  Biso   1.000  C
  C18      1.0000 0.23000  0.15900  0.59760  Biso   1.000  C
  H21      1.0000 0.81170  0.93240  0.44260  Biso   1.000  H
  H22      1.0000 0.18830  0.06760  0.55740  Biso   1.000  H
  C19      1.0000 0.79110  0.70660  0.42430  Biso   1.000  C
  C20      1.0000 0.20890  0.29340  0.57570  Biso   1.000  C
  H23      1.0000 0.85130  0.70570  0.47840  Biso   1.000  H
  H24      1.0000 0.14870  0.29430  0.52160  Biso   1.000  H
  C21      1.0000 0.72440  0.57100  0.36740  Biso   1.000  C
  C22      1.0000 0.27560  0.42900  0.63260  Biso   1.000  C
  H25      1.0000 0.73830  0.47690  0.38250  Biso   1.000  H
  H26      1.0000 0.26170  0.52310  0.61750  Biso   1.000  H
  C23      1.0000 0.63710  0.57370  0.28800  Biso   1.000  C
  C24      1.0000 0.36290  0.42630  0.71200  Biso   1.000  C
  H27      1.0000 0.58770  0.48340  0.24830  Biso   1.000  H
  H28      1.0000 0.41230  0.51660  0.75170  Biso   1.000  H
  C25      1.0000 0.62530  0.71220  0.26940  Biso   1.000  C
  C26      1.0000 0.37470  0.28780  0.73060  Biso   1.000  C
  C27      1.0000 0.54460  0.73730  0.18250  Biso   1.000  C
  C28      1.0000 0.45540  0.26270  0.81750  Biso   1.000  C
  H29      1.0000 0.64000  0.71890  0.14610  Biso   1.000  H
  H30      1.0000 0.36000  0.28110  0.85390  Biso   1.000  H
  H31      1.0000 0.44020  0.66370  0.15620  Biso   1.000  H
  H32      1.0000 0.55980  0.33630  0.84380  Biso   1.000  H
  C29      1.0000 0.46170  0.95210  0.11400  Biso   1.000  C
  C30      1.0000 0.53830  0.04790  0.88600  Biso   1.000  C
  H33      1.0000 0.33490  0.92990  0.08300  Biso   1.000  H
  H34      1.0000 0.66510  0.07010  0.91700  Biso   1.000  H
  H35      1.0000 0.54780  0.90220  0.07700  Biso   1.000  H
  H36      1.0000 0.45220  0.09780  0.92300  Biso   1.000  H
  C31      1.0000 0.50260  0.12140  0.14000  Biso   1.000  C
  C32      1.0000 0.49740  0.87860  0.86000  Biso   1.000  C
  O9       1.0000 0.11670  0.61920  0.04930  Biso   1.000  O
  O10      1.0000 0.88330  0.38080  0.95070  Biso   1.000  O
  O11      1.0000 0.61830  0.42170  0.04960  Biso   1.000  O
  O12      1.0000 0.38170  0.57830  0.95040  Biso   1.000  O
