data_image0
_cell_length_a       17.1856
_cell_length_b       18.6088
_cell_length_c       8.1381
_cell_angle_alpha    90
_cell_angle_beta     90
_cell_angle_gamma    90

_symmetry_space_group_name_H-M    "P 1"
_symmetry_int_tables_number       1

loop_
  _symmetry_equiv_pos_as_xyz
  'x, y, z'

loop_
  _atom_site_label
  _atom_site_occupancy
  _atom_site_fract_x
  _atom_site_fract_y
  _atom_site_fract_z
  _atom_site_thermal_displace_type
  _atom_site_B_iso_or_equiv
  _atom_site_type_symbol
  Cu1      1.0000 0.14597  0.73448  0.61451  Biso   1.000  Cu
  Cu2      1.0000 0.85403  0.26552  0.61451  Biso   1.000  Cu
  Cu3      1.0000 0.35403  0.23448  0.38549  Biso   1.000  Cu
  Cu4      1.0000 0.64597  0.76552  0.38549  Biso   1.000  Cu
  Cu5      1.0000 0.20944  0.73290  0.09866  Biso   1.000  Cu
  Cu6      1.0000 0.79056  0.26710  0.09866  Biso   1.000  Cu
  Cu7      1.0000 0.29056  0.23290  0.90134  Biso   1.000  Cu
  Cu8      1.0000 0.70944  0.76710  0.90134  Biso   1.000  Cu
  N1       1.0000 0.05280  0.69740  0.49770  Biso   1.000  N
  N2       1.0000 0.94720  0.30260  0.49770  Biso   1.000  N
  N3       1.0000 0.44720  0.19740  0.50230  Biso   1.000  N
  N4       1.0000 0.55280  0.80260  0.50230  Biso   1.000  N
  C1       1.0000 0.04210  0.63000  0.44340  Biso   1.000  C
  C2       1.0000 0.95790  0.37000  0.44340  Biso   1.000  C
  C3       1.0000 0.45790  0.13000  0.55660  Biso   1.000  C
  C4       1.0000 0.54210  0.87000  0.55660  Biso   1.000  C
  H1       1.0000 0.08310  0.59740  0.44930  Biso   1.000  H
  H2       1.0000 0.91690  0.40260  0.44930  Biso   1.000  H
  H3       1.0000 0.41690  0.09740  0.55070  Biso   1.000  H
  H4       1.0000 0.58310  0.90260  0.55070  Biso   1.000  H
  C5       1.0000 0.97230  0.60790  0.37950  Biso   1.000  C
  C6       1.0000 0.02770  0.39210  0.37950  Biso   1.000  C
  C7       1.0000 0.52770  0.10790  0.62050  Biso   1.000  C
  C8       1.0000 0.47230  0.89210  0.62050  Biso   1.000  C
  H5       1.0000 0.96590  0.56090  0.34330  Biso   1.000  H
  H6       1.0000 0.03410  0.43910  0.34330  Biso   1.000  H
  H7       1.0000 0.53410  0.06090  0.65670  Biso   1.000  H
  H8       1.0000 0.46590  0.93910  0.65670  Biso   1.000  H
  C9       1.0000 0.91290  0.65530  0.36960  Biso   1.000  C
  C10      1.0000 0.08710  0.34470  0.36960  Biso   1.000  C
  C11      1.0000 0.58710  0.15530  0.63040  Biso   1.000  C
  C12      1.0000 0.41290  0.84470  0.63040  Biso   1.000  C
  H9       1.0000 0.86510  0.64080  0.32760  Biso   1.000  H
  H10      1.0000 0.13490  0.35920  0.32760  Biso   1.000  H
  H11      1.0000 0.63490  0.14080  0.67240  Biso   1.000  H
  H12      1.0000 0.36510  0.85920  0.67240  Biso   1.000  H
  C13      1.0000 0.92310  0.72410  0.42130  Biso   1.000  C
  C14      1.0000 0.07690  0.27590  0.42130  Biso   1.000  C
  C15      1.0000 0.57690  0.22410  0.57870  Biso   1.000  C
  C16      1.0000 0.42310  0.77590  0.57870  Biso   1.000  C
  H13      1.0000 0.88270  0.75710  0.41320  Biso   1.000  H
  H14      1.0000 0.11730  0.24290  0.41320  Biso   1.000  H
  H15      1.0000 0.61730  0.25710  0.58680  Biso   1.000  H
  H16      1.0000 0.38270  0.74290  0.58680  Biso   1.000  H
  C17      1.0000 0.99430  0.74450  0.48600  Biso   1.000  C
  C18      1.0000 0.00570  0.25550  0.48600  Biso   1.000  C
  C19      1.0000 0.50570  0.24450  0.51400  Biso   1.000  C
  C20      1.0000 0.49430  0.75550  0.51400  Biso   1.000  C
  C21      1.0000 0.01250  0.81880  0.54280  Biso   1.000  C
  C22      1.0000 0.98750  0.18120  0.54280  Biso   1.000  C
  C23      1.0000 0.48750  0.31880  0.45720  Biso   1.000  C
  C24      1.0000 0.51250  0.68120  0.45720  Biso   1.000  C
  H17      1.0000 0.02540  0.84870  0.44900  Biso   1.000  H
  H18      1.0000 0.97460  0.15130  0.44900  Biso   1.000  H
  H19      1.0000 0.47460  0.34870  0.55100  Biso   1.000  H
  H20      1.0000 0.52540  0.65130  0.55100  Biso   1.000  H
  H21      1.0000 0.96730  0.83930  0.59650  Biso   1.000  H
  H22      1.0000 0.03270  0.16070  0.59650  Biso   1.000  H
  H23      1.0000 0.53270  0.33930  0.40350  Biso   1.000  H
  H24      1.0000 0.46730  0.66070  0.40350  Biso   1.000  H
  N5       1.0000 0.07750  0.81770  0.65650  Biso   1.000  N
  N6       1.0000 0.92250  0.18230  0.65650  Biso   1.000  N
  N7       1.0000 0.42250  0.31770  0.34350  Biso   1.000  N
  N8       1.0000 0.57750  0.68230  0.34350  Biso   1.000  N
  H25      1.0000 0.05540  0.80820  0.75590  Biso   1.000  H
  H26      1.0000 0.94460  0.19180  0.75590  Biso   1.000  H
  H27      1.0000 0.44460  0.30820  0.24410  Biso   1.000  H
  H28      1.0000 0.55540  0.69180  0.24410  Biso   1.000  H
  C25      1.0000 0.12250  0.88350  0.68340  Biso   1.000  C
  C26      1.0000 0.87750  0.11650  0.68340  Biso   1.000  C
  C27      1.0000 0.37750  0.38350  0.31660  Biso   1.000  C
  C28      1.0000 0.62250  0.61650  0.31660  Biso   1.000  C
  H29      1.0000 0.12810  0.90870  0.57830  Biso   1.000  H
  H30      1.0000 0.87190  0.09130  0.57830  Biso   1.000  H
  H31      1.0000 0.37190  0.40870  0.42170  Biso   1.000  H
  H32      1.0000 0.62810  0.59130  0.42170  Biso   1.000  H
  C29      1.0000 0.20330  0.86030  0.74300  Biso   1.000  C
  C30      1.0000 0.79670  0.13970  0.74300  Biso   1.000  C
  C31      1.0000 0.29670  0.36030  0.25700  Biso   1.000  C
  C32      1.0000 0.70330  0.63970  0.25700  Biso   1.000  C
  C33      1.0000 0.08350  0.93250  0.80300  Biso   1.000  C
  C34      1.0000 0.91650  0.06750  0.80300  Biso   1.000  C
  C35      1.0000 0.41650  0.43250  0.19700  Biso   1.000  C
  C36      1.0000 0.58350  0.56750  0.19700  Biso   1.000  C
  H33      1.0000 0.03100  0.94130  0.76810  Biso   1.000  H
  H34      1.0000 0.96900  0.05870  0.76810  Biso   1.000  H
  H35      1.0000 0.46900  0.44130  0.23190  Biso   1.000  H
  H36      1.0000 0.53100  0.55870  0.23190  Biso   1.000  H
  H37      1.0000 0.11140  0.97710  0.80810  Biso   1.000  H
  H38      1.0000 0.88860  0.02290  0.80810  Biso   1.000  H
  H39      1.0000 0.38860  0.47710  0.19190  Biso   1.000  H
  H40      1.0000 0.61140  0.52290  0.19190  Biso   1.000  H
  H41      1.0000 0.08310  0.91050  0.90970  Biso   1.000  H
  H42      1.0000 0.91690  0.08950  0.90970  Biso   1.000  H
  H43      1.0000 0.41690  0.41050  0.09030  Biso   1.000  H
  H44      1.0000 0.58310  0.58950  0.09030  Biso   1.000  H
  O1       1.0000 0.22440  0.79646  0.71530  Biso   1.000  O
  O2       1.0000 0.77560  0.20354  0.71530  Biso   1.000  O
  O3       1.0000 0.27560  0.29646  0.28470  Biso   1.000  O
  O4       1.0000 0.72440  0.70354  0.28470  Biso   1.000  O
  O5       1.0000 0.24380  0.90443  0.81660  Biso   1.000  O
  O6       1.0000 0.75620  0.09557  0.81660  Biso   1.000  O
  O7       1.0000 0.25620  0.40443  0.18340  Biso   1.000  O
  O8       1.0000 0.74380  0.59557  0.18340  Biso   1.000  O
  C37      1.0000 0.30490  0.61810  0.93160  Biso   1.000  C
  C38      1.0000 0.69510  0.38190  0.93160  Biso   1.000  C
  C39      1.0000 0.19510  0.11810  0.06840  Biso   1.000  C
  C40      1.0000 0.80490  0.88190  0.06840  Biso   1.000  C
  H45      1.0000 0.25890  0.59230  0.92000  Biso   1.000  H
  H46      1.0000 0.74110  0.40770  0.92000  Biso   1.000  H
  H47      1.0000 0.24110  0.09230  0.08000  Biso   1.000  H
  H48      1.0000 0.75890  0.90770  0.08000  Biso   1.000  H
  C41      1.0000 0.37290  0.58870  0.87170  Biso   1.000  C
  C42      1.0000 0.62710  0.41130  0.87170  Biso   1.000  C
  C43      1.0000 0.12710  0.08870  0.12830  Biso   1.000  C
  C44      1.0000 0.87290  0.91130  0.12830  Biso   1.000  C
  H49      1.0000 0.37310  0.54390  0.82120  Biso   1.000  H
  H50      1.0000 0.62690  0.45610  0.82120  Biso   1.000  H
  H51      1.0000 0.12690  0.04390  0.17880  Biso   1.000  H
  H52      1.0000 0.87310  0.95610  0.17880  Biso   1.000  H
  N9       1.0000 0.30260  0.68250  0.00610  Biso   1.000  N
  N10      1.0000 0.69740  0.31750  0.00610  Biso   1.000  N
  N11      1.0000 0.19740  0.18250  0.99390  Biso   1.000  N
  N12      1.0000 0.80260  0.81750  0.99390  Biso   1.000  N
  C45      1.0000 0.44010  0.62730  0.88870  Biso   1.000  C
  C46      1.0000 0.55990  0.37270  0.88870  Biso   1.000  C
  C47      1.0000 0.05990  0.12730  0.11130  Biso   1.000  C
  C48      1.0000 0.94010  0.87270  0.11130  Biso   1.000  C
  H53      1.0000 0.48670  0.60890  0.84880  Biso   1.000  H
  H54      1.0000 0.51330  0.39110  0.84880  Biso   1.000  H
  H55      1.0000 0.01330  0.10890  0.15120  Biso   1.000  H
  H56      1.0000 0.98670  0.89110  0.15120  Biso   1.000  H
  C49      1.0000 0.43890  0.69280  0.96420  Biso   1.000  C
  C50      1.0000 0.56110  0.30720  0.96420  Biso   1.000  C
  C51      1.0000 0.06110  0.19280  0.03580  Biso   1.000  C
  C52      1.0000 0.93890  0.80720  0.03580  Biso   1.000  C
  H57      1.0000 0.48440  0.71960  0.97480  Biso   1.000  H
  H58      1.0000 0.51560  0.28040  0.97480  Biso   1.000  H
  H59      1.0000 0.01560  0.21960  0.02520  Biso   1.000  H
  H60      1.0000 0.98440  0.78040  0.02520  Biso   1.000  H
  C53      1.0000 0.36900  0.71890  0.02470  Biso   1.000  C
  C54      1.0000 0.63100  0.28110  0.02470  Biso   1.000  C
  C55      1.0000 0.13100  0.21890  0.97530  Biso   1.000  C
  C56      1.0000 0.86900  0.78110  0.97530  Biso   1.000  C
  C57      1.0000 0.36250  0.78850  0.11720  Biso   1.000  C
  C58      1.0000 0.63750  0.21150  0.11720  Biso   1.000  C
  C59      1.0000 0.13750  0.28850  0.88280  Biso   1.000  C
  C60      1.0000 0.86250  0.71150  0.88280  Biso   1.000  C
  H61      1.0000 0.37520  0.78100  0.23200  Biso   1.000  H
  H62      1.0000 0.62480  0.21900  0.23200  Biso   1.000  H
  H63      1.0000 0.12480  0.28100  0.76800  Biso   1.000  H
  H64      1.0000 0.87520  0.71900  0.76800  Biso   1.000  H
  H65      1.0000 0.39860  0.82340  0.07230  Biso   1.000  H
  H66      1.0000 0.60140  0.17660  0.07230  Biso   1.000  H
  H67      1.0000 0.10140  0.32340  0.92770  Biso   1.000  H
  H68      1.0000 0.89860  0.67660  0.92770  Biso   1.000  H
  C61      1.0000 0.25550  0.86410  0.23380  Biso   1.000  C
  C62      1.0000 0.74450  0.13590  0.23380  Biso   1.000  C
  C63      1.0000 0.24450  0.36410  0.76620  Biso   1.000  C
  C64      1.0000 0.75550  0.63590  0.76620  Biso   1.000  C
  H69      1.0000 0.27070  0.84290  0.33920  Biso   1.000  H
  H70      1.0000 0.72930  0.15710  0.33920  Biso   1.000  H
  H71      1.0000 0.22930  0.34290  0.66080  Biso   1.000  H
  H72      1.0000 0.77070  0.65710  0.66080  Biso   1.000  H
  N13      1.0000 0.28280  0.81528  0.10230  Biso   1.000  N
  N14      1.0000 0.71720  0.18472  0.10230  Biso   1.000  N
  N15      1.0000 0.21720  0.31528  0.89770  Biso   1.000  N
  N16      1.0000 0.78280  0.68472  0.89770  Biso   1.000  N
  H73      1.0000 0.27870  0.83890  0.00470  Biso   1.000  H
  H74      1.0000 0.72130  0.16110  0.00470  Biso   1.000  H
  H75      1.0000 0.22130  0.33890  0.99530  Biso   1.000  H
  H76      1.0000 0.77870  0.66110  0.99530  Biso   1.000  H
  C65      1.0000 0.16560  0.86450  0.22660  Biso   1.000  C
  C66      1.0000 0.83440  0.13550  0.22660  Biso   1.000  C
  C67      1.0000 0.33440  0.36450  0.77340  Biso   1.000  C
  C68      1.0000 0.66560  0.63550  0.77340  Biso   1.000  C
  C69      1.0000 0.29050  0.93870  0.22560  Biso   1.000  C
  C70      1.0000 0.70950  0.06130  0.22560  Biso   1.000  C
  C71      1.0000 0.20950  0.43870  0.77440  Biso   1.000  C
  C72      1.0000 0.79050  0.56130  0.77440  Biso   1.000  C
  H77      1.0000 0.34610  0.93530  0.23380  Biso   1.000  H
  H78      1.0000 0.65390  0.06470  0.23380  Biso   1.000  H
  H79      1.0000 0.15390  0.43530  0.76620  Biso   1.000  H
  H80      1.0000 0.84610  0.56470  0.76620  Biso   1.000  H
  H81      1.0000 0.27090  0.96710  0.31480  Biso   1.000  H
  H82      1.0000 0.72910  0.03290  0.31480  Biso   1.000  H
  H83      1.0000 0.22910  0.46710  0.68520  Biso   1.000  H
  H84      1.0000 0.77090  0.53290  0.68520  Biso   1.000  H
  H85      1.0000 0.27670  0.96080  0.12310  Biso   1.000  H
  H86      1.0000 0.72330  0.03920  0.12310  Biso   1.000  H
  H87      1.0000 0.22330  0.46080  0.87690  Biso   1.000  H
  H88      1.0000 0.77670  0.53920  0.87690  Biso   1.000  H
  O9       1.0000 0.13440  0.80673  0.16900  Biso   1.000  O
  O10      1.0000 0.86560  0.19327  0.16900  Biso   1.000  O
  O11      1.0000 0.36560  0.30673  0.83100  Biso   1.000  O
  O12      1.0000 0.63440  0.69327  0.83100  Biso   1.000  O
  O13      1.0000 0.12940  0.91629  0.27530  Biso   1.000  O
  O14      1.0000 0.87060  0.08371  0.27530  Biso   1.000  O
  O15      1.0000 0.37060  0.41629  0.72470  Biso   1.000  O
  O16      1.0000 0.62940  0.58371  0.72470  Biso   1.000  O
  O17      1.0000 0.20950  0.64932  0.59220  Biso   1.000  O
  O18      1.0000 0.79050  0.35068  0.59220  Biso   1.000  O
  O19      1.0000 0.29050  0.14932  0.40780  Biso   1.000  O
  O20      1.0000 0.70950  0.85068  0.40780  Biso   1.000  O
  O21      1.0000 0.24770  0.70479  0.36920  Biso   1.000  O
  O22      1.0000 0.75230  0.29521  0.36920  Biso   1.000  O
  O23      1.0000 0.25230  0.20479  0.63080  Biso   1.000  O
  O24      1.0000 0.74770  0.79521  0.63080  Biso   1.000  O
  C73      1.0000 0.24940  0.65280  0.45980  Biso   1.000  C
  C74      1.0000 0.75060  0.34720  0.45980  Biso   1.000  C
  C75      1.0000 0.25060  0.15280  0.54020  Biso   1.000  C
  C76      1.0000 0.74940  0.84720  0.54020  Biso   1.000  C
  C77      1.0000 0.29970  0.58940  0.42170  Biso   1.000  C
  C78      1.0000 0.70030  0.41060  0.42170  Biso   1.000  C
  C79      1.0000 0.20030  0.08940  0.57830  Biso   1.000  C
  C80      1.0000 0.79970  0.91060  0.57830  Biso   1.000  C
  H89      1.0000 0.32920  0.59880  0.32390  Biso   1.000  H
  H90      1.0000 0.67080  0.40120  0.32390  Biso   1.000  H
  H91      1.0000 0.17080  0.09880  0.67610  Biso   1.000  H
  H92      1.0000 0.82920  0.90120  0.67610  Biso   1.000  H
  H93      1.0000 0.26770  0.54780  0.40510  Biso   1.000  H
  H94      1.0000 0.73230  0.45220  0.40510  Biso   1.000  H
  H95      1.0000 0.23230  0.04780  0.59490  Biso   1.000  H
  H96      1.0000 0.76770  0.95220  0.59490  Biso   1.000  H
  H97      1.0000 0.33460  0.58090  0.51170  Biso   1.000  H
  H98      1.0000 0.66540  0.41910  0.51170  Biso   1.000  H
  H99      1.0000 0.16540  0.08090  0.48830  Biso   1.000  H
  H100     1.0000 0.83460  0.91910  0.48830  Biso   1.000  H
  O25      1.0000 0.08420  0.70280  0.87300  Biso   1.000  O
  O26      1.0000 0.91580  0.29720  0.87300  Biso   1.000  O
  O27      1.0000 0.41580  0.20280  0.12700  Biso   1.000  O
  O28      1.0000 0.58420  0.79720  0.12700  Biso   1.000  O
  O29      1.0000 0.14150  0.64960  0.07780  Biso   1.000  O
  O30      1.0000 0.85850  0.35040  0.07780  Biso   1.000  O
  O31      1.0000 0.35850  0.14960  0.92220  Biso   1.000  O
  O32      1.0000 0.64150  0.85040  0.92220  Biso   1.000  O
  C81      1.0000 0.09500  0.65140  0.96150  Biso   1.000  C
  C82      1.0000 0.90500  0.34860  0.96150  Biso   1.000  C
  C83      1.0000 0.40500  0.15140  0.03850  Biso   1.000  C
  C84      1.0000 0.59500  0.84860  0.03850  Biso   1.000  C
  C85      1.0000 0.04830  0.58300  0.92750  Biso   1.000  C
  C86      1.0000 0.95170  0.41700  0.92750  Biso   1.000  C
  C87      1.0000 0.45170  0.08300  0.07250  Biso   1.000  C
  C88      1.0000 0.54830  0.91700  0.07250  Biso   1.000  C
  H101     1.0000 0.00320  0.58190  0.99720  Biso   1.000  H
  H102     1.0000 0.99680  0.41810  0.99720  Biso   1.000  H
  H103     1.0000 0.49680  0.08190  0.00280  Biso   1.000  H
  H104     1.0000 0.50320  0.91810  0.00280  Biso   1.000  H
  H105     1.0000 0.08010  0.54170  0.94950  Biso   1.000  H
  H106     1.0000 0.91990  0.45830  0.94950  Biso   1.000  H
  H107     1.0000 0.41990  0.04170  0.05050  Biso   1.000  H
  H108     1.0000 0.58010  0.95830  0.05050  Biso   1.000  H
  H109     1.0000 0.03220  0.58240  0.81460  Biso   1.000  H
  H110     1.0000 0.96780  0.41760  0.81460  Biso   1.000  H
  H111     1.0000 0.46780  0.08240  0.18540  Biso   1.000  H
  H112     1.0000 0.53220  0.91760  0.18540  Biso   1.000  H
  O33      1.0000 0.00000  0.00000  0.42600  Biso   1.000  O
  O34      1.0000 0.50000  0.50000  0.57400  Biso   1.000  O
  H113     1.0000 0.97200  0.02860  0.49100  Biso   1.000  H
  H114     1.0000 0.02800  0.97140  0.49100  Biso   1.000  H
  H115     1.0000 0.52800  0.52860  0.50900  Biso   1.000  H
  H116     1.0000 0.47200  0.47140  0.50900  Biso   1.000  H
  O35      1.0000 0.35840  0.01090  0.76570  Biso   1.000  O
  O36      1.0000 0.64160  0.98910  0.76570  Biso   1.000  O
  O37      1.0000 0.14160  0.51090  0.23430  Biso   1.000  O
  O38      1.0000 0.85840  0.48910  0.23430  Biso   1.000  O
  H117     1.0000 0.32500  0.97730  0.80700  Biso   1.000  H
  H118     1.0000 0.67500  0.02270  0.80700  Biso   1.000  H
  H119     1.0000 0.17500  0.47730  0.19300  Biso   1.000  H
  H120     1.0000 0.82500  0.52270  0.19300  Biso   1.000  H
  H121     1.0000 0.33900  0.05360  0.80100  Biso   1.000  H
  H122     1.0000 0.66100  0.94640  0.80100  Biso   1.000  H
  H123     1.0000 0.16100  0.55360  0.19900  Biso   1.000  H
  H124     1.0000 0.83900  0.44640  0.19900  Biso   1.000  H
