data_image0
_cell_length_a       9.658
_cell_length_b       6.877
_cell_length_c       23.201
_cell_angle_alpha    90
_cell_angle_beta     90
_cell_angle_gamma    90

_symmetry_space_group_name_H-M    "P 1"
_symmetry_int_tables_number       1

loop_
  _symmetry_equiv_pos_as_xyz
  'x, y, z'

loop_
  _atom_site_label
  _atom_site_occupancy
  _atom_site_fract_x
  _atom_site_fract_y
  _atom_site_fract_z
  _atom_site_thermal_displace_type
  _atom_site_B_iso_or_equiv
  _atom_site_type_symbol
  Cu1      1.0000 0.51073  0.96902  0.98859  Biso   1.000  Cu
  Cu2      1.0000 0.98927  0.03098  0.48859  Biso   1.000  Cu
  Cu3      1.0000 0.01073  0.53098  0.01141  Biso   1.000  Cu
  Cu4      1.0000 0.48927  0.46902  0.51141  Biso   1.000  Cu
  N1       1.0000 0.33080  0.03910  0.01839  Biso   1.000  N
  N2       1.0000 0.16920  0.96090  0.51839  Biso   1.000  N
  N3       1.0000 0.83080  0.46090  0.98161  Biso   1.000  N
  N4       1.0000 0.66920  0.53910  0.48161  Biso   1.000  N
  N5       1.0000 0.41260  0.97130  0.90856  Biso   1.000  N
  N6       1.0000 0.08740  0.02870  0.40856  Biso   1.000  N
  N7       1.0000 0.91260  0.52870  0.09144  Biso   1.000  N
  N8       1.0000 0.58740  0.47130  0.59144  Biso   1.000  N
  N9       1.0000 0.69220  0.93850  0.95133  Biso   1.000  N
  N10      1.0000 0.80780  0.06150  0.45133  Biso   1.000  N
  N11      1.0000 0.19220  0.56150  0.04867  Biso   1.000  N
  N12      1.0000 0.30780  0.43850  0.54867  Biso   1.000  N
  N13      1.0000 0.79840  0.92780  0.97688  Biso   1.000  N
  N14      1.0000 0.70160  0.07220  0.47688  Biso   1.000  N
  N15      1.0000 0.29840  0.57220  0.02312  Biso   1.000  N
  N16      1.0000 0.20160  0.42780  0.52312  Biso   1.000  N
  N17      1.0000 0.90330  0.91450  0.00003  Biso   1.000  N
  N18      1.0000 0.59670  0.08550  0.50003  Biso   1.000  N
  N19      1.0000 0.40330  0.58550  0.99997  Biso   1.000  N
  N20      1.0000 0.09670  0.41450  0.49997  Biso   1.000  N
  O1       1.0000 0.59595  0.98220  0.06216  Biso   1.000  O
  O2       1.0000 0.90405  0.01780  0.56216  Biso   1.000  O
  O3       1.0000 0.09595  0.51780  0.93784  Biso   1.000  O
  O4       1.0000 0.40405  0.48220  0.43784  Biso   1.000  O
  O5       1.0000 0.44810  0.00460  0.78457  Biso   1.000  O
  O6       1.0000 0.05190  0.99540  0.28457  Biso   1.000  O
  O7       1.0000 0.94810  0.49540  0.21543  Biso   1.000  O
  O8       1.0000 0.55190  0.50460  0.71543  Biso   1.000  O
  O9       1.0000 0.65240  0.00190  0.26111  Biso   1.000  O
  O10      1.0000 0.84760  0.99810  0.76111  Biso   1.000  O
  O11      1.0000 0.15240  0.49810  0.73889  Biso   1.000  O
  O12      1.0000 0.34760  0.50190  0.23889  Biso   1.000  O
  C1       1.0000 0.38830  0.01160  0.11951  Biso   1.000  C
  C2       1.0000 0.11170  0.98840  0.61951  Biso   1.000  C
  C3       1.0000 0.88830  0.48840  0.88049  Biso   1.000  C
  C4       1.0000 0.61170  0.51160  0.38049  Biso   1.000  C
  C5       1.0000 0.53420  0.99570  0.11239  Biso   1.000  C
  C6       1.0000 0.96580  0.00430  0.61239  Biso   1.000  C
  C7       1.0000 0.03420  0.50430  0.88761  Biso   1.000  C
  C8       1.0000 0.46580  0.49570  0.38761  Biso   1.000  C
  C9       1.0000 0.61620  0.99550  0.16207  Biso   1.000  C
  C10      1.0000 0.88380  0.00450  0.66207  Biso   1.000  C
  C11      1.0000 0.11620  0.50450  0.83793  Biso   1.000  C
  C12      1.0000 0.38380  0.49550  0.33793  Biso   1.000  C
  H1       1.0000 0.71190  0.98980  0.15820  Biso   1.000  H
  H2       1.0000 0.78810  0.01020  0.65820  Biso   1.000  H
  H3       1.0000 0.21190  0.51020  0.84180  Biso   1.000  H
  H4       1.0000 0.28810  0.48980  0.34180  Biso   1.000  H
  C13      1.0000 0.55990  0.00330  0.21675  Biso   1.000  C
  C14      1.0000 0.94010  0.99670  0.71675  Biso   1.000  C
  C15      1.0000 0.05990  0.49670  0.78325  Biso   1.000  C
  C16      1.0000 0.44010  0.50330  0.28325  Biso   1.000  C
  C17      1.0000 0.41560  0.01010  0.22411  Biso   1.000  C
  C18      1.0000 0.08440  0.98990  0.72411  Biso   1.000  C
  C19      1.0000 0.91560  0.48990  0.77589  Biso   1.000  C
  C20      1.0000 0.58440  0.51010  0.27589  Biso   1.000  C
  H5       1.0000 0.37640  0.01020  0.26070  Biso   1.000  H
  H6       1.0000 0.12360  0.98980  0.76070  Biso   1.000  H
  H7       1.0000 0.87640  0.48980  0.73930  Biso   1.000  H
  H8       1.0000 0.62360  0.51020  0.23930  Biso   1.000  H
  C21      1.0000 0.33430  0.01660  0.17568  Biso   1.000  C
  C22      1.0000 0.16570  0.98340  0.67568  Biso   1.000  C
  C23      1.0000 0.83430  0.48340  0.82432  Biso   1.000  C
  C24      1.0000 0.66570  0.51660  0.32432  Biso   1.000  C
  H9       1.0000 0.23890  0.02480  0.18030  Biso   1.000  H
  H10      1.0000 0.26110  0.97520  0.68030  Biso   1.000  H
  H11      1.0000 0.73890  0.47520  0.81970  Biso   1.000  H
  H12      1.0000 0.76110  0.52480  0.31970  Biso   1.000  H
  C25      1.0000 0.29580  0.03550  0.07154  Biso   1.000  C
  C26      1.0000 0.20420  0.96450  0.57154  Biso   1.000  C
  C27      1.0000 0.79580  0.46450  0.92846  Biso   1.000  C
  C28      1.0000 0.70420  0.53550  0.42846  Biso   1.000  C
  H13      1.0000 0.20210  0.04970  0.07990  Biso   1.000  H
  H14      1.0000 0.29790  0.95030  0.57990  Biso   1.000  H
  H15      1.0000 0.70210  0.45030  0.92010  Biso   1.000  H
  H16      1.0000 0.79790  0.54970  0.42010  Biso   1.000  H
  C29      1.0000 0.22810  0.08180  0.97392  Biso   1.000  C
  C30      1.0000 0.27190  0.91820  0.47392  Biso   1.000  C
  C31      1.0000 0.72810  0.41820  0.02608  Biso   1.000  C
  C32      1.0000 0.77190  0.58180  0.52608  Biso   1.000  C
  H17      1.0000 0.23130  0.21870  0.96390  Biso   1.000  H
  H18      1.0000 0.26870  0.78130  0.46390  Biso   1.000  H
  H19      1.0000 0.73130  0.28130  0.03610  Biso   1.000  H
  H20      1.0000 0.76870  0.71870  0.53610  Biso   1.000  H
  H21      1.0000 0.13600  0.05170  0.98790  Biso   1.000  H
  H22      1.0000 0.36400  0.94830  0.48790  Biso   1.000  H
  H23      1.0000 0.63600  0.44830  0.01210  Biso   1.000  H
  H24      1.0000 0.86400  0.55170  0.51210  Biso   1.000  H
  C33      1.0000 0.26120  0.95970  0.92202  Biso   1.000  C
  C34      1.0000 0.23880  0.04030  0.42202  Biso   1.000  C
  C35      1.0000 0.76120  0.54030  0.07798  Biso   1.000  C
  C36      1.0000 0.73880  0.45970  0.57798  Biso   1.000  C
  H25      1.0000 0.23570  0.82560  0.92940  Biso   1.000  H
  H26      1.0000 0.26430  0.17440  0.42940  Biso   1.000  H
  H27      1.0000 0.73570  0.67440  0.07060  Biso   1.000  H
  H28      1.0000 0.76430  0.32560  0.57060  Biso   1.000  H
  H29      1.0000 0.20810  0.00520  0.88920  Biso   1.000  H
  H30      1.0000 0.29190  0.99480  0.38920  Biso   1.000  H
  H31      1.0000 0.70810  0.49480  0.11080  Biso   1.000  H
  H32      1.0000 0.79190  0.50520  0.61080  Biso   1.000  H
  C37      1.0000 0.45120  0.15550  0.87881  Biso   1.000  C
  C38      1.0000 0.04880  0.84450  0.37881  Biso   1.000  C
  C39      1.0000 0.95120  0.34450  0.12119  Biso   1.000  C
  C40      1.0000 0.54880  0.65550  0.62119  Biso   1.000  C
  H33      1.0000 0.55130  0.16820  0.87890  Biso   1.000  H
  H34      1.0000 0.94870  0.83180  0.37890  Biso   1.000  H
  H35      1.0000 0.05130  0.33180  0.12110  Biso   1.000  H
  H36      1.0000 0.44870  0.66820  0.62110  Biso   1.000  H
  H37      1.0000 0.41330  0.26440  0.90020  Biso   1.000  H
  H38      1.0000 0.08670  0.73560  0.40020  Biso   1.000  H
  H39      1.0000 0.91330  0.23560  0.09980  Biso   1.000  H
  H40      1.0000 0.58670  0.76440  0.59980  Biso   1.000  H
  C41      1.0000 0.40010  0.16530  0.81741  Biso   1.000  C
  C42      1.0000 0.09990  0.83470  0.31741  Biso   1.000  C
  C43      1.0000 0.90010  0.33470  0.18259  Biso   1.000  C
  C44      1.0000 0.59990  0.66530  0.68259  Biso   1.000  C
  H41      1.0000 0.29970  0.16670  0.81720  Biso   1.000  H
  H42      1.0000 0.20030  0.83330  0.31720  Biso   1.000  H
  H43      1.0000 0.79970  0.33330  0.18280  Biso   1.000  H
  H44      1.0000 0.70030  0.66670  0.68280  Biso   1.000  H
  H45      1.0000 0.43210  0.28510  0.79980  Biso   1.000  H
  H46      1.0000 0.06790  0.71490  0.29980  Biso   1.000  H
  H47      1.0000 0.93210  0.21490  0.20020  Biso   1.000  H
  H48      1.0000 0.56790  0.78510  0.70020  Biso   1.000  H
  C45      1.0000 0.40380  0.82770  0.81012  Biso   1.000  C
  C46      1.0000 0.09620  0.17230  0.31012  Biso   1.000  C
  C47      1.0000 0.90380  0.67230  0.18988  Biso   1.000  C
  C48      1.0000 0.59620  0.32770  0.68988  Biso   1.000  C
  H49      1.0000 0.43690  0.71910  0.78730  Biso   1.000  H
  H50      1.0000 0.06310  0.28090  0.28730  Biso   1.000  H
  H51      1.0000 0.93690  0.78090  0.21270  Biso   1.000  H
  H52      1.0000 0.56310  0.21910  0.71270  Biso   1.000  H
  H53      1.0000 0.30340  0.82320  0.81050  Biso   1.000  H
  H54      1.0000 0.19660  0.17680  0.31050  Biso   1.000  H
  H55      1.0000 0.80340  0.67680  0.18950  Biso   1.000  H
  H56      1.0000 0.69660  0.32320  0.68950  Biso   1.000  H
  C49      1.0000 0.45770  0.80960  0.87101  Biso   1.000  C
  C50      1.0000 0.04230  0.19040  0.37101  Biso   1.000  C
  C51      1.0000 0.95770  0.69040  0.12899  Biso   1.000  C
  C52      1.0000 0.54230  0.30960  0.62899  Biso   1.000  C
  H57      1.0000 0.42560  0.68780  0.88730  Biso   1.000  H
  H58      1.0000 0.07440  0.31220  0.38730  Biso   1.000  H
  H59      1.0000 0.92560  0.81220  0.11270  Biso   1.000  H
  H60      1.0000 0.57440  0.18780  0.61270  Biso   1.000  H
  H61      1.0000 0.55810  0.80610  0.87010  Biso   1.000  H
  H62      1.0000 0.94190  0.19390  0.37010  Biso   1.000  H
  H63      1.0000 0.05810  0.69390  0.12990  Biso   1.000  H
  H64      1.0000 0.44190  0.30610  0.62990  Biso   1.000  H
  C53      1.0000 0.60000  0.00830  0.31879  Biso   1.000  C
  C54      1.0000 0.90000  0.99170  0.81879  Biso   1.000  C
  C55      1.0000 0.10000  0.49170  0.68121  Biso   1.000  C
  C56      1.0000 0.40000  0.50830  0.18121  Biso   1.000  C
  H65      1.0000 0.54080  0.11950  0.32310  Biso   1.000  H
  H66      1.0000 0.95920  0.88050  0.82310  Biso   1.000  H
  H67      1.0000 0.04080  0.38050  0.67690  Biso   1.000  H
  H68      1.0000 0.45920  0.61950  0.17690  Biso   1.000  H
  H69      1.0000 0.67580  0.01760  0.34540  Biso   1.000  H
  H70      1.0000 0.82420  0.98240  0.84540  Biso   1.000  H
  H71      1.0000 0.17580  0.48240  0.65460  Biso   1.000  H
  H72      1.0000 0.32420  0.51760  0.15460  Biso   1.000  H
  H73      1.0000 0.54810  0.89210  0.32650  Biso   1.000  H
  H74      1.0000 0.95190  0.10790  0.82650  Biso   1.000  H
  H75      1.0000 0.04810  0.60790  0.67350  Biso   1.000  H
  H76      1.0000 0.45190  0.39210  0.17350  Biso   1.000  H
