data_image0
_cell_length_a       10.043
_cell_length_b       31.429
_cell_length_c       11.821
_cell_angle_alpha    90
_cell_angle_beta     92.98
_cell_angle_gamma    90

_symmetry_space_group_name_H-M    "P 1"
_symmetry_int_tables_number       1

loop_
  _symmetry_equiv_pos_as_xyz
  'x, y, z'

loop_
  _atom_site_label
  _atom_site_occupancy
  _atom_site_fract_x
  _atom_site_fract_y
  _atom_site_fract_z
  _atom_site_thermal_displace_type
  _atom_site_B_iso_or_equiv
  _atom_site_type_symbol
  Cu1      1.0000 0.33025  0.87446  0.30486  Biso   1.000  Cu
  Cu2      1.0000 0.16975  0.37446  0.19514  Biso   1.000  Cu
  Cu3      1.0000 0.66975  0.12554  0.69514  Biso   1.000  Cu
  Cu4      1.0000 0.83025  0.62554  0.80486  Biso   1.000  Cu
  Cu5      1.0000 0.18025  0.12232  0.26130  Biso   1.000  Cu
  Cu6      1.0000 0.31975  0.62232  0.23870  Biso   1.000  Cu
  Cu7      1.0000 0.81975  0.87768  0.73870  Biso   1.000  Cu
  Cu8      1.0000 0.68025  0.37768  0.76130  Biso   1.000  Cu
  O1       1.0000 0.40400  0.91783  0.21210  Biso   1.000  O
  O2       1.0000 0.09600  0.41783  0.28790  Biso   1.000  O
  O3       1.0000 0.59600  0.08217  0.78790  Biso   1.000  O
  O4       1.0000 0.90400  0.58217  0.71210  Biso   1.000  O
  O5       1.0000 0.12170  0.87952  0.19390  Biso   1.000  O
  O6       1.0000 0.37830  0.37952  0.30610  Biso   1.000  O
  O7       1.0000 0.87830  0.12048  0.80610  Biso   1.000  O
  O8       1.0000 0.62170  0.62048  0.69390  Biso   1.000  O
  H1       1.0000 0.07390  0.89800  0.25120  Biso   1.000  H
  H2       1.0000 0.42610  0.39800  0.24880  Biso   1.000  H
  H3       1.0000 0.92610  0.10200  0.74880  Biso   1.000  H
  H4       1.0000 0.57390  0.60200  0.75120  Biso   1.000  H
  H5       1.0000 0.12540  0.89290  0.10940  Biso   1.000  H
  H6       1.0000 0.37460  0.39290  0.39060  Biso   1.000  H
  H7       1.0000 0.87460  0.10710  0.89060  Biso   1.000  H
  H8       1.0000 0.62540  0.60710  0.60940  Biso   1.000  H
  O9       1.0000 0.27090  0.91500  0.41000  Biso   1.000  O
  O10      1.0000 0.22910  0.41500  0.09000  Biso   1.000  O
  O11      1.0000 0.72910  0.08500  0.59000  Biso   1.000  O
  O12      1.0000 0.77090  0.58500  0.91000  Biso   1.000  O
  O13      1.0000 0.54900  0.86497  0.43710  Biso   1.000  O
  O14      1.0000 0.95100  0.36497  0.06290  Biso   1.000  O
  O15      1.0000 0.45100  0.13503  0.56290  Biso   1.000  O
  O16      1.0000 0.04900  0.63503  0.93710  Biso   1.000  O
  H9       1.0000 0.62940  0.86840  0.38050  Biso   1.000  H
  H10      1.0000 0.87060  0.36840  0.11950  Biso   1.000  H
  H11      1.0000 0.37060  0.13160  0.61950  Biso   1.000  H
  H12      1.0000 0.12940  0.63160  0.88050  Biso   1.000  H
  H13      1.0000 0.57880  0.86680  0.51250  Biso   1.000  H
  H14      1.0000 0.92120  0.36680  0.98750  Biso   1.000  H
  H15      1.0000 0.42120  0.13320  0.48750  Biso   1.000  H
  H16      1.0000 0.07880  0.63320  0.01250  Biso   1.000  H
  O17      1.0000 0.10140  0.07201  0.19700  Biso   1.000  O
  O18      1.0000 0.39860  0.57201  0.30300  Biso   1.000  O
  O19      1.0000 0.89860  0.92799  0.80300  Biso   1.000  O
  O20      1.0000 0.60140  0.42799  0.69700  Biso   1.000  O
  O21      1.0000 0.00680  0.11553  0.40380  Biso   1.000  O
  O22      1.0000 0.49320  0.61553  0.09620  Biso   1.000  O
  O23      1.0000 0.99320  0.88447  0.59620  Biso   1.000  O
  O24      1.0000 0.50680  0.38447  0.90380  Biso   1.000  O
  H17      1.0000 0.00830  0.11360  0.49550  Biso   1.000  H
  H18      1.0000 0.49170  0.61360  0.00450  Biso   1.000  H
  H19      1.0000 0.99170  0.88640  0.50450  Biso   1.000  H
  H20      1.0000 0.50830  0.38640  0.99550  Biso   1.000  H
  H21      1.0000 0.93290  0.10020  0.41410  Biso   1.000  H
  H22      1.0000 0.56710  0.60020  0.08590  Biso   1.000  H
  H23      1.0000 0.06710  0.89980  0.58590  Biso   1.000  H
  H24      1.0000 0.43290  0.39980  0.91410  Biso   1.000  H
  O25      1.0000 0.31430  0.09264  0.34880  Biso   1.000  O
  O26      1.0000 0.18570  0.59264  0.15120  Biso   1.000  O
  O27      1.0000 0.68570  0.90736  0.65120  Biso   1.000  O
  O28      1.0000 0.81430  0.40736  0.84880  Biso   1.000  O
  O29      1.0000 0.35960  0.11574  0.10850  Biso   1.000  O
  O30      1.0000 0.14040  0.61574  0.39150  Biso   1.000  O
  O31      1.0000 0.64040  0.88426  0.89150  Biso   1.000  O
  O32      1.0000 0.85960  0.38426  0.60850  Biso   1.000  O
  H25      1.0000 0.34670  0.11460  0.01470  Biso   1.000  H
  H26      1.0000 0.15330  0.61460  0.48530  Biso   1.000  H
  H27      1.0000 0.65330  0.88540  0.98530  Biso   1.000  H
  H28      1.0000 0.84670  0.38540  0.51470  Biso   1.000  H
  H29      1.0000 0.39730  0.13330  0.10110  Biso   1.000  H
  H30      1.0000 0.10270  0.63330  0.39890  Biso   1.000  H
  H31      1.0000 0.60270  0.86670  0.89890  Biso   1.000  H
  H32      1.0000 0.89730  0.36670  0.60110  Biso   1.000  H
  N1       1.0000 0.41510  0.82986  0.20740  Biso   1.000  N
  N2       1.0000 0.08490  0.32986  0.29260  Biso   1.000  N
  N3       1.0000 0.58490  0.17014  0.79260  Biso   1.000  N
  N4       1.0000 0.91510  0.67014  0.70740  Biso   1.000  N
  N5       1.0000 0.73970  0.67104  0.89670  Biso   1.000  N
  N6       1.0000 0.76030  0.17104  0.60330  Biso   1.000  N
  N7       1.0000 0.26030  0.32896  0.10330  Biso   1.000  N
  N8       1.0000 0.23970  0.82896  0.39670  Biso   1.000  N
  N9       1.0000 0.25530  0.17478  0.33710  Biso   1.000  N
  N10      1.0000 0.24470  0.67478  0.16290  Biso   1.000  N
  N11      1.0000 0.74470  0.82522  0.66290  Biso   1.000  N
  N12      1.0000 0.75530  0.32522  0.83710  Biso   1.000  N
  N13      1.0000 0.57080  0.34065  0.65370  Biso   1.000  N
  N14      1.0000 0.92920  0.84065  0.84630  Biso   1.000  N
  N15      1.0000 0.42920  0.65935  0.34630  Biso   1.000  N
  N16      1.0000 0.07080  0.15935  0.15370  Biso   1.000  N
  C1       1.0000 0.41700  0.98310  0.11720  Biso   1.000  C
  C2       1.0000 0.08300  0.48310  0.38280  Biso   1.000  C
  C3       1.0000 0.58300  0.01690  0.88280  Biso   1.000  C
  C4       1.0000 0.91700  0.51690  0.61720  Biso   1.000  C
  H33      1.0000 0.48750  0.00140  0.14580  Biso   1.000  H
  H34      1.0000 0.01250  0.50140  0.35420  Biso   1.000  H
  H35      1.0000 0.51250  0.99860  0.85420  Biso   1.000  H
  H36      1.0000 0.98750  0.49860  0.64580  Biso   1.000  H
  H37      1.0000 0.34530  0.00010  0.08460  Biso   1.000  H
  H38      1.0000 0.15470  0.50010  0.41540  Biso   1.000  H
  H39      1.0000 0.65470  0.99990  0.91540  Biso   1.000  H
  H40      1.0000 0.84530  0.49990  0.58460  Biso   1.000  H
  H41      1.0000 0.45000  0.96460  0.06030  Biso   1.000  H
  H42      1.0000 0.05000  0.46460  0.43970  Biso   1.000  H
  H43      1.0000 0.55000  0.03540  0.93970  Biso   1.000  H
  H44      1.0000 0.95000  0.53540  0.56030  Biso   1.000  H
  C5       1.0000 0.36790  0.95730  0.21070  Biso   1.000  C
  C6       1.0000 0.13210  0.45730  0.28930  Biso   1.000  C
  C7       1.0000 0.63210  0.04270  0.78930  Biso   1.000  C
  C8       1.0000 0.86790  0.54270  0.71070  Biso   1.000  C
  C9       1.0000 0.29460  0.97630  0.29500  Biso   1.000  C
  C10      1.0000 0.20540  0.47630  0.20500  Biso   1.000  C
  C11      1.0000 0.70540  0.02370  0.70500  Biso   1.000  C
  C12      1.0000 0.79460  0.52370  0.79500  Biso   1.000  C
  C13      1.0000 0.25240  0.95440  0.38830  Biso   1.000  C
  C14      1.0000 0.24760  0.45440  0.11170  Biso   1.000  C
  C15      1.0000 0.74760  0.04560  0.61170  Biso   1.000  C
  C16      1.0000 0.75240  0.54560  0.88830  Biso   1.000  C
  C17      1.0000 0.17550  0.97770  0.47660  Biso   1.000  C
  C18      1.0000 0.32450  0.47770  0.02340  Biso   1.000  C
  C19      1.0000 0.82450  0.02230  0.52340  Biso   1.000  C
  C20      1.0000 0.67550  0.52230  0.97660  Biso   1.000  C
  H45      1.0000 0.08640  0.98320  0.44700  Biso   1.000  H
  H46      1.0000 0.41360  0.48320  0.05300  Biso   1.000  H
  H47      1.0000 0.91360  0.01680  0.55300  Biso   1.000  H
  H48      1.0000 0.58640  0.51680  0.94700  Biso   1.000  H
  H49      1.0000 0.21920  0.00410  0.49530  Biso   1.000  H
  H50      1.0000 0.28080  0.50410  0.00470  Biso   1.000  H
  H51      1.0000 0.78080  0.99590  0.50470  Biso   1.000  H
  H52      1.0000 0.71920  0.49590  0.99530  Biso   1.000  H
  H53      1.0000 0.17240  0.96040  0.54350  Biso   1.000  H
  H54      1.0000 0.32760  0.46040  0.95650  Biso   1.000  H
  H55      1.0000 0.82760  0.03960  0.45650  Biso   1.000  H
  H56      1.0000 0.67240  0.53960  0.04350  Biso   1.000  H
  C21      1.0000 0.05600  0.99930  0.16760  Biso   1.000  C
  C22      1.0000 0.44400  0.49930  0.33240  Biso   1.000  C
  C23      1.0000 0.94400  0.00070  0.83240  Biso   1.000  C
  C24      1.0000 0.55600  0.50070  0.66760  Biso   1.000  C
  H57      1.0000 0.97520  0.01130  0.13420  Biso   1.000  H
  H58      1.0000 0.52480  0.51130  0.36580  Biso   1.000  H
  H59      1.0000 0.02480  0.98870  0.86580  Biso   1.000  H
  H60      1.0000 0.47520  0.48870  0.63420  Biso   1.000  H
  H61      1.0000 0.03460  0.97960  0.22590  Biso   1.000  H
  H62      1.0000 0.46540  0.47960  0.27410  Biso   1.000  H
  H63      1.0000 0.96540  0.02040  0.77410  Biso   1.000  H
  H64      1.0000 0.53460  0.52040  0.72590  Biso   1.000  H
  H65      1.0000 0.10300  0.98480  0.11050  Biso   1.000  H
  H66      1.0000 0.39700  0.48480  0.38950  Biso   1.000  H
  H67      1.0000 0.89700  0.01520  0.88950  Biso   1.000  H
  H68      1.0000 0.60300  0.51520  0.61050  Biso   1.000  H
  C25      1.0000 0.14220  0.03440  0.21800  Biso   1.000  C
  C26      1.0000 0.35780  0.53440  0.28200  Biso   1.000  C
  C27      1.0000 0.85780  0.96560  0.78200  Biso   1.000  C
  C28      1.0000 0.64220  0.46560  0.71800  Biso   1.000  C
  C29      1.0000 0.25990  0.02290  0.28230  Biso   1.000  C
  C30      1.0000 0.24010  0.52290  0.21770  Biso   1.000  C
  C31      1.0000 0.74010  0.97710  0.71770  Biso   1.000  C
  C32      1.0000 0.75990  0.47710  0.78230  Biso   1.000  C
  C33      1.0000 0.34000  0.05310  0.33920  Biso   1.000  C
  C34      1.0000 0.16000  0.55310  0.16080  Biso   1.000  C
  C35      1.0000 0.66000  0.94690  0.66080  Biso   1.000  C
  C36      1.0000 0.84000  0.44690  0.83920  Biso   1.000  C
  C37      1.0000 0.47180  0.04090  0.39870  Biso   1.000  C
  C38      1.0000 0.02820  0.54090  0.10130  Biso   1.000  C
  C39      1.0000 0.52820  0.95910  0.60130  Biso   1.000  C
  C40      1.0000 0.97180  0.45910  0.89870  Biso   1.000  C
  H69      1.0000 0.53470  0.06360  0.39130  Biso   1.000  H
  H70      1.0000 0.96530  0.56360  0.10870  Biso   1.000  H
  H71      1.0000 0.46530  0.93640  0.60870  Biso   1.000  H
  H72      1.0000 0.03470  0.43640  0.89130  Biso   1.000  H
  H73      1.0000 0.50520  0.01550  0.36500  Biso   1.000  H
  H74      1.0000 0.99480  0.51550  0.13500  Biso   1.000  H
  H75      1.0000 0.49480  0.98450  0.63500  Biso   1.000  H
  H76      1.0000 0.00520  0.48450  0.86500  Biso   1.000  H
  H77      1.0000 0.45890  0.03580  0.47750  Biso   1.000  H
  H78      1.0000 0.04110  0.53580  0.02250  Biso   1.000  H
  H79      1.0000 0.54110  0.96420  0.52250  Biso   1.000  H
  H80      1.0000 0.95890  0.46420  0.97750  Biso   1.000  H
  C41      1.0000 0.43000  0.83450  0.09790  Biso   1.000  C
  C42      1.0000 0.07000  0.33450  0.40210  Biso   1.000  C
  C43      1.0000 0.57000  0.16550  0.90210  Biso   1.000  C
  C44      1.0000 0.93000  0.66550  0.59790  Biso   1.000  C
  H81      1.0000 0.39670  0.85890  0.06260  Biso   1.000  H
  H82      1.0000 0.10330  0.35890  0.43740  Biso   1.000  H
  H83      1.0000 0.60330  0.14110  0.93740  Biso   1.000  H
  H84      1.0000 0.89670  0.64110  0.56260  Biso   1.000  H
  C45      1.0000 0.49350  0.80440  0.03250  Biso   1.000  C
  C46      1.0000 0.00650  0.30440  0.46750  Biso   1.000  C
  C47      1.0000 0.50650  0.19560  0.96750  Biso   1.000  C
  C48      1.0000 0.99350  0.69560  0.53250  Biso   1.000  C
  H85      1.0000 0.50180  0.80900  0.95550  Biso   1.000  H
  H86      1.0000 0.99820  0.30900  0.54450  Biso   1.000  H
  H87      1.0000 0.49820  0.19100  0.04450  Biso   1.000  H
  H88      1.0000 0.00180  0.69100  0.45550  Biso   1.000  H
  C49      1.0000 0.54400  0.76750  0.08310  Biso   1.000  C
  C50      1.0000 0.95600  0.26750  0.41690  Biso   1.000  C
  C51      1.0000 0.45600  0.23250  0.91690  Biso   1.000  C
  C52      1.0000 0.04400  0.73250  0.58310  Biso   1.000  C
  C53      1.0000 0.52800  0.76290  0.19890  Biso   1.000  C
  C54      1.0000 0.97200  0.26290  0.30110  Biso   1.000  C
  C55      1.0000 0.47200  0.23710  0.80110  Biso   1.000  C
  C56      1.0000 0.02800  0.73710  0.69890  Biso   1.000  C
  H89      1.0000 0.55940  0.73860  0.23650  Biso   1.000  H
  H90      1.0000 0.94060  0.23860  0.26350  Biso   1.000  H
  H91      1.0000 0.44060  0.26140  0.76350  Biso   1.000  H
  H92      1.0000 0.05940  0.76140  0.73650  Biso   1.000  H
  C57      1.0000 0.46570  0.79440  0.25720  Biso   1.000  C
  C58      1.0000 0.03430  0.29440  0.24280  Biso   1.000  C
  C59      1.0000 0.53430  0.20560  0.74280  Biso   1.000  C
  C60      1.0000 0.96570  0.70560  0.75720  Biso   1.000  C
  H93      1.0000 0.45810  0.79100  0.33480  Biso   1.000  H
  H94      1.0000 0.04190  0.29100  0.16520  Biso   1.000  H
  H95      1.0000 0.54190  0.20900  0.66520  Biso   1.000  H
  H96      1.0000 0.95810  0.70900  0.83480  Biso   1.000  H
  C61      1.0000 0.61200  0.73390  0.01850  Biso   1.000  C
  C62      1.0000 0.88800  0.23390  0.48150  Biso   1.000  C
  C63      1.0000 0.38800  0.26610  0.98150  Biso   1.000  C
  C64      1.0000 0.11200  0.76610  0.51850  Biso   1.000  C
  C65      1.0000 0.59160  0.73040  0.90390  Biso   1.000  C
  C66      1.0000 0.90840  0.23040  0.59610  Biso   1.000  C
  C67      1.0000 0.40840  0.26960  0.09610  Biso   1.000  C
  C68      1.0000 0.09160  0.76960  0.40390  Biso   1.000  C
  H97      1.0000 0.53410  0.74920  0.86500  Biso   1.000  H
  H98      1.0000 0.96590  0.24920  0.63500  Biso   1.000  H
  H99      1.0000 0.46590  0.25080  0.13500  Biso   1.000  H
  H100     1.0000 0.03410  0.75080  0.36500  Biso   1.000  H
  C69      1.0000 0.65620  0.69930  0.84580  Biso   1.000  C
  C70      1.0000 0.84380  0.19930  0.65420  Biso   1.000  C
  C71      1.0000 0.34380  0.30070  0.15420  Biso   1.000  C
  C72      1.0000 0.15620  0.80070  0.34580  Biso   1.000  C
  H101     1.0000 0.64120  0.69770  0.76760  Biso   1.000  H
  H102     1.0000 0.85880  0.19770  0.73240  Biso   1.000  H
  H103     1.0000 0.35880  0.30230  0.23240  Biso   1.000  H
  H104     1.0000 0.14120  0.80230  0.26760  Biso   1.000  H
  C73      1.0000 0.75720  0.67360  0.00800  Biso   1.000  C
  C74      1.0000 0.74280  0.17360  0.49200  Biso   1.000  C
  C75      1.0000 0.24280  0.32640  0.99200  Biso   1.000  C
  C76      1.0000 0.25720  0.82640  0.50800  Biso   1.000  C
  H105     1.0000 0.81230  0.65360  0.04500  Biso   1.000  H
  H106     1.0000 0.68770  0.15360  0.45500  Biso   1.000  H
  H107     1.0000 0.18770  0.34640  0.95500  Biso   1.000  H
  H108     1.0000 0.31230  0.84640  0.54500  Biso   1.000  H
  C77      1.0000 0.69810  0.70440  0.07280  Biso   1.000  C
  C78      1.0000 0.80190  0.20440  0.42720  Biso   1.000  C
  C79      1.0000 0.30190  0.29560  0.92720  Biso   1.000  C
  C80      1.0000 0.19810  0.79560  0.57280  Biso   1.000  C
  H109     1.0000 0.71520  0.70540  0.15090  Biso   1.000  H
  H110     1.0000 0.78480  0.20540  0.34910  Biso   1.000  H
  H111     1.0000 0.28480  0.29460  0.84910  Biso   1.000  H
  H112     1.0000 0.21520  0.79460  0.65090  Biso   1.000  H
  C81      1.0000 0.37750  0.18960  0.31120  Biso   1.000  C
  C82      1.0000 0.12250  0.68960  0.18880  Biso   1.000  C
  C83      1.0000 0.62250  0.81040  0.68880  Biso   1.000  C
  C84      1.0000 0.87750  0.31040  0.81120  Biso   1.000  C
  H113     1.0000 0.42390  0.17580  0.25590  Biso   1.000  H
  H114     1.0000 0.07610  0.67580  0.24410  Biso   1.000  H
  H115     1.0000 0.57610  0.82420  0.74410  Biso   1.000  H
  H116     1.0000 0.92390  0.32420  0.75590  Biso   1.000  H
  C85      1.0000 0.43410  0.22460  0.36520  Biso   1.000  C
  C86      1.0000 0.06590  0.72460  0.13480  Biso   1.000  C
  C87      1.0000 0.56590  0.77540  0.63480  Biso   1.000  C
  C88      1.0000 0.93410  0.27540  0.86520  Biso   1.000  C
  H117     1.0000 0.51500  0.23500  0.34210  Biso   1.000  H
  H118     1.0000 0.98500  0.73500  0.15790  Biso   1.000  H
  H119     1.0000 0.48500  0.76500  0.65790  Biso   1.000  H
  H120     1.0000 0.01500  0.26500  0.84210  Biso   1.000  H
  C89      1.0000 0.37330  0.24440  0.45250  Biso   1.000  C
  C90      1.0000 0.12670  0.74440  0.04750  Biso   1.000  C
  C91      1.0000 0.62670  0.75560  0.54750  Biso   1.000  C
  C92      1.0000 0.87330  0.25560  0.95250  Biso   1.000  C
  C93      1.0000 0.25120  0.22780  0.48230  Biso   1.000  C
  C94      1.0000 0.24880  0.72780  0.01770  Biso   1.000  C
  C95      1.0000 0.74880  0.77220  0.51770  Biso   1.000  C
  C96      1.0000 0.75120  0.27220  0.98230  Biso   1.000  C
  H121     1.0000 0.20710  0.23920  0.54260  Biso   1.000  H
  H122     1.0000 0.29290  0.73920  0.95740  Biso   1.000  H
  H123     1.0000 0.79290  0.76080  0.45740  Biso   1.000  H
  H124     1.0000 0.70710  0.26080  0.04260  Biso   1.000  H
  C97      1.0000 0.19700  0.19390  0.41990  Biso   1.000  C
  C98      1.0000 0.30300  0.69390  0.08010  Biso   1.000  C
  C99      1.0000 0.80300  0.80610  0.58010  Biso   1.000  C
  C100     1.0000 0.69700  0.30610  0.91990  Biso   1.000  C
  H125     1.0000 0.11340  0.18410  0.43820  Biso   1.000  H
  H126     1.0000 0.38660  0.68410  0.06180  Biso   1.000  H
  H127     1.0000 0.88660  0.81590  0.56180  Biso   1.000  H
  H128     1.0000 0.61340  0.31590  0.93820  Biso   1.000  H
  C101     1.0000 0.43830  0.27930  0.51810  Biso   1.000  C
  C102     1.0000 0.06170  0.77930  0.98190  Biso   1.000  C
  C103     1.0000 0.56170  0.72070  0.48190  Biso   1.000  C
  C104     1.0000 0.93830  0.22070  0.01810  Biso   1.000  C
  C105     1.0000 0.57520  0.28530  0.51580  Biso   1.000  C
  C106     1.0000 0.92480  0.78530  0.98420  Biso   1.000  C
  C107     1.0000 0.42480  0.71470  0.48420  Biso   1.000  C
  C108     1.0000 0.07520  0.21470  0.01580  Biso   1.000  C
  H129     1.0000 0.62510  0.26900  0.46790  Biso   1.000  H
  H130     1.0000 0.87490  0.76900  0.03210  Biso   1.000  H
  H131     1.0000 0.37490  0.73100  0.53210  Biso   1.000  H
  H132     1.0000 0.12510  0.23100  0.96790  Biso   1.000  H
  C109     1.0000 0.63620  0.31530  0.58450  Biso   1.000  C
  C110     1.0000 0.86380  0.81530  0.91550  Biso   1.000  C
  C111     1.0000 0.36380  0.68470  0.41550  Biso   1.000  C
  C112     1.0000 0.13620  0.18470  0.08450  Biso   1.000  C
  H133     1.0000 0.72820  0.31830  0.58300  Biso   1.000  H
  H134     1.0000 0.77180  0.81830  0.91700  Biso   1.000  H
  H135     1.0000 0.27180  0.68170  0.41700  Biso   1.000  H
  H136     1.0000 0.22820  0.18170  0.08300  Biso   1.000  H
  C113     1.0000 0.43610  0.33620  0.65230  Biso   1.000  C
  C114     1.0000 0.06390  0.83620  0.84770  Biso   1.000  C
  C115     1.0000 0.56390  0.66380  0.34770  Biso   1.000  C
  C116     1.0000 0.93610  0.16380  0.15230  Biso   1.000  C
  H137     1.0000 0.38770  0.35380  0.69830  Biso   1.000  H
  H138     1.0000 0.11230  0.85380  0.80170  Biso   1.000  H
  H139     1.0000 0.61230  0.64620  0.30170  Biso   1.000  H
  H140     1.0000 0.88770  0.14620  0.19830  Biso   1.000  H
  C117     1.0000 0.36920  0.30670  0.58540  Biso   1.000  C
  C118     1.0000 0.13080  0.80670  0.91460  Biso   1.000  C
  C119     1.0000 0.63080  0.69330  0.41460  Biso   1.000  C
  C120     1.0000 0.86920  0.19330  0.08540  Biso   1.000  C
  H141     1.0000 0.27670  0.30510  0.58520  Biso   1.000  H
  H142     1.0000 0.22330  0.80510  0.91480  Biso   1.000  H
  H143     1.0000 0.72330  0.69490  0.41480  Biso   1.000  H
  H144     1.0000 0.77670  0.19490  0.08520  Biso   1.000  H
  O33      1.0000 0.22920  0.16684  0.84450  Biso   1.000  O
  O34      1.0000 0.27080  0.66684  0.65550  Biso   1.000  O
  O35      1.0000 0.77080  0.83316  0.15550  Biso   1.000  O
  O36      1.0000 0.72920  0.33316  0.34450  Biso   1.000  O
  O37      1.0000 0.20640  0.16388  0.66350  Biso   1.000  O
  O38      1.0000 0.29360  0.66388  0.83650  Biso   1.000  O
  O39      1.0000 0.79360  0.83612  0.33650  Biso   1.000  O
  O40      1.0000 0.70640  0.33612  0.16350  Biso   1.000  O
  O41      1.0000 0.17530  0.22372  0.74920  Biso   1.000  O
  O42      1.0000 0.32470  0.72372  0.75080  Biso   1.000  O
  O43      1.0000 0.82470  0.77628  0.25080  Biso   1.000  O
  O44      1.0000 0.67530  0.27628  0.24920  Biso   1.000  O
  N17      1.0000 0.20060  0.18420  0.75360  Biso   1.000  N
  N18      1.0000 0.29940  0.68420  0.74640  Biso   1.000  N
  N19      1.0000 0.79940  0.81580  0.24640  Biso   1.000  N
  N20      1.0000 0.70060  0.31580  0.25360  Biso   1.000  N
  O45      1.0000 0.77760  0.07903  0.27180  Biso   1.000  O
  O46      1.0000 0.72240  0.57903  0.22820  Biso   1.000  O
  O47      1.0000 0.22240  0.92097  0.72820  Biso   1.000  O
  O48      1.0000 0.27760  0.42097  0.77180  Biso   1.000  O
  O49      1.0000 0.62040  0.07774  0.14080  Biso   1.000  O
  O50      1.0000 0.87960  0.57774  0.35920  Biso   1.000  O
  O51      1.0000 0.37960  0.92226  0.85920  Biso   1.000  O
  O52      1.0000 0.12040  0.42226  0.64080  Biso   1.000  O
  O53      1.0000 0.64760  0.13391  0.24540  Biso   1.000  O
  O54      1.0000 0.85240  0.63391  0.25460  Biso   1.000  O
  O55      1.0000 0.35240  0.86609  0.75460  Biso   1.000  O
  O56      1.0000 0.14760  0.36609  0.74540  Biso   1.000  O
  N21      1.0000 0.68080  0.09720  0.22090  Biso   1.000  N
  N22      1.0000 0.81920  0.59720  0.27910  Biso   1.000  N
  N23      1.0000 0.31920  0.90280  0.77910  Biso   1.000  N
  N24      1.0000 0.18080  0.40280  0.72090  Biso   1.000  N
  O57      1.0000 0.33580  0.08615  0.87560  Biso   1.000  O
  O58      1.0000 0.16420  0.58615  0.62440  Biso   1.000  O
  O59      1.0000 0.66420  0.91385  0.12440  Biso   1.000  O
  O60      1.0000 0.83580  0.41385  0.37560  Biso   1.000  O
  H145     1.0000 0.40750  0.09350  0.84850  Biso   1.000  H
  H146     1.0000 0.09250  0.59350  0.65150  Biso   1.000  H
  H147     1.0000 0.59250  0.90650  0.15150  Biso   1.000  H
  H148     1.0000 0.90750  0.40650  0.34850  Biso   1.000  H
  H149     1.0000 0.28060  0.11790  0.84810  Biso   1.000  H
  H150     1.0000 0.21940  0.61790  0.65190  Biso   1.000  H
  H151     1.0000 0.71940  0.88210  0.15190  Biso   1.000  H
  H152     1.0000 0.78060  0.38210  0.34810  Biso   1.000  H
  O61      1.0000 0.06920  0.08718  0.63760  Biso   1.000  O
  O62      1.0000 0.43080  0.58718  0.86240  Biso   1.000  O
  O63      1.0000 0.93080  0.91282  0.36240  Biso   1.000  O
  O64      1.0000 0.56920  0.41282  0.13760  Biso   1.000  O
  H153     1.0000 0.14700  0.07130  0.60080  Biso   1.000  H
  H154     1.0000 0.35300  0.57130  0.89920  Biso   1.000  H
  H155     1.0000 0.85300  0.92870  0.39920  Biso   1.000  H
  H156     1.0000 0.64700  0.42870  0.10080  Biso   1.000  H
  H157     1.0000 0.10960  0.11290  0.66940  Biso   1.000  H
  H158     1.0000 0.39040  0.61290  0.83060  Biso   1.000  H
  H159     1.0000 0.89040  0.88710  0.33060  Biso   1.000  H
  H160     1.0000 0.60960  0.38710  0.16940  Biso   1.000  H
  O65      1.0000 0.25080  0.02184  0.71990  Biso   1.000  O
  O66      1.0000 0.24920  0.52184  0.78010  Biso   1.000  O
  O67      1.0000 0.74920  0.97816  0.28010  Biso   1.000  O
  O68      1.0000 0.75080  0.47816  0.21990  Biso   1.000  O
  H161     1.0000 0.27150  0.02680  0.79910  Biso   1.000  H
  H162     1.0000 0.22850  0.52680  0.70090  Biso   1.000  H
  H163     1.0000 0.72850  0.97320  0.20090  Biso   1.000  H
  H164     1.0000 0.77150  0.47320  0.29910  Biso   1.000  H
  H165     1.0000 0.22520  0.99160  0.74240  Biso   1.000  H
  H166     1.0000 0.27480  0.49160  0.75760  Biso   1.000  H
  H167     1.0000 0.77480  0.00840  0.25760  Biso   1.000  H
  H168     1.0000 0.72520  0.50840  0.24240  Biso   1.000  H
  O69      1.0000 0.87150  0.07948  0.01630  Biso   1.000  O
  O70      1.0000 0.62850  0.57948  0.48370  Biso   1.000  O
  O71      1.0000 0.12850  0.92052  0.98370  Biso   1.000  O
  O72      1.0000 0.37150  0.42052  0.51630  Biso   1.000  O
  H169     1.0000 0.79280  0.07560  0.06030  Biso   1.000  H
  H170     1.0000 0.70720  0.57560  0.43970  Biso   1.000  H
  H171     1.0000 0.20720  0.92440  0.93970  Biso   1.000  H
  H172     1.0000 0.29280  0.42440  0.56030  Biso   1.000  H
  H173     1.0000 0.93590  0.07750  0.07610  Biso   1.000  H
  H174     1.0000 0.56410  0.57750  0.42390  Biso   1.000  H
  H175     1.0000 0.06410  0.92250  0.92390  Biso   1.000  H
  H176     1.0000 0.43590  0.42250  0.57610  Biso   1.000  H
