data_image0
_cell_length_a       21.435
_cell_length_b       21.435
_cell_length_c       11.382
_cell_angle_alpha    90
_cell_angle_beta     90
_cell_angle_gamma    90

_symmetry_space_group_name_H-M    "P 1"
_symmetry_int_tables_number       1

loop_
  _symmetry_equiv_pos_as_xyz
  'x, y, z'

loop_
  _atom_site_label
  _atom_site_occupancy
  _atom_site_fract_x
  _atom_site_fract_y
  _atom_site_fract_z
  _atom_site_thermal_displace_type
  _atom_site_B_iso_or_equiv
  _atom_site_type_symbol
  Cu1      1.0000 0.25000  0.93806  0.00000  Biso   1.000  Cu
  Cu2      1.0000 0.56194  0.25000  0.50000  Biso   1.000  Cu
  Cu3      1.0000 0.93806  0.25000  0.50000  Biso   1.000  Cu
  Cu4      1.0000 0.25000  0.56194  0.00000  Biso   1.000  Cu
  Cu5      1.0000 0.75000  0.06194  0.00000  Biso   1.000  Cu
  Cu6      1.0000 0.43806  0.75000  0.50000  Biso   1.000  Cu
  Cu7      1.0000 0.06194  0.75000  0.50000  Biso   1.000  Cu
  Cu8      1.0000 0.75000  0.43806  0.00000  Biso   1.000  Cu
  O1       1.0000 0.29870  0.87622  0.92070  Biso   1.000  O
  O2       1.0000 0.62378  0.29870  0.42070  Biso   1.000  O
  O3       1.0000 0.87622  0.20130  0.42070  Biso   1.000  O
  O4       1.0000 0.87622  0.29870  0.57930  Biso   1.000  O
  O5       1.0000 0.20130  0.62378  0.92070  Biso   1.000  O
  O6       1.0000 0.20130  0.87622  0.07930  Biso   1.000  O
  O7       1.0000 0.29870  0.62378  0.07930  Biso   1.000  O
  O8       1.0000 0.62378  0.20130  0.57930  Biso   1.000  O
  O9       1.0000 0.70130  0.12378  0.07930  Biso   1.000  O
  O10      1.0000 0.37622  0.70130  0.57930  Biso   1.000  O
  O11      1.0000 0.12378  0.79870  0.57930  Biso   1.000  O
  O12      1.0000 0.12378  0.70130  0.42070  Biso   1.000  O
  O13      1.0000 0.79870  0.37622  0.07930  Biso   1.000  O
  O14      1.0000 0.79870  0.12378  0.92070  Biso   1.000  O
  O15      1.0000 0.70130  0.37622  0.92070  Biso   1.000  O
  O16      1.0000 0.37622  0.79870  0.42070  Biso   1.000  O
  N1       1.0000 0.20240  0.00320  0.09000  Biso   1.000  N
  N2       1.0000 0.49680  0.20240  0.59000  Biso   1.000  N
  N3       1.0000 0.00320  0.29760  0.59000  Biso   1.000  N
  N4       1.0000 0.00320  0.20240  0.41000  Biso   1.000  N
  N5       1.0000 0.29760  0.49680  0.09000  Biso   1.000  N
  N6       1.0000 0.29760  0.00320  0.91000  Biso   1.000  N
  N7       1.0000 0.20240  0.49680  0.91000  Biso   1.000  N
  N8       1.0000 0.49680  0.29760  0.41000  Biso   1.000  N
  N9       1.0000 0.79760  0.99680  0.91000  Biso   1.000  N
  N10      1.0000 0.50320  0.79760  0.41000  Biso   1.000  N
  N11      1.0000 0.99680  0.70240  0.41000  Biso   1.000  N
  N12      1.0000 0.99680  0.79760  0.59000  Biso   1.000  N
  N13      1.0000 0.70240  0.50320  0.91000  Biso   1.000  N
  N14      1.0000 0.70240  0.99680  0.09000  Biso   1.000  N
  N15      1.0000 0.79760  0.50320  0.09000  Biso   1.000  N
  N16      1.0000 0.50320  0.70240  0.59000  Biso   1.000  N
  C1       1.0000 0.17600  0.05290  0.03790  Biso   1.000  C
  C2       1.0000 0.44710  0.17600  0.53790  Biso   1.000  C
  C3       1.0000 0.05290  0.32400  0.53790  Biso   1.000  C
  C4       1.0000 0.05290  0.17600  0.46210  Biso   1.000  C
  C5       1.0000 0.32400  0.44710  0.03790  Biso   1.000  C
  C6       1.0000 0.32400  0.05290  0.96210  Biso   1.000  C
  C7       1.0000 0.17600  0.44710  0.96210  Biso   1.000  C
  C8       1.0000 0.44710  0.32400  0.46210  Biso   1.000  C
  C9       1.0000 0.82400  0.94710  0.96210  Biso   1.000  C
  C10      1.0000 0.55290  0.82400  0.46210  Biso   1.000  C
  C11      1.0000 0.94710  0.67600  0.46210  Biso   1.000  C
  C12      1.0000 0.94710  0.82400  0.53790  Biso   1.000  C
  C13      1.0000 0.67600  0.55290  0.96210  Biso   1.000  C
  C14      1.0000 0.67600  0.94710  0.03790  Biso   1.000  C
  C15      1.0000 0.82400  0.55290  0.03790  Biso   1.000  C
  C16      1.0000 0.55290  0.67600  0.53790  Biso   1.000  C
  H1       1.0000 0.18280  0.05890  0.95810  Biso   1.000  H
  H2       1.0000 0.44110  0.18280  0.45810  Biso   1.000  H
  H3       1.0000 0.05890  0.31720  0.45810  Biso   1.000  H
  H4       1.0000 0.05890  0.18280  0.54190  Biso   1.000  H
  H5       1.0000 0.31720  0.44110  0.95810  Biso   1.000  H
  H6       1.0000 0.31720  0.05890  0.04190  Biso   1.000  H
  H7       1.0000 0.18280  0.44110  0.04190  Biso   1.000  H
  H8       1.0000 0.44110  0.31720  0.54190  Biso   1.000  H
  H9       1.0000 0.81720  0.94110  0.04190  Biso   1.000  H
  H10      1.0000 0.55890  0.81720  0.54190  Biso   1.000  H
  H11      1.0000 0.94110  0.68280  0.54190  Biso   1.000  H
  H12      1.0000 0.94110  0.81720  0.45810  Biso   1.000  H
  H13      1.0000 0.68280  0.55890  0.04190  Biso   1.000  H
  H14      1.0000 0.68280  0.94110  0.95810  Biso   1.000  H
  H15      1.0000 0.81720  0.55890  0.95810  Biso   1.000  H
  H16      1.0000 0.55890  0.68280  0.45810  Biso   1.000  H
  C17      1.0000 0.13950  0.09520  0.09690  Biso   1.000  C
  C18      1.0000 0.40480  0.13950  0.59690  Biso   1.000  C
  C19      1.0000 0.09520  0.36050  0.59690  Biso   1.000  C
  C20      1.0000 0.09520  0.13950  0.40310  Biso   1.000  C
  C21      1.0000 0.36050  0.40480  0.09690  Biso   1.000  C
  C22      1.0000 0.36050  0.09520  0.90310  Biso   1.000  C
  C23      1.0000 0.13950  0.40480  0.90310  Biso   1.000  C
  C24      1.0000 0.40480  0.36050  0.40310  Biso   1.000  C
  C25      1.0000 0.86050  0.90480  0.90310  Biso   1.000  C
  C26      1.0000 0.59520  0.86050  0.40310  Biso   1.000  C
  C27      1.0000 0.90480  0.63950  0.40310  Biso   1.000  C
  C28      1.0000 0.90480  0.86050  0.59690  Biso   1.000  C
  C29      1.0000 0.63950  0.59520  0.90310  Biso   1.000  C
  C30      1.0000 0.63950  0.90480  0.09690  Biso   1.000  C
  C31      1.0000 0.86050  0.59520  0.09690  Biso   1.000  C
  C32      1.0000 0.59520  0.63950  0.59690  Biso   1.000  C
  H17      1.0000 0.12270  0.12940  0.05790  Biso   1.000  H
  H18      1.0000 0.37060  0.12270  0.55790  Biso   1.000  H
  H19      1.0000 0.12940  0.37730  0.55790  Biso   1.000  H
  H20      1.0000 0.12940  0.12270  0.44210  Biso   1.000  H
  H21      1.0000 0.37730  0.37060  0.05790  Biso   1.000  H
  H22      1.0000 0.37730  0.12940  0.94210  Biso   1.000  H
  H23      1.0000 0.12270  0.37060  0.94210  Biso   1.000  H
  H24      1.0000 0.37060  0.37730  0.44210  Biso   1.000  H
  H25      1.0000 0.87730  0.87060  0.94210  Biso   1.000  H
  H26      1.0000 0.62940  0.87730  0.44210  Biso   1.000  H
  H27      1.0000 0.87060  0.62270  0.44210  Biso   1.000  H
  H28      1.0000 0.87060  0.87730  0.55790  Biso   1.000  H
  H29      1.0000 0.62270  0.62940  0.94210  Biso   1.000  H
  H30      1.0000 0.62270  0.87060  0.05790  Biso   1.000  H
  H31      1.0000 0.87730  0.62940  0.05790  Biso   1.000  H
  H32      1.0000 0.62940  0.62270  0.55790  Biso   1.000  H
  C33      1.0000 0.12780  0.08590  0.21620  Biso   1.000  C
  C34      1.0000 0.41410  0.12780  0.71620  Biso   1.000  C
  C35      1.0000 0.08590  0.37220  0.71620  Biso   1.000  C
  C36      1.0000 0.08590  0.12780  0.28380  Biso   1.000  C
  C37      1.0000 0.37220  0.41410  0.21620  Biso   1.000  C
  C38      1.0000 0.37220  0.08590  0.78380  Biso   1.000  C
  C39      1.0000 0.12780  0.41410  0.78380  Biso   1.000  C
  C40      1.0000 0.41410  0.37220  0.28380  Biso   1.000  C
  C41      1.0000 0.87220  0.91410  0.78380  Biso   1.000  C
  C42      1.0000 0.58590  0.87220  0.28380  Biso   1.000  C
  C43      1.0000 0.91410  0.62780  0.28380  Biso   1.000  C
  C44      1.0000 0.91410  0.87220  0.71620  Biso   1.000  C
  C45      1.0000 0.62780  0.58590  0.78380  Biso   1.000  C
  C46      1.0000 0.62780  0.91410  0.21620  Biso   1.000  C
  C47      1.0000 0.87220  0.58590  0.21620  Biso   1.000  C
  C48      1.0000 0.58590  0.62780  0.71620  Biso   1.000  C
  C49      1.0000 0.15560  0.03460  0.27120  Biso   1.000  C
  C50      1.0000 0.46540  0.15560  0.77120  Biso   1.000  C
  C51      1.0000 0.03460  0.34440  0.77120  Biso   1.000  C
  C52      1.0000 0.03460  0.15560  0.22880  Biso   1.000  C
  C53      1.0000 0.34440  0.46540  0.27120  Biso   1.000  C
  C54      1.0000 0.34440  0.03460  0.72880  Biso   1.000  C
  C55      1.0000 0.15560  0.46540  0.72880  Biso   1.000  C
  C56      1.0000 0.46540  0.34440  0.22880  Biso   1.000  C
  C57      1.0000 0.84440  0.96540  0.72880  Biso   1.000  C
  C58      1.0000 0.53460  0.84440  0.22880  Biso   1.000  C
  C59      1.0000 0.96540  0.65560  0.22880  Biso   1.000  C
  C60      1.0000 0.96540  0.84440  0.77120  Biso   1.000  C
  C61      1.0000 0.65560  0.53460  0.72880  Biso   1.000  C
  C62      1.0000 0.65560  0.96540  0.27120  Biso   1.000  C
  C63      1.0000 0.84440  0.53460  0.27120  Biso   1.000  C
  C64      1.0000 0.53460  0.65560  0.77120  Biso   1.000  C
  H33      1.0000 0.14970  0.02730  0.35090  Biso   1.000  H
  H34      1.0000 0.47270  0.14970  0.85090  Biso   1.000  H
  H35      1.0000 0.02730  0.35030  0.85090  Biso   1.000  H
  H36      1.0000 0.02730  0.14970  0.14910  Biso   1.000  H
  H37      1.0000 0.35030  0.47270  0.35090  Biso   1.000  H
  H38      1.0000 0.35030  0.02730  0.64910  Biso   1.000  H
  H39      1.0000 0.14970  0.47270  0.64910  Biso   1.000  H
  H40      1.0000 0.47270  0.35030  0.14910  Biso   1.000  H
  H41      1.0000 0.85030  0.97270  0.64910  Biso   1.000  H
  H42      1.0000 0.52730  0.85030  0.14910  Biso   1.000  H
  H43      1.0000 0.97270  0.64970  0.14910  Biso   1.000  H
  H44      1.0000 0.97270  0.85030  0.85090  Biso   1.000  H
  H45      1.0000 0.64970  0.52730  0.64910  Biso   1.000  H
  H46      1.0000 0.64970  0.97270  0.35090  Biso   1.000  H
  H47      1.0000 0.85030  0.52730  0.35090  Biso   1.000  H
  H48      1.0000 0.52730  0.64970  0.85090  Biso   1.000  H
  C65      1.0000 0.19200  0.99520  0.20430  Biso   1.000  C
  C66      1.0000 0.50480  0.19200  0.70430  Biso   1.000  C
  C67      1.0000 0.99520  0.30800  0.70430  Biso   1.000  C
  C68      1.0000 0.99520  0.19200  0.29570  Biso   1.000  C
  C69      1.0000 0.30800  0.50480  0.20430  Biso   1.000  C
  C70      1.0000 0.30800  0.99520  0.79570  Biso   1.000  C
  C71      1.0000 0.19200  0.50480  0.79570  Biso   1.000  C
  C72      1.0000 0.50480  0.30800  0.29570  Biso   1.000  C
  C73      1.0000 0.80800  0.00480  0.79570  Biso   1.000  C
  C74      1.0000 0.49520  0.80800  0.29570  Biso   1.000  C
  C75      1.0000 0.00480  0.69200  0.29570  Biso   1.000  C
  C76      1.0000 0.00480  0.80800  0.70430  Biso   1.000  C
  C77      1.0000 0.69200  0.49520  0.79570  Biso   1.000  C
  C78      1.0000 0.69200  0.00480  0.20430  Biso   1.000  C
  C79      1.0000 0.80800  0.49520  0.20430  Biso   1.000  C
  C80      1.0000 0.49520  0.69200  0.70430  Biso   1.000  C
  H49      1.0000 0.21020  0.96110  0.24110  Biso   1.000  H
  H50      1.0000 0.53890  0.21020  0.74110  Biso   1.000  H
  H51      1.0000 0.96110  0.28980  0.74110  Biso   1.000  H
  H52      1.0000 0.96110  0.21020  0.25890  Biso   1.000  H
  H53      1.0000 0.28980  0.53890  0.24110  Biso   1.000  H
  H54      1.0000 0.28980  0.96110  0.75890  Biso   1.000  H
  H55      1.0000 0.21020  0.53890  0.75890  Biso   1.000  H
  H56      1.0000 0.53890  0.28980  0.25890  Biso   1.000  H
  H57      1.0000 0.78980  0.03890  0.75890  Biso   1.000  H
  H58      1.0000 0.46110  0.78980  0.25890  Biso   1.000  H
  H59      1.0000 0.03890  0.71020  0.25890  Biso   1.000  H
  H60      1.0000 0.03890  0.78980  0.74110  Biso   1.000  H
  H61      1.0000 0.71020  0.46110  0.75890  Biso   1.000  H
  H62      1.0000 0.71020  0.03890  0.24110  Biso   1.000  H
  H63      1.0000 0.78980  0.46110  0.24110  Biso   1.000  H
  H64      1.0000 0.46110  0.71020  0.74110  Biso   1.000  H
  C81      1.0000 0.29340  0.81620  0.93140  Biso   1.000  C
  C82      1.0000 0.68380  0.29340  0.43140  Biso   1.000  C
  C83      1.0000 0.81620  0.20660  0.43140  Biso   1.000  C
  C84      1.0000 0.81620  0.29340  0.56860  Biso   1.000  C
  C85      1.0000 0.20660  0.68380  0.93140  Biso   1.000  C
  C86      1.0000 0.20660  0.81620  0.06860  Biso   1.000  C
  C87      1.0000 0.29340  0.68380  0.06860  Biso   1.000  C
  C88      1.0000 0.68380  0.20660  0.56860  Biso   1.000  C
  C89      1.0000 0.70660  0.18380  0.06860  Biso   1.000  C
  C90      1.0000 0.31620  0.70660  0.56860  Biso   1.000  C
  C91      1.0000 0.18380  0.79340  0.56860  Biso   1.000  C
  C92      1.0000 0.18380  0.70660  0.43140  Biso   1.000  C
  C93      1.0000 0.79340  0.31620  0.06860  Biso   1.000  C
  C94      1.0000 0.79340  0.18380  0.93140  Biso   1.000  C
  C95      1.0000 0.70660  0.31620  0.93140  Biso   1.000  C
  C96      1.0000 0.31620  0.79340  0.43140  Biso   1.000  C
  C97      1.0000 0.25000  0.78540  0.00000  Biso   1.000  C
  C98      1.0000 0.71460  0.25000  0.50000  Biso   1.000  C
  C99      1.0000 0.78540  0.25000  0.50000  Biso   1.000  C
  C100     1.0000 0.25000  0.71460  0.00000  Biso   1.000  C
  C101     1.0000 0.75000  0.21460  0.00000  Biso   1.000  C
  C102     1.0000 0.28540  0.75000  0.50000  Biso   1.000  C
  C103     1.0000 0.21460  0.75000  0.50000  Biso   1.000  C
  C104     1.0000 0.75000  0.28540  0.00000  Biso   1.000  C
  C105     1.0000 0.34130  0.78130  0.85820  Biso   1.000  C
  C106     1.0000 0.71870  0.34130  0.35820  Biso   1.000  C
  C107     1.0000 0.78130  0.15870  0.35820  Biso   1.000  C
  C108     1.0000 0.78130  0.34130  0.64180  Biso   1.000  C
  C109     1.0000 0.15870  0.71870  0.85820  Biso   1.000  C
  C110     1.0000 0.15870  0.78130  0.14180  Biso   1.000  C
  C111     1.0000 0.34130  0.71870  0.14180  Biso   1.000  C
  C112     1.0000 0.71870  0.15870  0.64180  Biso   1.000  C
  C113     1.0000 0.65870  0.21870  0.14180  Biso   1.000  C
  C114     1.0000 0.28130  0.65870  0.64180  Biso   1.000  C
  C115     1.0000 0.21870  0.84130  0.64180  Biso   1.000  C
  C116     1.0000 0.21870  0.65870  0.35820  Biso   1.000  C
  C117     1.0000 0.84130  0.28130  0.14180  Biso   1.000  C
  C118     1.0000 0.84130  0.21870  0.85820  Biso   1.000  C
  C119     1.0000 0.65870  0.28130  0.85820  Biso   1.000  C
  C120     1.0000 0.28130  0.84130  0.35820  Biso   1.000  C
  H65      1.0000 0.35060  0.80480  0.78870  Biso   1.000  H
  H66      1.0000 0.69520  0.35060  0.28870  Biso   1.000  H
  H67      1.0000 0.80480  0.14940  0.28870  Biso   1.000  H
  H68      1.0000 0.80480  0.35060  0.71130  Biso   1.000  H
  H69      1.0000 0.14940  0.69520  0.78870  Biso   1.000  H
  H70      1.0000 0.14940  0.80480  0.21130  Biso   1.000  H
  H71      1.0000 0.35060  0.69520  0.21130  Biso   1.000  H
  H72      1.0000 0.69520  0.14940  0.71130  Biso   1.000  H
  H73      1.0000 0.64940  0.19520  0.21130  Biso   1.000  H
  H74      1.0000 0.30480  0.64940  0.71130  Biso   1.000  H
  H75      1.0000 0.19520  0.85060  0.71130  Biso   1.000  H
  H76      1.0000 0.19520  0.64940  0.28870  Biso   1.000  H
  H77      1.0000 0.85060  0.30480  0.21130  Biso   1.000  H
  H78      1.0000 0.85060  0.19520  0.78870  Biso   1.000  H
  H79      1.0000 0.64940  0.30480  0.78870  Biso   1.000  H
  H80      1.0000 0.30480  0.85060  0.28870  Biso   1.000  H
  H81      1.0000 0.32490  0.74120  0.83640  Biso   1.000  H
  H82      1.0000 0.75880  0.32490  0.33640  Biso   1.000  H
  H83      1.0000 0.74120  0.17510  0.33640  Biso   1.000  H
  H84      1.0000 0.74120  0.32490  0.66360  Biso   1.000  H
  H85      1.0000 0.17510  0.75880  0.83640  Biso   1.000  H
  H86      1.0000 0.17510  0.74120  0.16360  Biso   1.000  H
  H87      1.0000 0.32490  0.75880  0.16360  Biso   1.000  H
  H88      1.0000 0.75880  0.17510  0.66360  Biso   1.000  H
  H89      1.0000 0.67510  0.25880  0.16360  Biso   1.000  H
  H90      1.0000 0.24120  0.67510  0.66360  Biso   1.000  H
  H91      1.0000 0.25880  0.82490  0.66360  Biso   1.000  H
  H92      1.0000 0.25880  0.67510  0.33640  Biso   1.000  H
  H93      1.0000 0.82490  0.24120  0.16360  Biso   1.000  H
  H94      1.0000 0.82490  0.25880  0.83640  Biso   1.000  H
  H95      1.0000 0.67510  0.24120  0.83640  Biso   1.000  H
  H96      1.0000 0.24120  0.82490  0.33640  Biso   1.000  H
  H97      1.0000 0.37880  0.77560  0.90330  Biso   1.000  H
  H98      1.0000 0.72440  0.37880  0.40330  Biso   1.000  H
  H99      1.0000 0.77560  0.12120  0.40330  Biso   1.000  H
  H100     1.0000 0.77560  0.37880  0.59670  Biso   1.000  H
  H101     1.0000 0.12120  0.72440  0.90330  Biso   1.000  H
  H102     1.0000 0.12120  0.77560  0.09670  Biso   1.000  H
  H103     1.0000 0.37880  0.72440  0.09670  Biso   1.000  H
  H104     1.0000 0.72440  0.12120  0.59670  Biso   1.000  H
  H105     1.0000 0.62120  0.22440  0.09670  Biso   1.000  H
  H106     1.0000 0.27560  0.62120  0.59670  Biso   1.000  H
  H107     1.0000 0.22440  0.87880  0.59670  Biso   1.000  H
  H108     1.0000 0.22440  0.62120  0.40330  Biso   1.000  H
  H109     1.0000 0.87880  0.27560  0.09670  Biso   1.000  H
  H110     1.0000 0.87880  0.22440  0.90330  Biso   1.000  H
  H111     1.0000 0.62120  0.27560  0.90330  Biso   1.000  H
  H112     1.0000 0.27560  0.87880  0.40330  Biso   1.000  H
  O17      1.0000 0.16850  0.94520  0.84550  Biso   1.000  O
  O18      1.0000 0.55480  0.16850  0.34550  Biso   1.000  O
  O19      1.0000 0.94520  0.33150  0.34550  Biso   1.000  O
  O20      1.0000 0.94520  0.16850  0.65450  Biso   1.000  O
  O21      1.0000 0.33150  0.55480  0.84550  Biso   1.000  O
  O22      1.0000 0.33150  0.94520  0.15450  Biso   1.000  O
  O23      1.0000 0.16850  0.55480  0.15450  Biso   1.000  O
  O24      1.0000 0.55480  0.33150  0.65450  Biso   1.000  O
  O25      1.0000 0.83150  0.05480  0.15450  Biso   1.000  O
  O26      1.0000 0.44520  0.83150  0.65450  Biso   1.000  O
  O27      1.0000 0.05480  0.66850  0.65450  Biso   1.000  O
  O28      1.0000 0.05480  0.83150  0.34550  Biso   1.000  O
  O29      1.0000 0.66850  0.44520  0.15450  Biso   1.000  O
  O30      1.0000 0.66850  0.05480  0.84550  Biso   1.000  O
  O31      1.0000 0.83150  0.44520  0.84550  Biso   1.000  O
  O32      1.0000 0.44520  0.66850  0.34550  Biso   1.000  O
  C121     1.0000 0.10920  0.92180  0.85770  Biso   1.000  C
  C122     1.0000 0.57820  0.10920  0.35770  Biso   1.000  C
  C123     1.0000 0.92180  0.39080  0.35770  Biso   1.000  C
  C124     1.0000 0.92180  0.10920  0.64230  Biso   1.000  C
  C125     1.0000 0.39080  0.57820  0.85770  Biso   1.000  C
  C126     1.0000 0.39080  0.92180  0.14230  Biso   1.000  C
  C127     1.0000 0.10920  0.57820  0.14230  Biso   1.000  C
  C128     1.0000 0.57820  0.39080  0.64230  Biso   1.000  C
  C129     1.0000 0.89080  0.07820  0.14230  Biso   1.000  C
  C130     1.0000 0.42180  0.89080  0.64230  Biso   1.000  C
  C131     1.0000 0.07820  0.60920  0.64230  Biso   1.000  C
  C132     1.0000 0.07820  0.89080  0.35770  Biso   1.000  C
  C133     1.0000 0.60920  0.42180  0.14230  Biso   1.000  C
  C134     1.0000 0.60920  0.07820  0.85770  Biso   1.000  C
  C135     1.0000 0.89080  0.42180  0.85770  Biso   1.000  C
  C136     1.0000 0.42180  0.60920  0.35770  Biso   1.000  C
  H113     1.0000 0.08800  0.94370  0.91950  Biso   1.000  H
  H114     1.0000 0.55630  0.08800  0.41950  Biso   1.000  H
  H115     1.0000 0.94370  0.41200  0.41950  Biso   1.000  H
  H116     1.0000 0.94370  0.08800  0.58050  Biso   1.000  H
  H117     1.0000 0.41200  0.55630  0.91950  Biso   1.000  H
  H118     1.0000 0.41200  0.94370  0.08050  Biso   1.000  H
  H119     1.0000 0.08800  0.55630  0.08050  Biso   1.000  H
  H120     1.0000 0.55630  0.41200  0.58050  Biso   1.000  H
  H121     1.0000 0.91200  0.05630  0.08050  Biso   1.000  H
  H122     1.0000 0.44370  0.91200  0.58050  Biso   1.000  H
  H123     1.0000 0.05630  0.58800  0.58050  Biso   1.000  H
  H124     1.0000 0.05630  0.91200  0.41950  Biso   1.000  H
  H125     1.0000 0.58800  0.44370  0.08050  Biso   1.000  H
  H126     1.0000 0.58800  0.05630  0.91950  Biso   1.000  H
  H127     1.0000 0.91200  0.44370  0.91950  Biso   1.000  H
  H128     1.0000 0.44370  0.58800  0.41950  Biso   1.000  H
  H129     1.0000 0.11140  0.87820  0.87690  Biso   1.000  H
  H130     1.0000 0.62180  0.11140  0.37690  Biso   1.000  H
  H131     1.0000 0.87820  0.38860  0.37690  Biso   1.000  H
  H132     1.0000 0.87820  0.11140  0.62310  Biso   1.000  H
  H133     1.0000 0.38860  0.62180  0.87690  Biso   1.000  H
  H134     1.0000 0.38860  0.87820  0.12310  Biso   1.000  H
  H135     1.0000 0.11140  0.62180  0.12310  Biso   1.000  H
  H136     1.0000 0.62180  0.38860  0.62310  Biso   1.000  H
  H137     1.0000 0.88860  0.12180  0.12310  Biso   1.000  H
  H138     1.0000 0.37820  0.88860  0.62310  Biso   1.000  H
  H139     1.0000 0.12180  0.61140  0.62310  Biso   1.000  H
  H140     1.0000 0.12180  0.88860  0.37690  Biso   1.000  H
  H141     1.0000 0.61140  0.37820  0.12310  Biso   1.000  H
  H142     1.0000 0.61140  0.12180  0.87690  Biso   1.000  H
  H143     1.0000 0.88860  0.37820  0.87690  Biso   1.000  H
  H144     1.0000 0.37820  0.61140  0.37690  Biso   1.000  H
  H145     1.0000 0.08680  0.92700  0.78540  Biso   1.000  H
  H146     1.0000 0.57300  0.08680  0.28540  Biso   1.000  H
  H147     1.0000 0.92700  0.41320  0.28540  Biso   1.000  H
  H148     1.0000 0.92700  0.08680  0.71460  Biso   1.000  H
  H149     1.0000 0.41320  0.57300  0.78540  Biso   1.000  H
  H150     1.0000 0.41320  0.92700  0.21460  Biso   1.000  H
  H151     1.0000 0.08680  0.57300  0.21460  Biso   1.000  H
  H152     1.0000 0.57300  0.41320  0.71460  Biso   1.000  H
  H153     1.0000 0.91320  0.07300  0.21460  Biso   1.000  H
  H154     1.0000 0.42700  0.91320  0.71460  Biso   1.000  H
  H155     1.0000 0.07300  0.58680  0.71460  Biso   1.000  H
  H156     1.0000 0.07300  0.91320  0.28540  Biso   1.000  H
  H157     1.0000 0.58680  0.42700  0.21460  Biso   1.000  H
  H158     1.0000 0.58680  0.07300  0.78540  Biso   1.000  H
  H159     1.0000 0.91320  0.42700  0.78540  Biso   1.000  H
  H160     1.0000 0.42700  0.58680  0.28540  Biso   1.000  H
  O33      1.0000 0.14130  0.14130  0.75000  Biso   1.000  O
  O34      1.0000 0.35870  0.14130  0.25000  Biso   1.000  O
  O35      1.0000 0.14130  0.35870  0.25000  Biso   1.000  O
  O36      1.0000 0.35870  0.35870  0.75000  Biso   1.000  O
  O37      1.0000 0.85870  0.85870  0.25000  Biso   1.000  O
  O38      1.0000 0.64130  0.85870  0.75000  Biso   1.000  O
  O39      1.0000 0.85870  0.64130  0.75000  Biso   1.000  O
  O40      1.0000 0.64130  0.64130  0.25000  Biso   1.000  O
  C137     1.0000 0.19000  0.19000  0.75000  Biso   1.000  C
  C138     1.0000 0.31000  0.19000  0.25000  Biso   1.000  C
  C139     1.0000 0.19000  0.31000  0.25000  Biso   1.000  C
  C140     1.0000 0.31000  0.31000  0.75000  Biso   1.000  C
  C141     1.0000 0.81000  0.81000  0.25000  Biso   1.000  C
  C142     1.0000 0.69000  0.81000  0.75000  Biso   1.000  C
  C143     1.0000 0.81000  0.69000  0.75000  Biso   1.000  C
  C144     1.0000 0.69000  0.69000  0.25000  Biso   1.000  C
  N17      1.0000 0.03910  0.21570  0.94300  Biso   1.000  N
  N18      1.0000 0.28430  0.03910  0.44300  Biso   1.000  N
  N19      1.0000 0.21570  0.46090  0.44300  Biso   1.000  N
  N20      1.0000 0.21570  0.03910  0.55700  Biso   1.000  N
  N21      1.0000 0.46090  0.28430  0.94300  Biso   1.000  N
  N22      1.0000 0.46090  0.21570  0.05700  Biso   1.000  N
  N23      1.0000 0.03910  0.28430  0.05700  Biso   1.000  N
  N24      1.0000 0.28430  0.46090  0.55700  Biso   1.000  N
  N25      1.0000 0.96090  0.78430  0.05700  Biso   1.000  N
  N26      1.0000 0.71570  0.96090  0.55700  Biso   1.000  N
  N27      1.0000 0.78430  0.53910  0.55700  Biso   1.000  N
  N28      1.0000 0.78430  0.96090  0.44300  Biso   1.000  N
  N29      1.0000 0.53910  0.71570  0.05700  Biso   1.000  N
  N30      1.0000 0.53910  0.78430  0.94300  Biso   1.000  N
  N31      1.0000 0.96090  0.71570  0.94300  Biso   1.000  N
  N32      1.0000 0.71570  0.53910  0.44300  Biso   1.000  N
  O41      1.0000 0.99170  0.25000  0.00000  Biso   1.000  O
  O42      1.0000 0.25000  0.99170  0.50000  Biso   1.000  O
  O43      1.0000 0.25000  0.50830  0.50000  Biso   1.000  O
  O44      1.0000 0.50830  0.25000  0.00000  Biso   1.000  O
  O45      1.0000 0.00830  0.75000  0.00000  Biso   1.000  O
  O46      1.0000 0.75000  0.00830  0.50000  Biso   1.000  O
  O47      1.0000 0.75000  0.49170  0.50000  Biso   1.000  O
  O48      1.0000 0.49170  0.75000  0.00000  Biso   1.000  O
  O49      1.0000 0.02820  0.17190  0.85570  Biso   1.000  O
  O50      1.0000 0.32810  0.02820  0.35570  Biso   1.000  O
  O51      1.0000 0.17190  0.47180  0.35570  Biso   1.000  O
  O52      1.0000 0.17190  0.02820  0.64430  Biso   1.000  O
  O53      1.0000 0.47180  0.32810  0.85570  Biso   1.000  O
  O54      1.0000 0.47180  0.17190  0.14430  Biso   1.000  O
  O55      1.0000 0.02820  0.32810  0.14430  Biso   1.000  O
  O56      1.0000 0.32810  0.47180  0.64430  Biso   1.000  O
  O57      1.0000 0.97180  0.82810  0.14430  Biso   1.000  O
  O58      1.0000 0.67190  0.97180  0.64430  Biso   1.000  O
  O59      1.0000 0.82810  0.52820  0.64430  Biso   1.000  O
  O60      1.0000 0.82810  0.97180  0.35570  Biso   1.000  O
  O61      1.0000 0.52820  0.67190  0.14430  Biso   1.000  O
  O62      1.0000 0.52820  0.82810  0.85570  Biso   1.000  O
  O63      1.0000 0.97180  0.67190  0.85570  Biso   1.000  O
  O64      1.0000 0.67190  0.52820  0.35570  Biso   1.000  O
  O65      1.0000 0.09870  0.23810  0.96400  Biso   1.000  O
  O66      1.0000 0.26190  0.09870  0.46400  Biso   1.000  O
  O67      1.0000 0.23810  0.40130  0.46400  Biso   1.000  O
  O68      1.0000 0.23810  0.09870  0.53600  Biso   1.000  O
  O69      1.0000 0.40130  0.26190  0.96400  Biso   1.000  O
  O70      1.0000 0.40130  0.23810  0.03600  Biso   1.000  O
  O71      1.0000 0.09870  0.26190  0.03600  Biso   1.000  O
  O72      1.0000 0.26190  0.40130  0.53600  Biso   1.000  O
  O73      1.0000 0.90130  0.76190  0.03600  Biso   1.000  O
  O74      1.0000 0.73810  0.90130  0.53600  Biso   1.000  O
  O75      1.0000 0.76190  0.59870  0.53600  Biso   1.000  O
  O76      1.0000 0.76190  0.90130  0.46400  Biso   1.000  O
  O77      1.0000 0.59870  0.73810  0.03600  Biso   1.000  O
  O78      1.0000 0.59870  0.76190  0.96400  Biso   1.000  O
  O79      1.0000 0.90130  0.73810  0.96400  Biso   1.000  O
  O80      1.0000 0.73810  0.59870  0.46400  Biso   1.000  O
