data_image0
_cell_length_a       7.752
_cell_length_b       20.566
_cell_length_c       14.141
_cell_angle_alpha    90
_cell_angle_beta     99.639
_cell_angle_gamma    90

_symmetry_space_group_name_H-M    "P 1"
_symmetry_int_tables_number       1

loop_
  _symmetry_equiv_pos_as_xyz
  'x, y, z'

loop_
  _atom_site_label
  _atom_site_occupancy
  _atom_site_fract_x
  _atom_site_fract_y
  _atom_site_fract_z
  _atom_site_thermal_displace_type
  _atom_site_B_iso_or_equiv
  _atom_site_type_symbol
  Cu1      1.0000 0.76108  0.75930  0.57840  Biso   1.000  Cu
  Cu2      1.0000 0.23892  0.25930  0.92160  Biso   1.000  Cu
  Cu3      1.0000 0.23892  0.24070  0.42160  Biso   1.000  Cu
  Cu4      1.0000 0.76108  0.74070  0.07840  Biso   1.000  Cu
  Cu5      1.0000 0.05463  0.80556  0.82856  Biso   1.000  Cu
  Cu6      1.0000 0.94537  0.30556  0.67144  Biso   1.000  Cu
  Cu7      1.0000 0.94537  0.19444  0.17144  Biso   1.000  Cu
  Cu8      1.0000 0.05463  0.69444  0.32856  Biso   1.000  Cu
  O1       1.0000 0.63340  0.68530  0.51198  Biso   1.000  O
  O2       1.0000 0.36660  0.18530  0.98802  Biso   1.000  O
  O3       1.0000 0.36660  0.31470  0.48802  Biso   1.000  O
  O4       1.0000 0.63340  0.81470  0.01198  Biso   1.000  O
  O5       1.0000 0.86180  0.68147  0.43756  Biso   1.000  O
  O6       1.0000 0.13820  0.18147  0.06244  Biso   1.000  O
  O7       1.0000 0.13820  0.31853  0.56244  Biso   1.000  O
  O8       1.0000 0.86180  0.81853  0.93756  Biso   1.000  O
  O9       1.0000 0.39440  0.67498  0.30964  Biso   1.000  O
  O10      1.0000 0.60560  0.17498  0.19036  Biso   1.000  O
  O11      1.0000 0.60560  0.32502  0.69036  Biso   1.000  O
  O12      1.0000 0.39440  0.82502  0.80964  Biso   1.000  O
  O13      1.0000 0.20650  0.62158  0.38407  Biso   1.000  O
  O14      1.0000 0.79350  0.12158  0.11593  Biso   1.000  O
  O15      1.0000 0.79350  0.37842  0.61593  Biso   1.000  O
  O16      1.0000 0.20650  0.87842  0.88407  Biso   1.000  O
  N1       1.0000 0.65390  0.82191  0.47260  Biso   1.000  N
  N2       1.0000 0.34610  0.32191  0.02740  Biso   1.000  N
  N3       1.0000 0.34610  0.17809  0.52740  Biso   1.000  N
  N4       1.0000 0.65390  0.67809  0.97260  Biso   1.000  N
  N5       1.0000 0.84240  0.84219  0.64051  Biso   1.000  N
  N6       1.0000 0.15760  0.34219  0.85949  Biso   1.000  N
  N7       1.0000 0.15760  0.15781  0.35949  Biso   1.000  N
  N8       1.0000 0.84240  0.65781  0.14051  Biso   1.000  N
  N9       1.0000 0.94150  0.86178  0.72439  Biso   1.000  N
  N10      1.0000 0.05850  0.36178  0.77561  Biso   1.000  N
  N11      1.0000 0.05850  0.13822  0.27561  Biso   1.000  N
  N12      1.0000 0.94150  0.63822  0.22439  Biso   1.000  N
  N13      1.0000 0.15840  0.74380  0.93560  Biso   1.000  N
  N14      1.0000 0.84160  0.24380  0.56440  Biso   1.000  N
  N15      1.0000 0.84160  0.25620  0.06440  Biso   1.000  N
  N16      1.0000 0.15840  0.75620  0.43560  Biso   1.000  N
  N17      1.0000 0.96260  0.72221  0.76932  Biso   1.000  N
  N18      1.0000 0.03740  0.22221  0.73068  Biso   1.000  N
  N19      1.0000 0.03740  0.27779  0.23068  Biso   1.000  N
  N20      1.0000 0.96260  0.77779  0.26932  Biso   1.000  N
  N21      1.0000 0.86850  0.70246  0.68402  Biso   1.000  N
  N22      1.0000 0.13150  0.20246  0.81598  Biso   1.000  N
  N23      1.0000 0.13150  0.29754  0.31598  Biso   1.000  N
  N24      1.0000 0.86850  0.79754  0.18402  Biso   1.000  N
  C1       1.0000 0.55820  0.80677  0.38700  Biso   1.000  C
  C2       1.0000 0.44180  0.30677  0.11300  Biso   1.000  C
  C3       1.0000 0.44180  0.19323  0.61300  Biso   1.000  C
  C4       1.0000 0.55820  0.69323  0.88700  Biso   1.000  C
  H1       1.0000 0.54220  0.76320  0.37010  Biso   1.000  H
  H2       1.0000 0.45780  0.26320  0.12990  Biso   1.000  H
  H3       1.0000 0.45780  0.23680  0.62990  Biso   1.000  H
  H4       1.0000 0.54220  0.73680  0.87010  Biso   1.000  H
  C5       1.0000 0.48330  0.85353  0.32370  Biso   1.000  C
  C6       1.0000 0.51670  0.35353  0.17630  Biso   1.000  C
  C7       1.0000 0.51670  0.14647  0.67630  Biso   1.000  C
  C8       1.0000 0.48330  0.64647  0.82370  Biso   1.000  C
  H5       1.0000 0.41700  0.84150  0.26530  Biso   1.000  H
  H6       1.0000 0.58300  0.34150  0.23470  Biso   1.000  H
  H7       1.0000 0.58300  0.15850  0.73470  Biso   1.000  H
  H8       1.0000 0.41700  0.65850  0.76530  Biso   1.000  H
  C9       1.0000 0.50710  0.91833  0.34740  Biso   1.000  C
  C10      1.0000 0.49290  0.41833  0.15260  Biso   1.000  C
  C11      1.0000 0.49290  0.08167  0.65260  Biso   1.000  C
  C12      1.0000 0.50710  0.58167  0.84740  Biso   1.000  C
  H9       1.0000 0.45700  0.95050  0.30540  Biso   1.000  H
  H10      1.0000 0.54300  0.45050  0.19460  Biso   1.000  H
  H11      1.0000 0.54300  0.04950  0.69460  Biso   1.000  H
  H12      1.0000 0.45700  0.54950  0.80540  Biso   1.000  H
  C13      1.0000 0.60690  0.93459  0.43470  Biso   1.000  C
  C14      1.0000 0.39310  0.43459  0.06530  Biso   1.000  C
  C15      1.0000 0.39310  0.06541  0.56530  Biso   1.000  C
  C16      1.0000 0.60690  0.56541  0.93470  Biso   1.000  C
  H13      1.0000 0.62570  0.97790  0.45210  Biso   1.000  H
  H14      1.0000 0.37430  0.47790  0.04790  Biso   1.000  H
  H15      1.0000 0.37430  0.02210  0.54790  Biso   1.000  H
  H16      1.0000 0.62570  0.52210  0.95210  Biso   1.000  H
  C17      1.0000 0.67830  0.88528  0.49580  Biso   1.000  C
  C18      1.0000 0.32170  0.38528  0.00420  Biso   1.000  C
  C19      1.0000 0.32170  0.11472  0.50420  Biso   1.000  C
  C20      1.0000 0.67830  0.61472  0.99580  Biso   1.000  C
  C21      1.0000 0.78460  0.89583  0.59040  Biso   1.000  C
  C22      1.0000 0.21540  0.39583  0.90960  Biso   1.000  C
  C23      1.0000 0.21540  0.10417  0.40960  Biso   1.000  C
  C24      1.0000 0.78460  0.60417  0.09040  Biso   1.000  C
  C25      1.0000 0.84450  0.95050  0.64100  Biso   1.000  C
  C26      1.0000 0.15550  0.45050  0.85900  Biso   1.000  C
  C27      1.0000 0.15550  0.04950  0.35900  Biso   1.000  C
  C28      1.0000 0.84450  0.54950  0.14100  Biso   1.000  C
  H17      1.0000 0.82390  0.99370  0.62310  Biso   1.000  H
  H18      1.0000 0.17610  0.49370  0.87690  Biso   1.000  H
  H19      1.0000 0.17610  0.00630  0.37690  Biso   1.000  H
  H20      1.0000 0.82390  0.50630  0.12310  Biso   1.000  H
  C29      1.0000 0.94270  0.92699  0.72490  Biso   1.000  C
  C30      1.0000 0.05730  0.42699  0.77510  Biso   1.000  C
  C31      1.0000 0.05730  0.07301  0.27510  Biso   1.000  C
  C32      1.0000 0.94270  0.57301  0.22490  Biso   1.000  C
  H21      1.0000 0.00100  0.95260  0.77430  Biso   1.000  H
  H22      1.0000 0.99900  0.45260  0.72570  Biso   1.000  H
  H23      1.0000 0.99900  0.04740  0.22570  Biso   1.000  H
  H24      1.0000 0.00100  0.54740  0.27430  Biso   1.000  H
  C33      1.0000 0.25000  0.76037  0.02070  Biso   1.000  C
  C34      1.0000 0.75000  0.26037  0.47930  Biso   1.000  C
  C35      1.0000 0.75000  0.23963  0.97930  Biso   1.000  C
  C36      1.0000 0.25000  0.73963  0.52070  Biso   1.000  C
  H25      1.0000 0.28070  0.80380  0.03190  Biso   1.000  H
  H26      1.0000 0.71930  0.30380  0.46810  Biso   1.000  H
  H27      1.0000 0.71930  0.19620  0.96810  Biso   1.000  H
  H28      1.0000 0.28070  0.69620  0.53190  Biso   1.000  H
  C37      1.0000 0.30110  0.71566  0.09280  Biso   1.000  C
  C38      1.0000 0.69890  0.21566  0.40720  Biso   1.000  C
  C39      1.0000 0.69890  0.28434  0.90720  Biso   1.000  C
  C40      1.0000 0.30110  0.78434  0.59280  Biso   1.000  C
  H29      1.0000 0.36640  0.72850  0.15110  Biso   1.000  H
  H30      1.0000 0.63360  0.22850  0.34890  Biso   1.000  H
  H31      1.0000 0.63360  0.27150  0.84890  Biso   1.000  H
  H32      1.0000 0.36640  0.77150  0.65110  Biso   1.000  H
  C41      1.0000 0.25300  0.65144  0.07640  Biso   1.000  C
  C42      1.0000 0.74700  0.15144  0.42360  Biso   1.000  C
  C43      1.0000 0.74700  0.34856  0.92360  Biso   1.000  C
  C44      1.0000 0.25300  0.84856  0.57640  Biso   1.000  C
  H33      1.0000 0.28490  0.62030  0.12380  Biso   1.000  H
  H34      1.0000 0.71510  0.12030  0.37620  Biso   1.000  H
  H35      1.0000 0.71510  0.37970  0.87620  Biso   1.000  H
  H36      1.0000 0.28490  0.87970  0.62380  Biso   1.000  H
  C45      1.0000 0.15680  0.63395  0.98890  Biso   1.000  C
  C46      1.0000 0.84320  0.13395  0.51110  Biso   1.000  C
  C47      1.0000 0.84320  0.36605  0.01110  Biso   1.000  C
  C48      1.0000 0.15680  0.86605  0.48890  Biso   1.000  C
  H37      1.0000 0.12310  0.59090  0.97680  Biso   1.000  H
  H38      1.0000 0.87690  0.09090  0.52320  Biso   1.000  H
  H39      1.0000 0.87690  0.40910  0.02320  Biso   1.000  H
  H40      1.0000 0.12310  0.90910  0.47680  Biso   1.000  H
  C49      1.0000 0.11130  0.68106  0.91960  Biso   1.000  C
  C50      1.0000 0.88870  0.18106  0.58040  Biso   1.000  C
  C51      1.0000 0.88870  0.31894  0.08040  Biso   1.000  C
  C52      1.0000 0.11130  0.81894  0.41960  Biso   1.000  C
  C53      1.0000 0.00870  0.66960  0.82420  Biso   1.000  C
  C54      1.0000 0.99130  0.16960  0.67580  Biso   1.000  C
  C55      1.0000 0.99130  0.33040  0.17580  Biso   1.000  C
  C56      1.0000 0.00870  0.83040  0.32420  Biso   1.000  C
  C57      1.0000 0.94300  0.61432  0.77500  Biso   1.000  C
  C58      1.0000 0.05700  0.11432  0.72500  Biso   1.000  C
  C59      1.0000 0.05700  0.38568  0.22500  Biso   1.000  C
  C60      1.0000 0.94300  0.88568  0.27500  Biso   1.000  C
  H41      1.0000 0.95450  0.57140  0.79590  Biso   1.000  H
  H42      1.0000 0.04550  0.07140  0.70410  Biso   1.000  H
  H43      1.0000 0.04550  0.42860  0.20410  Biso   1.000  H
  H44      1.0000 0.95450  0.92860  0.29590  Biso   1.000  H
  C61      1.0000 0.85650  0.63704  0.68770  Biso   1.000  C
  C62      1.0000 0.14350  0.13704  0.81230  Biso   1.000  C
  C63      1.0000 0.14350  0.36296  0.31230  Biso   1.000  C
  C64      1.0000 0.85650  0.86296  0.18770  Biso   1.000  C
  H45      1.0000 0.79850  0.61100  0.63870  Biso   1.000  H
  H46      1.0000 0.20150  0.11100  0.86130  Biso   1.000  H
  H47      1.0000 0.20150  0.38900  0.36130  Biso   1.000  H
  H48      1.0000 0.79850  0.88900  0.13870  Biso   1.000  H
  C65      1.0000 0.66530  0.59072  0.42102  Biso   1.000  C
  C66      1.0000 0.33470  0.09072  0.07898  Biso   1.000  C
  C67      1.0000 0.33470  0.40928  0.57898  Biso   1.000  C
  C68      1.0000 0.66530  0.90928  0.92102  Biso   1.000  C
  C69      1.0000 0.78910  0.54115  0.43410  Biso   1.000  C
  C70      1.0000 0.21090  0.04115  0.06590  Biso   1.000  C
  C71      1.0000 0.21090  0.45885  0.56590  Biso   1.000  C
  C72      1.0000 0.78910  0.95885  0.93410  Biso   1.000  C
  H49      1.0000 0.90650  0.55120  0.45380  Biso   1.000  H
  H50      1.0000 0.09350  0.05120  0.04620  Biso   1.000  H
  H51      1.0000 0.09350  0.44880  0.54620  Biso   1.000  H
  H52      1.0000 0.90650  0.94880  0.95380  Biso   1.000  H
  C73      1.0000 0.73910  0.47669  0.41790  Biso   1.000  C
  C74      1.0000 0.26090  0.97669  0.08210  Biso   1.000  C
  C75      1.0000 0.26090  0.52331  0.58210  Biso   1.000  C
  C76      1.0000 0.73910  0.02331  0.91790  Biso   1.000  C
  H53      1.0000 0.82240  0.44380  0.42730  Biso   1.000  H
  H54      1.0000 0.17760  0.94380  0.07270  Biso   1.000  H
  H55      1.0000 0.17760  0.55620  0.57270  Biso   1.000  H
  H56      1.0000 0.82240  0.05620  0.92730  Biso   1.000  H
  C77      1.0000 0.56470  0.46185  0.38780  Biso   1.000  C
  C78      1.0000 0.43530  0.96185  0.11220  Biso   1.000  C
  C79      1.0000 0.43530  0.53815  0.61220  Biso   1.000  C
  C80      1.0000 0.56470  0.03815  0.88780  Biso   1.000  C
  H57      1.0000 0.53000  0.41870  0.37880  Biso   1.000  H
  H58      1.0000 0.47000  0.91870  0.12120  Biso   1.000  H
  H59      1.0000 0.47000  0.58130  0.62120  Biso   1.000  H
  H60      1.0000 0.53000  0.08130  0.87880  Biso   1.000  H
  C81      1.0000 0.44160  0.51109  0.37100  Biso   1.000  C
  C82      1.0000 0.55840  0.01109  0.12900  Biso   1.000  C
  C83      1.0000 0.55840  0.48891  0.62900  Biso   1.000  C
  C84      1.0000 0.44160  0.98891  0.87100  Biso   1.000  C
  H61      1.0000 0.32500  0.50070  0.34910  Biso   1.000  H
  H62      1.0000 0.67500  0.00070  0.15090  Biso   1.000  H
  H63      1.0000 0.67500  0.49930  0.65090  Biso   1.000  H
  H64      1.0000 0.32500  0.99930  0.84910  Biso   1.000  H
  C85      1.0000 0.49010  0.57597  0.38658  Biso   1.000  C
  C86      1.0000 0.50990  0.07597  0.11342  Biso   1.000  C
  C87      1.0000 0.50990  0.42403  0.61342  Biso   1.000  C
  C88      1.0000 0.49010  0.92403  0.88658  Biso   1.000  C
  C89      1.0000 0.72490  0.65767  0.45580  Biso   1.000  C
  C90      1.0000 0.27510  0.15767  0.04420  Biso   1.000  C
  C91      1.0000 0.27510  0.34233  0.54420  Biso   1.000  C
  C92      1.0000 0.72490  0.84233  0.95580  Biso   1.000  C
  C93      1.0000 0.35620  0.62900  0.35832  Biso   1.000  C
  C94      1.0000 0.64380  0.12900  0.14168  Biso   1.000  C
  C95      1.0000 0.64380  0.37100  0.64168  Biso   1.000  C
  C96      1.0000 0.35620  0.87100  0.85832  Biso   1.000  C
