data_image0
_cell_length_a       14.05
_cell_length_b       5.8818
_cell_length_c       16.2268
_cell_angle_alpha    90
_cell_angle_beta     103.586
_cell_angle_gamma    90

_symmetry_space_group_name_H-M    "P 1"
_symmetry_int_tables_number       1

loop_
  _symmetry_equiv_pos_as_xyz
  'x, y, z'

loop_
  _atom_site_label
  _atom_site_occupancy
  _atom_site_fract_x
  _atom_site_fract_y
  _atom_site_fract_z
  _atom_site_thermal_displace_type
  _atom_site_B_iso_or_equiv
  _atom_site_type_symbol
  Mo1      1.0000 0.62881  0.22710  0.48540  Biso   1.000  Mo
  Mo2      1.0000 0.87119  0.72710  0.01460  Biso   1.000  Mo
  Mo3      1.0000 0.37119  0.77290  0.51460  Biso   1.000  Mo
  Mo4      1.0000 0.12881  0.27290  0.98540  Biso   1.000  Mo
  Cu1      1.0000 0.46530  0.26629  0.62825  Biso   1.000  Cu
  Cu2      1.0000 0.03470  0.76629  0.87175  Biso   1.000  Cu
  Cu3      1.0000 0.53470  0.73371  0.37175  Biso   1.000  Cu
  Cu4      1.0000 0.96530  0.23371  0.12825  Biso   1.000  Cu
  O1       1.0000 0.73570  0.14850  0.55710  Biso   1.000  O
  O2       1.0000 0.76430  0.64850  0.94290  Biso   1.000  O
  O3       1.0000 0.26430  0.85150  0.44290  Biso   1.000  O
  O4       1.0000 0.23570  0.35150  0.05710  Biso   1.000  O
  O5       1.0000 0.53250  0.25340  0.53740  Biso   1.000  O
  O6       1.0000 0.96750  0.75340  0.96260  Biso   1.000  O
  O7       1.0000 0.46750  0.74660  0.46260  Biso   1.000  O
  O8       1.0000 0.03250  0.24660  0.03740  Biso   1.000  O
  O9       1.0000 0.60050  0.01970  0.40300  Biso   1.000  O
  O10      1.0000 0.89950  0.51970  0.09700  Biso   1.000  O
  O11      1.0000 0.39950  0.98030  0.59700  Biso   1.000  O
  O12      1.0000 0.10050  0.48030  0.90300  Biso   1.000  O
  O13      1.0000 0.65060  0.49170  0.44200  Biso   1.000  O
  O14      1.0000 0.84940  0.99170  0.05800  Biso   1.000  O
  O15      1.0000 0.34940  0.50830  0.55800  Biso   1.000  O
  O16      1.0000 0.15060  0.00830  0.94200  Biso   1.000  O
  N1       1.0000 0.41680  0.27050  0.73530  Biso   1.000  N
  N2       1.0000 0.08320  0.77050  0.76470  Biso   1.000  N
  N3       1.0000 0.58320  0.72950  0.26470  Biso   1.000  N
  N4       1.0000 0.91680  0.22950  0.23530  Biso   1.000  N
  N5       1.0000 0.54710  0.53290  0.68700  Biso   1.000  N
  N6       1.0000 0.95290  0.03290  0.81300  Biso   1.000  N
  N7       1.0000 0.45290  0.46710  0.31300  Biso   1.000  N
  N8       1.0000 0.04710  0.96710  0.18700  Biso   1.000  N
  C1       1.0000 0.61080  0.66440  0.66000  Biso   1.000  C
  C2       1.0000 0.88920  0.16440  0.84000  Biso   1.000  C
  C3       1.0000 0.38920  0.33560  0.34000  Biso   1.000  C
  C4       1.0000 0.11080  0.83560  0.16000  Biso   1.000  C
  H1       1.0000 0.62670  0.62820  0.60910  Biso   1.000  H
  H2       1.0000 0.87330  0.12820  0.89090  Biso   1.000  H
  H3       1.0000 0.37330  0.37180  0.39090  Biso   1.000  H
  H4       1.0000 0.12670  0.87180  0.10910  Biso   1.000  H
  C5       1.0000 0.65500  0.85550  0.70520  Biso   1.000  C
  C6       1.0000 0.84500  0.35550  0.79480  Biso   1.000  C
  C7       1.0000 0.34500  0.14450  0.29480  Biso   1.000  C
  C8       1.0000 0.15500  0.64450  0.20520  Biso   1.000  C
  H5       1.0000 0.69860  0.94460  0.68430  Biso   1.000  H
  H6       1.0000 0.80140  0.44460  0.81570  Biso   1.000  H
  H7       1.0000 0.30140  0.05540  0.31570  Biso   1.000  H
  H8       1.0000 0.19860  0.55540  0.18430  Biso   1.000  H
  C9       1.0000 0.63220  0.90940  0.78220  Biso   1.000  C
  C10      1.0000 0.86780  0.40940  0.71780  Biso   1.000  C
  C11      1.0000 0.36780  0.09060  0.21780  Biso   1.000  C
  C12      1.0000 0.13220  0.59060  0.28220  Biso   1.000  C
  H9       1.0000 0.66120  0.03370  0.81370  Biso   1.000  H
  H10      1.0000 0.83880  0.53370  0.68630  Biso   1.000  H
  H11      1.0000 0.33880  0.96630  0.18630  Biso   1.000  H
  H12      1.0000 0.16120  0.46630  0.31370  Biso   1.000  H
  C13      1.0000 0.56510  0.77300  0.81090  Biso   1.000  C
  C14      1.0000 0.93490  0.27300  0.68910  Biso   1.000  C
  C15      1.0000 0.43490  0.22700  0.18910  Biso   1.000  C
  C16      1.0000 0.06510  0.72700  0.31090  Biso   1.000  C
  C17      1.0000 0.52300  0.58660  0.76120  Biso   1.000  C
  C18      1.0000 0.97700  0.08660  0.73880  Biso   1.000  C
  C19      1.0000 0.47700  0.41340  0.23880  Biso   1.000  C
  C20      1.0000 0.02300  0.91340  0.26120  Biso   1.000  C
  C21      1.0000 0.53500  0.81560  0.88900  Biso   1.000  C
  C22      1.0000 0.96500  0.31560  0.61100  Biso   1.000  C
  C23      1.0000 0.46500  0.18440  0.11100  Biso   1.000  C
  C24      1.0000 0.03500  0.68440  0.38900  Biso   1.000  C
  H13      1.0000 0.56240  0.93660  0.92340  Biso   1.000  H
  H14      1.0000 0.93760  0.43660  0.57660  Biso   1.000  H
  H15      1.0000 0.43760  0.06340  0.07660  Biso   1.000  H
  H16      1.0000 0.06240  0.56340  0.42340  Biso   1.000  H
  C25      1.0000 0.46730  0.68150  0.91270  Biso   1.000  C
  C26      1.0000 0.03270  0.18150  0.58730  Biso   1.000  C
  C27      1.0000 0.53270  0.31850  0.08730  Biso   1.000  C
  C28      1.0000 0.96730  0.81850  0.41270  Biso   1.000  C
  H17      1.0000 0.44800  0.71540  0.96240  Biso   1.000  H
  H18      1.0000 0.05200  0.21540  0.53760  Biso   1.000  H
  H19      1.0000 0.55200  0.28460  0.03760  Biso   1.000  H
  H20      1.0000 0.94800  0.78460  0.46240  Biso   1.000  H
  C29      1.0000 0.42510  0.49070  0.86360  Biso   1.000  C
  C30      1.0000 0.07490  0.99070  0.63640  Biso   1.000  C
  C31      1.0000 0.57490  0.50930  0.13640  Biso   1.000  C
  C32      1.0000 0.92510  0.00930  0.36360  Biso   1.000  C
  C33      1.0000 0.45350  0.44740  0.78720  Biso   1.000  C
  C34      1.0000 0.04650  0.94740  0.71280  Biso   1.000  C
  C35      1.0000 0.54650  0.55260  0.21280  Biso   1.000  C
  C36      1.0000 0.95350  0.05260  0.28720  Biso   1.000  C
  C37      1.0000 0.35580  0.34080  0.88490  Biso   1.000  C
  C38      1.0000 0.14420  0.84080  0.61510  Biso   1.000  C
  C39      1.0000 0.64420  0.65920  0.11510  Biso   1.000  C
  C40      1.0000 0.85580  0.15920  0.38490  Biso   1.000  C
  H21      1.0000 0.33460  0.36220  0.93460  Biso   1.000  H
  H22      1.0000 0.16540  0.86220  0.56540  Biso   1.000  H
  H23      1.0000 0.66540  0.63780  0.06540  Biso   1.000  H
  H24      1.0000 0.83460  0.13780  0.43460  Biso   1.000  H
  C41      1.0000 0.32030  0.16380  0.83170  Biso   1.000  C
  C42      1.0000 0.17970  0.66380  0.66830  Biso   1.000  C
  C43      1.0000 0.67970  0.83620  0.16830  Biso   1.000  C
  C44      1.0000 0.82030  0.33620  0.33170  Biso   1.000  C
  H25      1.0000 0.27450  0.06500  0.84510  Biso   1.000  H
  H26      1.0000 0.22550  0.56500  0.65490  Biso   1.000  H
  H27      1.0000 0.72550  0.93500  0.15490  Biso   1.000  H
  H28      1.0000 0.77450  0.43500  0.34510  Biso   1.000  H
  C45      1.0000 0.35230  0.13080  0.75730  Biso   1.000  C
  C46      1.0000 0.14770  0.63080  0.74270  Biso   1.000  C
  C47      1.0000 0.64770  0.86920  0.24270  Biso   1.000  C
  C48      1.0000 0.85230  0.36920  0.25730  Biso   1.000  C
  H29      1.0000 0.32800  0.00850  0.72230  Biso   1.000  H
  H30      1.0000 0.17200  0.50850  0.77770  Biso   1.000  H
  H31      1.0000 0.67200  0.99150  0.27770  Biso   1.000  H
  H32      1.0000 0.82800  0.49150  0.22230  Biso   1.000  H
  O17      1.0000 0.81500  0.72690  0.54410  Biso   1.000  O
  O18      1.0000 0.68500  0.22690  0.95590  Biso   1.000  O
  O19      1.0000 0.18500  0.27310  0.45590  Biso   1.000  O
  O20      1.0000 0.31500  0.77310  0.04410  Biso   1.000  O
