data_image0
_cell_length_a       14.147
_cell_length_b       5.8897
_cell_length_c       16.221
_cell_angle_alpha    90
_cell_angle_beta     103.271
_cell_angle_gamma    90

_symmetry_space_group_name_H-M    "P 1"
_symmetry_int_tables_number       1

loop_
  _symmetry_equiv_pos_as_xyz
  'x, y, z'

loop_
  _atom_site_label
  _atom_site_occupancy
  _atom_site_fract_x
  _atom_site_fract_y
  _atom_site_fract_z
  _atom_site_thermal_displace_type
  _atom_site_B_iso_or_equiv
  _atom_site_type_symbol
  Mo1      1.0000 0.87203  0.22461  0.01528  Biso   1.000  Mo
  Mo2      1.0000 0.62797  0.72461  0.48473  Biso   1.000  Mo
  Mo3      1.0000 0.12797  0.77539  0.98472  Biso   1.000  Mo
  Mo4      1.0000 0.37203  0.27539  0.51528  Biso   1.000  Mo
  O1       1.0000 0.85180  0.48680  0.05976  Biso   1.000  O
  O2       1.0000 0.64820  0.98680  0.44024  Biso   1.000  O
  O3       1.0000 0.14820  0.51320  0.94024  Biso   1.000  O
  O4       1.0000 0.35180  0.01320  0.55976  Biso   1.000  O
  O5       1.0000 0.96578  0.25170  0.96082  Biso   1.000  O
  O6       1.0000 0.53422  0.75170  0.53918  Biso   1.000  O
  O7       1.0000 0.03422  0.74830  0.03918  Biso   1.000  O
  O8       1.0000 0.46578  0.24830  0.46082  Biso   1.000  O
  O9       1.0000 0.76572  0.14750  0.94512  Biso   1.000  O
  O10      1.0000 0.73428  0.64750  0.55488  Biso   1.000  O
  O11      1.0000 0.23428  0.85250  0.05488  Biso   1.000  O
  O12      1.0000 0.26572  0.35250  0.44512  Biso   1.000  O
  O13      1.0000 0.90085  0.01790  0.09646  Biso   1.000  O
  O14      1.0000 0.59915  0.51790  0.40354  Biso   1.000  O
  O15      1.0000 0.09915  0.98210  0.90354  Biso   1.000  O
  O16      1.0000 0.40085  0.48210  0.59646  Biso   1.000  O
  Cu1      1.0000 0.96654  0.73343  0.12792  Biso   1.000  Cu
  Cu2      1.0000 0.53346  0.23343  0.37208  Biso   1.000  Cu
  Cu3      1.0000 0.03346  0.26657  0.87208  Biso   1.000  Cu
  Cu4      1.0000 0.46654  0.76657  0.62792  Biso   1.000  Cu
  N1       1.0000 0.04754  0.46780  0.18639  Biso   1.000  N
  N2       1.0000 0.45246  0.96780  0.31361  Biso   1.000  N
  N3       1.0000 0.95246  0.53220  0.81361  Biso   1.000  N
  N4       1.0000 0.54754  0.03220  0.68639  Biso   1.000  N
  N5       1.0000 0.91774  0.72890  0.23466  Biso   1.000  N
  N6       1.0000 0.58226  0.22890  0.26534  Biso   1.000  N
  N7       1.0000 0.08226  0.27110  0.76534  Biso   1.000  N
  N8       1.0000 0.41774  0.77110  0.73466  Biso   1.000  N
  C1       1.0000 0.11103  0.33690  0.16005  Biso   1.000  C
  C2       1.0000 0.38897  0.83690  0.33995  Biso   1.000  C
  C3       1.0000 0.88897  0.66310  0.83995  Biso   1.000  C
  C4       1.0000 0.61103  0.16310  0.66005  Biso   1.000  C
  H1       1.0000 0.12700  0.37140  0.10900  Biso   1.000  H
  H2       1.0000 0.37300  0.87140  0.39100  Biso   1.000  H
  H3       1.0000 0.87300  0.62860  0.89100  Biso   1.000  H
  H4       1.0000 0.62700  0.12860  0.60900  Biso   1.000  H
  C5       1.0000 0.15479  0.14920  0.20608  Biso   1.000  C
  C6       1.0000 0.34521  0.64920  0.29392  Biso   1.000  C
  C7       1.0000 0.84521  0.85080  0.79392  Biso   1.000  C
  C8       1.0000 0.65479  0.35080  0.70608  Biso   1.000  C
  H5       1.0000 0.19870  0.06070  0.18540  Biso   1.000  H
  H6       1.0000 0.30130  0.56070  0.31460  Biso   1.000  H
  H7       1.0000 0.80130  0.93930  0.81460  Biso   1.000  H
  H8       1.0000 0.69870  0.43930  0.68540  Biso   1.000  H
  C9       1.0000 0.13302  0.09610  0.28126  Biso   1.000  C
  C10      1.0000 0.36698  0.59610  0.21874  Biso   1.000  C
  C11      1.0000 0.86698  0.90390  0.71874  Biso   1.000  C
  C12      1.0000 0.63302  0.40390  0.78126  Biso   1.000  C
  H9       1.0000 0.16270  0.97300  0.31280  Biso   1.000  H
  H10      1.0000 0.33730  0.47300  0.18720  Biso   1.000  H
  H11      1.0000 0.83730  0.02700  0.68720  Biso   1.000  H
  H12      1.0000 0.66270  0.52700  0.81280  Biso   1.000  H
  C13      1.0000 0.06507  0.22960  0.31086  Biso   1.000  C
  C14      1.0000 0.43493  0.72960  0.18914  Biso   1.000  C
  C15      1.0000 0.93493  0.77040  0.68914  Biso   1.000  C
  C16      1.0000 0.56507  0.27040  0.81086  Biso   1.000  C
  C17      1.0000 0.03508  0.18630  0.38774  Biso   1.000  C
  C18      1.0000 0.46492  0.68630  0.11226  Biso   1.000  C
  C19      1.0000 0.96492  0.81370  0.61226  Biso   1.000  C
  C20      1.0000 0.53508  0.31370  0.88774  Biso   1.000  C
  H13      1.0000 0.06210  0.06510  0.42180  Biso   1.000  H
  H14      1.0000 0.43790  0.56510  0.07820  Biso   1.000  H
  H15      1.0000 0.93790  0.93490  0.57820  Biso   1.000  H
  H16      1.0000 0.56210  0.43490  0.92180  Biso   1.000  H
  C21      1.0000 0.96786  0.31930  0.41179  Biso   1.000  C
  C22      1.0000 0.53214  0.81930  0.08821  Biso   1.000  C
  C23      1.0000 0.03214  0.68070  0.58821  Biso   1.000  C
  C24      1.0000 0.46786  0.18070  0.91179  Biso   1.000  C
  H17      1.0000 0.94880  0.28580  0.46160  Biso   1.000  H
  H18      1.0000 0.55120  0.78580  0.03840  Biso   1.000  H
  H19      1.0000 0.05120  0.71420  0.53840  Biso   1.000  H
  H20      1.0000 0.44880  0.21420  0.96160  Biso   1.000  H
  C25      1.0000 0.92589  0.50930  0.36226  Biso   1.000  C
  C26      1.0000 0.57411  0.00930  0.13774  Biso   1.000  C
  C27      1.0000 0.07411  0.49070  0.63774  Biso   1.000  C
  C28      1.0000 0.42589  0.99070  0.86226  Biso   1.000  C
  C29      1.0000 0.85638  0.65700  0.38307  Biso   1.000  C
  C30      1.0000 0.64362  0.15700  0.11693  Biso   1.000  C
  C31      1.0000 0.14362  0.34300  0.61693  Biso   1.000  C
  C32      1.0000 0.35638  0.84300  0.88307  Biso   1.000  C
  H21      1.0000 0.83510  0.63450  0.43260  Biso   1.000  H
  H22      1.0000 0.66490  0.13450  0.06740  Biso   1.000  H
  H23      1.0000 0.16490  0.36550  0.56740  Biso   1.000  H
  H24      1.0000 0.33510  0.86550  0.93260  Biso   1.000  H
  C33      1.0000 0.82049  0.83240  0.33056  Biso   1.000  C
  C34      1.0000 0.67951  0.33240  0.16944  Biso   1.000  C
  C35      1.0000 0.17951  0.16760  0.66944  Biso   1.000  C
  C36      1.0000 0.32049  0.66760  0.83056  Biso   1.000  C
  H25      1.0000 0.77450  0.92990  0.34390  Biso   1.000  H
  H26      1.0000 0.72550  0.42990  0.15610  Biso   1.000  H
  H27      1.0000 0.22550  0.07010  0.65610  Biso   1.000  H
  H28      1.0000 0.27450  0.57010  0.84390  Biso   1.000  H
  C37      1.0000 0.85332  0.86490  0.25634  Biso   1.000  C
  C38      1.0000 0.64668  0.36490  0.24366  Biso   1.000  C
  C39      1.0000 0.14668  0.13510  0.74366  Biso   1.000  C
  C40      1.0000 0.35332  0.63510  0.75634  Biso   1.000  C
  H29      1.0000 0.82900  0.98620  0.22120  Biso   1.000  H
  H30      1.0000 0.67100  0.48620  0.27880  Biso   1.000  H
  H31      1.0000 0.17100  0.01380  0.77880  Biso   1.000  H
  H32      1.0000 0.32900  0.51380  0.72120  Biso   1.000  H
  C41      1.0000 0.02469  0.41300  0.26085  Biso   1.000  C
  C42      1.0000 0.47531  0.91300  0.23915  Biso   1.000  C
  C43      1.0000 0.97531  0.58700  0.73915  Biso   1.000  C
  C44      1.0000 0.52469  0.08700  0.76085  Biso   1.000  C
  C45      1.0000 0.95405  0.55460  0.28655  Biso   1.000  C
  C46      1.0000 0.54595  0.05460  0.21345  Biso   1.000  C
  C47      1.0000 0.04595  0.44540  0.71345  Biso   1.000  C
  C48      1.0000 0.45405  0.94540  0.78655  Biso   1.000  C
  O17      1.0000 0.68606  0.72370  0.95821  Biso   1.000  O
  O18      1.0000 0.81394  0.22370  0.54179  Biso   1.000  O
  O19      1.0000 0.31394  0.27630  0.04179  Biso   1.000  O
  O20      1.0000 0.18606  0.77630  0.45821  Biso   1.000  O
  H33      1.0000 0.70810  0.86390  0.95090  Biso   1.000  H
  H34      1.0000 0.79190  0.36390  0.54910  Biso   1.000  H
  H35      1.0000 0.29190  0.13610  0.04910  Biso   1.000  H
  H36      1.0000 0.20810  0.63610  0.45090  Biso   1.000  H
  H37      1.0000 0.73300  0.64380  0.99270  Biso   1.000  H
  H38      1.0000 0.76700  0.14380  0.50730  Biso   1.000  H
  H39      1.0000 0.26700  0.35620  0.00730  Biso   1.000  H
  H40      1.0000 0.23300  0.85620  0.49270  Biso   1.000  H
