data_image0
_cell_length_a       19.549
_cell_length_b       6.6457
_cell_length_c       19.9034
_cell_angle_alpha    90
_cell_angle_beta     90
_cell_angle_gamma    90

_symmetry_space_group_name_H-M    "P 1"
_symmetry_int_tables_number       1

loop_
  _symmetry_equiv_pos_as_xyz
  'x, y, z'

loop_
  _atom_site_label
  _atom_site_occupancy
  _atom_site_fract_x
  _atom_site_fract_y
  _atom_site_fract_z
  _atom_site_thermal_displace_type
  _atom_site_B_iso_or_equiv
  _atom_site_type_symbol
  Cu1      1.0000 0.01455  0.59764  0.18754  Biso   1.000  Cu
  Cu2      1.0000 0.48545  0.40236  0.68754  Biso   1.000  Cu
  Cu3      1.0000 0.98545  0.09764  0.31246  Biso   1.000  Cu
  Cu4      1.0000 0.51455  0.90236  0.81246  Biso   1.000  Cu
  Cu5      1.0000 0.98545  0.40236  0.81246  Biso   1.000  Cu
  Cu6      1.0000 0.51455  0.59764  0.31246  Biso   1.000  Cu
  Cu7      1.0000 0.01455  0.90236  0.68754  Biso   1.000  Cu
  Cu8      1.0000 0.48545  0.09764  0.18754  Biso   1.000  Cu
  F1       1.0000 0.77967  0.88930  0.95131  Biso   1.000  F
  F2       1.0000 0.72033  0.11070  0.45131  Biso   1.000  F
  F3       1.0000 0.22033  0.38930  0.54869  Biso   1.000  F
  F4       1.0000 0.27967  0.61070  0.04869  Biso   1.000  F
  F5       1.0000 0.22033  0.11070  0.04869  Biso   1.000  F
  F6       1.0000 0.27967  0.88930  0.54869  Biso   1.000  F
  F7       1.0000 0.77967  0.61070  0.45131  Biso   1.000  F
  F8       1.0000 0.72033  0.38930  0.95131  Biso   1.000  F
  N1       1.0000 0.03814  0.67470  0.09584  Biso   1.000  N
  N2       1.0000 0.46186  0.32530  0.59584  Biso   1.000  N
  N3       1.0000 0.96186  0.17470  0.40416  Biso   1.000  N
  N4       1.0000 0.53814  0.82530  0.90416  Biso   1.000  N
  N5       1.0000 0.96186  0.32530  0.90416  Biso   1.000  N
  N6       1.0000 0.53814  0.67470  0.40416  Biso   1.000  N
  N7       1.0000 0.03814  0.82530  0.59584  Biso   1.000  N
  N8       1.0000 0.46186  0.17470  0.09584  Biso   1.000  N
  N9       1.0000 0.12019  0.59480  0.20198  Biso   1.000  N
  N10      1.0000 0.37981  0.40520  0.70198  Biso   1.000  N
  N11      1.0000 0.87981  0.09480  0.29802  Biso   1.000  N
  N12      1.0000 0.62019  0.90520  0.79802  Biso   1.000  N
  N13      1.0000 0.87981  0.40520  0.79802  Biso   1.000  N
  N14      1.0000 0.62019  0.59480  0.29802  Biso   1.000  N
  N15      1.0000 0.12019  0.90520  0.70198  Biso   1.000  N
  N16      1.0000 0.37981  0.09480  0.20198  Biso   1.000  N
  N17      1.0000 0.99540  0.47510  0.27736  Biso   1.000  N
  N18      1.0000 0.50460  0.52490  0.77736  Biso   1.000  N
  N19      1.0000 0.00460  0.97510  0.22264  Biso   1.000  N
  N20      1.0000 0.49540  0.02490  0.72264  Biso   1.000  N
  N21      1.0000 0.00460  0.52490  0.72264  Biso   1.000  N
  N22      1.0000 0.49540  0.47510  0.22264  Biso   1.000  N
  N23      1.0000 0.99540  0.02490  0.77736  Biso   1.000  N
  N24      1.0000 0.50460  0.97510  0.27736  Biso   1.000  N
  N25      1.0000 0.99472  0.57850  0.32363  Biso   1.000  N
  N26      1.0000 0.50528  0.42150  0.82363  Biso   1.000  N
  N27      1.0000 0.00528  0.07850  0.17637  Biso   1.000  N
  N28      1.0000 0.49472  0.92150  0.67637  Biso   1.000  N
  N29      1.0000 0.00528  0.42150  0.67637  Biso   1.000  N
  N30      1.0000 0.49472  0.57850  0.17637  Biso   1.000  N
  N31      1.0000 0.99472  0.92150  0.82363  Biso   1.000  N
  N32      1.0000 0.50528  0.07850  0.32363  Biso   1.000  N
  N33      1.0000 0.99416  0.67720  0.37214  Biso   1.000  N
  N34      1.0000 0.50584  0.32280  0.87214  Biso   1.000  N
  N35      1.0000 0.00584  0.17720  0.12786  Biso   1.000  N
  N36      1.0000 0.49416  0.82280  0.62786  Biso   1.000  N
  N37      1.0000 0.00584  0.32280  0.62786  Biso   1.000  N
  N38      1.0000 0.49416  0.67720  0.12786  Biso   1.000  N
  N39      1.0000 0.99416  0.82280  0.87214  Biso   1.000  N
  N40      1.0000 0.50584  0.17720  0.37214  Biso   1.000  N
  O1       1.0000 0.91854  0.60210  0.16986  Biso   1.000  O
  O2       1.0000 0.58146  0.39790  0.66986  Biso   1.000  O
  O3       1.0000 0.08146  0.10210  0.33014  Biso   1.000  O
  O4       1.0000 0.41854  0.89790  0.83014  Biso   1.000  O
  O5       1.0000 0.08146  0.39790  0.83014  Biso   1.000  O
  O6       1.0000 0.41854  0.60210  0.33014  Biso   1.000  O
  O7       1.0000 0.91854  0.89790  0.66986  Biso   1.000  O
  O8       1.0000 0.58146  0.10210  0.16986  Biso   1.000  O
  C1       1.0000 0.92284  0.73400  0.05691  Biso   1.000  C
  C2       1.0000 0.57716  0.26600  0.55691  Biso   1.000  C
  C3       1.0000 0.07716  0.23400  0.44309  Biso   1.000  C
  C4       1.0000 0.42284  0.76600  0.94309  Biso   1.000  C
  C5       1.0000 0.07716  0.26600  0.94309  Biso   1.000  C
  C6       1.0000 0.42284  0.73400  0.44309  Biso   1.000  C
  C7       1.0000 0.92284  0.76600  0.55691  Biso   1.000  C
  C8       1.0000 0.57716  0.23400  0.05691  Biso   1.000  C
  C9       1.0000 0.88836  0.66930  0.11570  Biso   1.000  C
  C10      1.0000 0.61164  0.33070  0.61570  Biso   1.000  C
  C11      1.0000 0.11164  0.16930  0.38430  Biso   1.000  C
  C12      1.0000 0.38836  0.83070  0.88430  Biso   1.000  C
  C13      1.0000 0.11164  0.33070  0.88430  Biso   1.000  C
  C14      1.0000 0.38836  0.66930  0.38430  Biso   1.000  C
  C15      1.0000 0.88836  0.83070  0.61570  Biso   1.000  C
  C16      1.0000 0.61164  0.16930  0.11570  Biso   1.000  C
  C17      1.0000 0.81576  0.67940  0.11501  Biso   1.000  C
  C18      1.0000 0.68424  0.32060  0.61501  Biso   1.000  C
  C19      1.0000 0.18424  0.17940  0.38499  Biso   1.000  C
  C20      1.0000 0.31576  0.82060  0.88499  Biso   1.000  C
  C21      1.0000 0.18424  0.32060  0.88499  Biso   1.000  C
  C22      1.0000 0.31576  0.67940  0.38499  Biso   1.000  C
  C23      1.0000 0.81576  0.82060  0.61501  Biso   1.000  C
  C24      1.0000 0.68424  0.17940  0.11501  Biso   1.000  C
  H1       1.0000 0.79160  0.63580  0.15260  Biso   1.000  H
  H2       1.0000 0.70840  0.36420  0.65260  Biso   1.000  H
  H3       1.0000 0.20840  0.13580  0.34740  Biso   1.000  H
  H4       1.0000 0.29160  0.86420  0.84740  Biso   1.000  H
  H5       1.0000 0.20840  0.36420  0.84740  Biso   1.000  H
  H6       1.0000 0.29160  0.63580  0.34740  Biso   1.000  H
  H7       1.0000 0.79160  0.86420  0.65260  Biso   1.000  H
  H8       1.0000 0.70840  0.13580  0.15260  Biso   1.000  H
  C25      1.0000 0.78019  0.75120  0.06087  Biso   1.000  C
  C26      1.0000 0.71981  0.24880  0.56087  Biso   1.000  C
  C27      1.0000 0.21981  0.25120  0.43913  Biso   1.000  C
  C28      1.0000 0.28019  0.74880  0.93913  Biso   1.000  C
  C29      1.0000 0.21981  0.24880  0.93913  Biso   1.000  C
  C30      1.0000 0.28019  0.75120  0.43913  Biso   1.000  C
  C31      1.0000 0.78019  0.74880  0.56087  Biso   1.000  C
  C32      1.0000 0.71981  0.25120  0.06087  Biso   1.000  C
  H9       1.0000 0.73260  0.75580  0.06160  Biso   1.000  H
  H10      1.0000 0.76740  0.24420  0.56160  Biso   1.000  H
  H11      1.0000 0.26740  0.25580  0.43840  Biso   1.000  H
  H12      1.0000 0.23260  0.74420  0.93840  Biso   1.000  H
  H13      1.0000 0.26740  0.24420  0.93840  Biso   1.000  H
  H14      1.0000 0.23260  0.75580  0.43840  Biso   1.000  H
  H15      1.0000 0.73260  0.74420  0.56160  Biso   1.000  H
  H16      1.0000 0.76740  0.25580  0.06160  Biso   1.000  H
  C33      1.0000 0.81584  0.81650  0.00532  Biso   1.000  C
  C34      1.0000 0.68416  0.18350  0.50532  Biso   1.000  C
  C35      1.0000 0.18416  0.31650  0.49468  Biso   1.000  C
  C36      1.0000 0.31584  0.68350  0.99468  Biso   1.000  C
  C37      1.0000 0.18416  0.18350  0.99468  Biso   1.000  C
  C38      1.0000 0.31584  0.81650  0.49468  Biso   1.000  C
  C39      1.0000 0.81584  0.68350  0.50532  Biso   1.000  C
  C40      1.0000 0.68416  0.31650  0.00532  Biso   1.000  C
  C41      1.0000 0.88463  0.80810  0.00185  Biso   1.000  C
  C42      1.0000 0.61537  0.19190  0.50185  Biso   1.000  C
  C43      1.0000 0.11537  0.30810  0.49815  Biso   1.000  C
  C44      1.0000 0.38463  0.69190  0.99815  Biso   1.000  C
  C45      1.0000 0.11537  0.19190  0.99815  Biso   1.000  C
  C46      1.0000 0.38463  0.80810  0.49815  Biso   1.000  C
  C47      1.0000 0.88463  0.69190  0.50185  Biso   1.000  C
  C48      1.0000 0.61537  0.30810  0.00185  Biso   1.000  C
  H17      1.0000 0.90700  0.85100  0.96320  Biso   1.000  H
  H18      1.0000 0.59300  0.14900  0.46320  Biso   1.000  H
  H19      1.0000 0.09300  0.35100  0.53680  Biso   1.000  H
  H20      1.0000 0.40700  0.64900  0.03680  Biso   1.000  H
  H21      1.0000 0.09300  0.14900  0.03680  Biso   1.000  H
  H22      1.0000 0.40700  0.85100  0.53680  Biso   1.000  H
  H23      1.0000 0.90700  0.64900  0.46320  Biso   1.000  H
  H24      1.0000 0.59300  0.35100  0.96320  Biso   1.000  H
  C49      1.0000 0.99584  0.72900  0.04998  Biso   1.000  C
  C50      1.0000 0.50416  0.27100  0.54998  Biso   1.000  C
  C51      1.0000 0.00416  0.22900  0.45002  Biso   1.000  C
  C52      1.0000 0.49584  0.77100  0.95002  Biso   1.000  C
  C53      1.0000 0.00416  0.27100  0.95002  Biso   1.000  C
  C54      1.0000 0.49584  0.72900  0.45002  Biso   1.000  C
  C55      1.0000 0.99584  0.77100  0.54998  Biso   1.000  C
  C56      1.0000 0.50416  0.22900  0.04998  Biso   1.000  C
  H25      1.0000 0.01400  0.76830  0.00880  Biso   1.000  H
  H26      1.0000 0.48600  0.23170  0.50880  Biso   1.000  H
  H27      1.0000 0.98600  0.26830  0.49120  Biso   1.000  H
  H28      1.0000 0.51400  0.73170  0.99120  Biso   1.000  H
  H29      1.0000 0.98600  0.23170  0.99120  Biso   1.000  H
  H30      1.0000 0.51400  0.76830  0.49120  Biso   1.000  H
  H31      1.0000 0.01400  0.73170  0.50880  Biso   1.000  H
  H32      1.0000 0.48600  0.26830  0.00880  Biso   1.000  H
  C57      1.0000 0.11173  0.67740  0.08242  Biso   1.000  C
  C58      1.0000 0.38827  0.32260  0.58242  Biso   1.000  C
  C59      1.0000 0.88827  0.17740  0.41758  Biso   1.000  C
  C60      1.0000 0.61173  0.82260  0.91758  Biso   1.000  C
  C61      1.0000 0.88827  0.32260  0.91758  Biso   1.000  C
  C62      1.0000 0.61173  0.67740  0.41758  Biso   1.000  C
  C63      1.0000 0.11173  0.82260  0.58242  Biso   1.000  C
  C64      1.0000 0.38827  0.17740  0.08242  Biso   1.000  C
  H33      1.0000 0.12250  0.77850  0.04890  Biso   1.000  H
  H34      1.0000 0.37750  0.22150  0.54890  Biso   1.000  H
  H35      1.0000 0.87750  0.27850  0.45110  Biso   1.000  H
  H36      1.0000 0.62250  0.72150  0.95110  Biso   1.000  H
  H37      1.0000 0.87750  0.22150  0.95110  Biso   1.000  H
  H38      1.0000 0.62250  0.77850  0.45110  Biso   1.000  H
  H39      1.0000 0.12250  0.72150  0.54890  Biso   1.000  H
  H40      1.0000 0.37750  0.27850  0.04890  Biso   1.000  H
  H41      1.0000 0.12670  0.54730  0.06590  Biso   1.000  H
  H42      1.0000 0.37330  0.45270  0.56590  Biso   1.000  H
  H43      1.0000 0.87330  0.04730  0.43410  Biso   1.000  H
  H44      1.0000 0.62670  0.95270  0.93410  Biso   1.000  H
  H45      1.0000 0.87330  0.45270  0.93410  Biso   1.000  H
  H46      1.0000 0.62670  0.54730  0.43410  Biso   1.000  H
  H47      1.0000 0.12670  0.95270  0.56590  Biso   1.000  H
  H48      1.0000 0.37330  0.04730  0.06590  Biso   1.000  H
  C65      1.0000 0.14667  0.72600  0.14801  Biso   1.000  C
  C66      1.0000 0.35333  0.27400  0.64801  Biso   1.000  C
  C67      1.0000 0.85333  0.22600  0.35199  Biso   1.000  C
  C68      1.0000 0.64667  0.77400  0.85199  Biso   1.000  C
  C69      1.0000 0.85333  0.27400  0.85199  Biso   1.000  C
  C70      1.0000 0.64667  0.72600  0.35199  Biso   1.000  C
  C71      1.0000 0.14667  0.77400  0.64801  Biso   1.000  C
  C72      1.0000 0.35333  0.22600  0.14801  Biso   1.000  C
  H49      1.0000 0.19560  0.70640  0.14340  Biso   1.000  H
  H50      1.0000 0.30440  0.29360  0.64340  Biso   1.000  H
  H51      1.0000 0.80440  0.20640  0.35660  Biso   1.000  H
  H52      1.0000 0.69560  0.79360  0.85660  Biso   1.000  H
  H53      1.0000 0.80440  0.29360  0.85660  Biso   1.000  H
  H54      1.0000 0.69560  0.70640  0.35660  Biso   1.000  H
  H55      1.0000 0.19560  0.79360  0.64340  Biso   1.000  H
  H56      1.0000 0.30440  0.20640  0.14340  Biso   1.000  H
  H57      1.0000 0.13860  0.86580  0.15950  Biso   1.000  H
  H58      1.0000 0.36140  0.13420  0.65950  Biso   1.000  H
  H59      1.0000 0.86140  0.36580  0.34050  Biso   1.000  H
  H60      1.0000 0.63860  0.63420  0.84050  Biso   1.000  H
  H61      1.0000 0.86140  0.13420  0.84050  Biso   1.000  H
  H62      1.0000 0.63860  0.86580  0.34050  Biso   1.000  H
  H63      1.0000 0.13860  0.63420  0.65950  Biso   1.000  H
  H64      1.0000 0.36140  0.36580  0.15950  Biso   1.000  H
  C73      1.0000 0.14217  0.67460  0.26782  Biso   1.000  C
  C74      1.0000 0.35783  0.32540  0.76782  Biso   1.000  C
  C75      1.0000 0.85783  0.17460  0.23218  Biso   1.000  C
  C76      1.0000 0.64217  0.82540  0.73218  Biso   1.000  C
  C77      1.0000 0.85783  0.32540  0.73218  Biso   1.000  C
  C78      1.0000 0.64217  0.67460  0.23218  Biso   1.000  C
  C79      1.0000 0.14217  0.82540  0.76782  Biso   1.000  C
  C80      1.0000 0.35783  0.17460  0.26782  Biso   1.000  C
  H65      1.0000 0.19100  0.69050  0.26810  Biso   1.000  H
  H66      1.0000 0.30900  0.30950  0.76810  Biso   1.000  H
  H67      1.0000 0.80900  0.19050  0.23190  Biso   1.000  H
  H68      1.0000 0.69100  0.80950  0.73190  Biso   1.000  H
  H69      1.0000 0.80900  0.30950  0.73190  Biso   1.000  H
  H70      1.0000 0.69100  0.69050  0.23190  Biso   1.000  H
  H71      1.0000 0.19100  0.80950  0.76810  Biso   1.000  H
  H72      1.0000 0.30900  0.19050  0.26810  Biso   1.000  H
  H73      1.0000 0.12900  0.58260  0.30260  Biso   1.000  H
  H74      1.0000 0.37100  0.41740  0.80260  Biso   1.000  H
  H75      1.0000 0.87100  0.08260  0.19740  Biso   1.000  H
  H76      1.0000 0.62900  0.91740  0.69740  Biso   1.000  H
  H77      1.0000 0.87100  0.41740  0.69740  Biso   1.000  H
  H78      1.0000 0.62900  0.58260  0.19740  Biso   1.000  H
  H79      1.0000 0.12900  0.91740  0.80260  Biso   1.000  H
  H80      1.0000 0.37100  0.08260  0.30260  Biso   1.000  H
  H81      1.0000 0.12080  0.80270  0.27550  Biso   1.000  H
  H82      1.0000 0.37920  0.19730  0.77550  Biso   1.000  H
  H83      1.0000 0.87920  0.30270  0.22450  Biso   1.000  H
  H84      1.0000 0.62080  0.69730  0.72450  Biso   1.000  H
  H85      1.0000 0.87920  0.19730  0.72450  Biso   1.000  H
  H86      1.0000 0.62080  0.80270  0.22450  Biso   1.000  H
  H87      1.0000 0.12080  0.69730  0.77550  Biso   1.000  H
  H88      1.0000 0.37920  0.30270  0.27550  Biso   1.000  H
  C81      1.0000 0.14631  0.38690  0.19504  Biso   1.000  C
  C82      1.0000 0.35369  0.61310  0.69504  Biso   1.000  C
  C83      1.0000 0.85369  0.88690  0.30496  Biso   1.000  C
  C84      1.0000 0.64631  0.11310  0.80496  Biso   1.000  C
  C85      1.0000 0.85369  0.61310  0.80496  Biso   1.000  C
  C86      1.0000 0.64631  0.38690  0.30496  Biso   1.000  C
  C87      1.0000 0.14631  0.11310  0.69504  Biso   1.000  C
  C88      1.0000 0.35369  0.88690  0.19504  Biso   1.000  C
  H89      1.0000 0.19530  0.38780  0.19790  Biso   1.000  H
  H90      1.0000 0.30470  0.61220  0.69790  Biso   1.000  H
  H91      1.0000 0.80470  0.88780  0.30210  Biso   1.000  H
  H92      1.0000 0.69530  0.11220  0.80210  Biso   1.000  H
  H93      1.0000 0.80470  0.61220  0.80210  Biso   1.000  H
  H94      1.0000 0.69530  0.38780  0.30210  Biso   1.000  H
  H95      1.0000 0.19530  0.11220  0.69790  Biso   1.000  H
  H96      1.0000 0.30470  0.88780  0.19790  Biso   1.000  H
  H97      1.0000 0.13260  0.33330  0.15230  Biso   1.000  H
  H98      1.0000 0.36740  0.66670  0.65230  Biso   1.000  H
  H99      1.0000 0.86740  0.83330  0.34770  Biso   1.000  H
  H100     1.0000 0.63260  0.16670  0.84770  Biso   1.000  H
  H101     1.0000 0.86740  0.66670  0.84770  Biso   1.000  H
  H102     1.0000 0.63260  0.33330  0.34770  Biso   1.000  H
  H103     1.0000 0.13260  0.16670  0.65230  Biso   1.000  H
  H104     1.0000 0.36740  0.83330  0.15230  Biso   1.000  H
  H105     1.0000 0.12790  0.30480  0.23040  Biso   1.000  H
  H106     1.0000 0.37210  0.69520  0.73040  Biso   1.000  H
  H107     1.0000 0.87210  0.80480  0.26960  Biso   1.000  H
  H108     1.0000 0.62790  0.19520  0.76960  Biso   1.000  H
  H109     1.0000 0.87210  0.69520  0.76960  Biso   1.000  H
  H110     1.0000 0.62790  0.30480  0.26960  Biso   1.000  H
  H111     1.0000 0.12790  0.19520  0.73040  Biso   1.000  H
  H112     1.0000 0.37210  0.80480  0.23040  Biso   1.000  H
