data_image0
_cell_length_a       15.737
_cell_length_b       8.972
_cell_length_c       20.073
_cell_angle_alpha    90
_cell_angle_beta     96.207
_cell_angle_gamma    90

_symmetry_space_group_name_H-M    "P 1"
_symmetry_int_tables_number       1

loop_
  _symmetry_equiv_pos_as_xyz
  'x, y, z'

loop_
  _atom_site_label
  _atom_site_occupancy
  _atom_site_fract_x
  _atom_site_fract_y
  _atom_site_fract_z
  _atom_site_thermal_displace_type
  _atom_site_B_iso_or_equiv
  _atom_site_type_symbol
  Cu1      1.0000 0.47246  0.45395  0.29063  Biso   1.000  Cu
  Cu2      1.0000 0.02754  0.95395  0.20937  Biso   1.000  Cu
  Cu3      1.0000 0.52754  0.54605  0.70937  Biso   1.000  Cu
  Cu4      1.0000 0.97246  0.04605  0.79063  Biso   1.000  Cu
  O1       1.0000 0.49310  0.38580  0.20060  Biso   1.000  O
  O2       1.0000 0.00690  0.88580  0.29940  Biso   1.000  O
  O3       1.0000 0.50690  0.61420  0.79940  Biso   1.000  O
  O4       1.0000 0.99310  0.11420  0.70060  Biso   1.000  O
  O5       1.0000 0.55360  0.64070  0.25771  Biso   1.000  O
  O6       1.0000 0.94640  0.14070  0.24229  Biso   1.000  O
  O7       1.0000 0.44640  0.35930  0.74229  Biso   1.000  O
  O8       1.0000 0.05360  0.85930  0.75771  Biso   1.000  O
  O9       1.0000 0.44820  0.49850  0.38070  Biso   1.000  O
  O10      1.0000 0.05180  0.99850  0.11930  Biso   1.000  O
  O11      1.0000 0.55180  0.50150  0.61930  Biso   1.000  O
  O12      1.0000 0.94820  0.00150  0.88070  Biso   1.000  O
  O13      1.0000 0.36300  0.53880  0.25560  Biso   1.000  O
  O14      1.0000 0.13700  0.03880  0.24440  Biso   1.000  O
  O15      1.0000 0.63700  0.46120  0.74440  Biso   1.000  O
  O16      1.0000 0.86300  0.96120  0.75560  Biso   1.000  O
  O17      1.0000 0.57450  0.33690  0.32474  Biso   1.000  O
  O18      1.0000 0.92550  0.83690  0.17526  Biso   1.000  O
  O19      1.0000 0.42550  0.66310  0.67526  Biso   1.000  O
  O20      1.0000 0.07450  0.16310  0.82474  Biso   1.000  O
  C1       1.0000 0.54330  0.46260  0.16910  Biso   1.000  C
  C2       1.0000 0.95670  0.96260  0.33090  Biso   1.000  C
  C3       1.0000 0.45670  0.53740  0.83090  Biso   1.000  C
  C4       1.0000 0.04330  0.03740  0.66910  Biso   1.000  C
  C5       1.0000 0.57850  0.60420  0.20340  Biso   1.000  C
  C6       1.0000 0.92150  0.10420  0.29660  Biso   1.000  C
  C7       1.0000 0.42150  0.39580  0.79660  Biso   1.000  C
  C8       1.0000 0.07850  0.89580  0.70340  Biso   1.000  C
  H1       1.0000 0.49600  0.47200  0.40200  Biso   1.000  H
  H2       1.0000 0.00400  0.97200  0.09800  Biso   1.000  H
  H3       1.0000 0.50400  0.52800  0.59800  Biso   1.000  H
  H4       1.0000 0.99600  0.02800  0.90200  Biso   1.000  H
  H5       1.0000 0.40700  0.51200  0.40400  Biso   1.000  H
  H6       1.0000 0.09300  0.01200  0.09600  Biso   1.000  H
  H7       1.0000 0.59300  0.48800  0.59600  Biso   1.000  H
  H8       1.0000 0.90700  0.98800  0.90400  Biso   1.000  H
  H9       1.0000 0.35800  0.60500  0.22500  Biso   1.000  H
  H10      1.0000 0.14200  0.10500  0.27500  Biso   1.000  H
  H11      1.0000 0.64200  0.39500  0.77500  Biso   1.000  H
  H12      1.0000 0.85800  0.89500  0.72500  Biso   1.000  H
  H13      1.0000 0.34000  0.45500  0.24500  Biso   1.000  H
  H14      1.0000 0.16000  0.95500  0.25500  Biso   1.000  H
  H15      1.0000 0.66000  0.54500  0.75500  Biso   1.000  H
  H16      1.0000 0.84000  0.04500  0.74500  Biso   1.000  H
  N1       1.0000 0.56510  0.44280  0.10920  Biso   1.000  N
  N2       1.0000 0.93490  0.94280  0.39080  Biso   1.000  N
  N3       1.0000 0.43490  0.55720  0.89080  Biso   1.000  N
  N4       1.0000 0.06510  0.05720  0.60920  Biso   1.000  N
  N5       1.0000 0.63170  0.67430  0.16680  Biso   1.000  N
  N6       1.0000 0.86830  0.17430  0.33320  Biso   1.000  N
  N7       1.0000 0.36830  0.32570  0.83320  Biso   1.000  N
  N8       1.0000 0.13170  0.82570  0.66680  Biso   1.000  N
  Ni1      1.0000 0.66331  0.55412  0.09771  Biso   1.000  Ni
  Ni2      1.0000 0.83669  0.05412  0.40229  Biso   1.000  Ni
  Ni3      1.0000 0.33669  0.44588  0.90229  Biso   1.000  Ni
  Ni4      1.0000 0.16331  0.94588  0.59771  Biso   1.000  Ni
  C9       1.0000 0.52360  0.33810  0.06360  Biso   1.000  C
  C10      1.0000 0.97640  0.83810  0.43640  Biso   1.000  C
  C11      1.0000 0.47640  0.66190  0.93640  Biso   1.000  C
  C12      1.0000 0.02360  0.16190  0.56360  Biso   1.000  C
  C13      1.0000 0.65690  0.82380  0.17850  Biso   1.000  C
  C14      1.0000 0.84310  0.32380  0.32150  Biso   1.000  C
  C15      1.0000 0.34310  0.17620  0.82150  Biso   1.000  C
  C16      1.0000 0.15690  0.67620  0.67850  Biso   1.000  C
  N9       1.0000 0.69550  0.43760  0.02540  Biso   1.000  N
  N10      1.0000 0.80450  0.93760  0.47460  Biso   1.000  N
  N11      1.0000 0.30450  0.56240  0.97460  Biso   1.000  N
  N12      1.0000 0.19550  0.06240  0.52540  Biso   1.000  N
  N13      1.0000 0.76730  0.65520  0.09620  Biso   1.000  N
  N14      1.0000 0.73270  0.15520  0.40380  Biso   1.000  N
  N15      1.0000 0.23270  0.34480  0.90380  Biso   1.000  N
  N16      1.0000 0.26730  0.84480  0.59620  Biso   1.000  N
  C17      1.0000 0.44320  0.28240  0.07280  Biso   1.000  C
  C18      1.0000 0.05680  0.78240  0.42720  Biso   1.000  C
  C19      1.0000 0.55680  0.71760  0.92720  Biso   1.000  C
  C20      1.0000 0.94320  0.21760  0.57280  Biso   1.000  C
  C21      1.0000 0.56150  0.29760  0.00580  Biso   1.000  C
  C22      1.0000 0.93850  0.79760  0.49420  Biso   1.000  C
  C23      1.0000 0.43850  0.70240  0.99420  Biso   1.000  C
  C24      1.0000 0.06150  0.20240  0.50580  Biso   1.000  C
  C25      1.0000 0.73240  0.87690  0.15510  Biso   1.000  C
  C26      1.0000 0.76760  0.37690  0.34490  Biso   1.000  C
  C27      1.0000 0.26760  0.12310  0.84490  Biso   1.000  C
  C28      1.0000 0.23240  0.62310  0.65510  Biso   1.000  C
  C29      1.0000 0.60530  0.92470  0.20810  Biso   1.000  C
  C30      1.0000 0.89470  0.42470  0.29190  Biso   1.000  C
  C31      1.0000 0.39470  0.07530  0.79190  Biso   1.000  C
  C32      1.0000 0.10530  0.57530  0.70810  Biso   1.000  C
  C33      1.0000 0.64500  0.35030  0.98890  Biso   1.000  C
  C34      1.0000 0.85500  0.85030  0.51110  Biso   1.000  C
  C35      1.0000 0.35500  0.64970  0.01110  Biso   1.000  C
  C36      1.0000 0.14500  0.14970  0.48890  Biso   1.000  C
  C37      1.0000 0.77890  0.49240  0.00290  Biso   1.000  C
  C38      1.0000 0.72110  0.99240  0.49710  Biso   1.000  C
  C39      1.0000 0.22110  0.50760  0.99710  Biso   1.000  C
  C40      1.0000 0.27890  0.00760  0.50290  Biso   1.000  C
  C41      1.0000 0.82700  0.56270  0.06570  Biso   1.000  C
  C42      1.0000 0.67300  0.06270  0.43430  Biso   1.000  C
  C43      1.0000 0.17300  0.43730  0.93430  Biso   1.000  C
  C44      1.0000 0.32700  0.93730  0.56570  Biso   1.000  C
  C45      1.0000 0.79010  0.78300  0.12200  Biso   1.000  C
  C46      1.0000 0.70990  0.28300  0.37800  Biso   1.000  C
  C47      1.0000 0.20990  0.21700  0.87800  Biso   1.000  C
  C48      1.0000 0.29010  0.71700  0.62200  Biso   1.000  C
  H17      1.0000 0.41700  0.31360  0.10980  Biso   1.000  H
  H18      1.0000 0.08300  0.81360  0.39020  Biso   1.000  H
  H19      1.0000 0.58300  0.68640  0.89020  Biso   1.000  H
  H20      1.0000 0.91700  0.18640  0.60980  Biso   1.000  H
  C49      1.0000 0.40130  0.18160  0.02850  Biso   1.000  C
  C50      1.0000 0.09870  0.68160  0.47150  Biso   1.000  C
  C51      1.0000 0.59870  0.81840  0.97150  Biso   1.000  C
  C52      1.0000 0.90130  0.31840  0.52850  Biso   1.000  C
  C53      1.0000 0.51590  0.19690  0.96100  Biso   1.000  C
  C54      1.0000 0.98410  0.69690  0.53900  Biso   1.000  C
  C55      1.0000 0.48410  0.80310  0.03900  Biso   1.000  C
  C56      1.0000 0.01590  0.30310  0.46100  Biso   1.000  C
  C57      1.0000 0.75200  0.02960  0.16380  Biso   1.000  C
  C58      1.0000 0.74800  0.52960  0.33620  Biso   1.000  C
  C59      1.0000 0.24800  0.97040  0.83620  Biso   1.000  C
  C60      1.0000 0.25200  0.47040  0.66380  Biso   1.000  C
  C61      1.0000 0.62490  0.07280  0.21270  Biso   1.000  C
  C62      1.0000 0.87510  0.57280  0.28730  Biso   1.000  C
  C63      1.0000 0.37510  0.92720  0.78730  Biso   1.000  C
  C64      1.0000 0.12490  0.42720  0.71270  Biso   1.000  C
  H21      1.0000 0.55620  0.89030  0.22510  Biso   1.000  H
  H22      1.0000 0.94380  0.39030  0.27490  Biso   1.000  H
  H23      1.0000 0.44380  0.10970  0.77490  Biso   1.000  H
  H24      1.0000 0.05620  0.60970  0.72510  Biso   1.000  H
  C65      1.0000 0.66640  0.29900  0.91940  Biso   1.000  C
  C66      1.0000 0.83360  0.79900  0.58060  Biso   1.000  C
  C67      1.0000 0.33360  0.70100  0.08060  Biso   1.000  C
  C68      1.0000 0.16640  0.20100  0.41940  Biso   1.000  C
  H25      1.0000 0.76530  0.57220  0.97010  Biso   1.000  H
  H26      1.0000 0.73470  0.07220  0.52990  Biso   1.000  H
  H27      1.0000 0.23470  0.42780  0.02990  Biso   1.000  H
  H28      1.0000 0.26530  0.92780  0.47010  Biso   1.000  H
  C69      1.0000 0.83880  0.38420  0.97310  Biso   1.000  C
  C70      1.0000 0.66120  0.88420  0.52690  Biso   1.000  C
  C71      1.0000 0.16120  0.61580  0.02690  Biso   1.000  C
  C72      1.0000 0.33880  0.11580  0.47310  Biso   1.000  C
  C73      1.0000 0.86290  0.45600  0.11220  Biso   1.000  C
  C74      1.0000 0.63710  0.95600  0.38780  Biso   1.000  C
  C75      1.0000 0.13710  0.54400  0.88780  Biso   1.000  C
  C76      1.0000 0.36290  0.04400  0.61220  Biso   1.000  C
  H29      1.0000 0.87290  0.62580  0.05200  Biso   1.000  H
  H30      1.0000 0.62710  0.12580  0.44800  Biso   1.000  H
  H31      1.0000 0.12710  0.37420  0.94800  Biso   1.000  H
  H32      1.0000 0.37290  0.87420  0.55200  Biso   1.000  H
  C77      1.0000 0.87990  0.84410  0.12000  Biso   1.000  C
  C78      1.0000 0.62010  0.34410  0.38000  Biso   1.000  C
  C79      1.0000 0.12010  0.15590  0.88000  Biso   1.000  C
  C80      1.0000 0.37990  0.65590  0.62000  Biso   1.000  C
  H33      1.0000 0.34830  0.14330  0.03620  Biso   1.000  H
  H34      1.0000 0.15170  0.64330  0.46380  Biso   1.000  H
  H35      1.0000 0.65170  0.85670  0.96380  Biso   1.000  H
  H36      1.0000 0.84830  0.35670  0.53620  Biso   1.000  H
  C81      1.0000 0.43900  0.13900  0.97280  Biso   1.000  C
  C82      1.0000 0.06100  0.63900  0.52720  Biso   1.000  C
  C83      1.0000 0.56100  0.86100  0.02720  Biso   1.000  C
  C84      1.0000 0.93900  0.36100  0.47280  Biso   1.000  C
  H37      1.0000 0.53920  0.16930  0.92220  Biso   1.000  H
  H38      1.0000 0.96080  0.66930  0.57780  Biso   1.000  H
  H39      1.0000 0.46080  0.83070  0.07780  Biso   1.000  H
  H40      1.0000 0.03920  0.33070  0.42220  Biso   1.000  H
  H41      1.0000 0.80280  0.06530  0.15020  Biso   1.000  H
  H42      1.0000 0.69720  0.56530  0.34980  Biso   1.000  H
  H43      1.0000 0.19720  0.93470  0.84980  Biso   1.000  H
  H44      1.0000 0.30280  0.43470  0.65020  Biso   1.000  H
  C85      1.0000 0.69920  0.12690  0.19150  Biso   1.000  C
  C86      1.0000 0.80080  0.62690  0.30850  Biso   1.000  C
  C87      1.0000 0.30080  0.87310  0.80850  Biso   1.000  C
  C88      1.0000 0.19920  0.37310  0.69150  Biso   1.000  C
  H45      1.0000 0.58740  0.13810  0.23050  Biso   1.000  H
  H46      1.0000 0.91260  0.63810  0.26950  Biso   1.000  H
  H47      1.0000 0.41260  0.86190  0.76950  Biso   1.000  H
  H48      1.0000 0.08740  0.36190  0.73050  Biso   1.000  H
  O21      1.0000 0.69340  0.17120  0.91190  Biso   1.000  O
  O22      1.0000 0.80660  0.67120  0.58810  Biso   1.000  O
  O23      1.0000 0.30660  0.82880  0.08810  Biso   1.000  O
  O24      1.0000 0.19340  0.32880  0.41190  Biso   1.000  O
  O25      1.0000 0.65120  0.39720  0.87560  Biso   1.000  O
  O26      1.0000 0.84880  0.89720  0.62440  Biso   1.000  O
  O27      1.0000 0.34880  0.60280  0.12440  Biso   1.000  O
  O28      1.0000 0.15120  0.10280  0.37560  Biso   1.000  O
  H49      1.0000 0.80770  0.33330  0.93540  Biso   1.000  H
  H50      1.0000 0.69230  0.83330  0.56460  Biso   1.000  H
  H51      1.0000 0.19230  0.66670  0.06460  Biso   1.000  H
  H52      1.0000 0.30770  0.16670  0.43540  Biso   1.000  H
  H53      1.0000 0.88500  0.43980  0.95650  Biso   1.000  H
  H54      1.0000 0.61500  0.93980  0.54350  Biso   1.000  H
  H55      1.0000 0.11500  0.56020  0.04350  Biso   1.000  H
  H56      1.0000 0.38500  0.06020  0.45650  Biso   1.000  H
  C89      1.0000 0.87450  0.27500  0.02090  Biso   1.000  C
  C90      1.0000 0.62550  0.77500  0.47910  Biso   1.000  C
  C91      1.0000 0.12550  0.72500  0.97910  Biso   1.000  C
  C92      1.0000 0.37450  0.22500  0.52090  Biso   1.000  C
  C93      1.0000 0.92770  0.34600  0.08270  Biso   1.000  C
  C94      1.0000 0.57230  0.84600  0.41730  Biso   1.000  C
  C95      1.0000 0.07230  0.65400  0.91730  Biso   1.000  C
  C96      1.0000 0.42770  0.15400  0.58270  Biso   1.000  C
  H57      1.0000 0.81710  0.39810  0.12820  Biso   1.000  H
  H58      1.0000 0.68290  0.89810  0.37180  Biso   1.000  H
  H59      1.0000 0.18290  0.60190  0.87180  Biso   1.000  H
  H60      1.0000 0.31710  0.10190  0.62820  Biso   1.000  H
  H61      1.0000 0.89240  0.50760  0.15040  Biso   1.000  H
  H62      1.0000 0.60760  0.00760  0.34960  Biso   1.000  H
  H63      1.0000 0.10760  0.49240  0.84960  Biso   1.000  H
  H64      1.0000 0.39240  0.99240  0.65040  Biso   1.000  H
  O29      1.0000 0.89960  0.89970  0.06790  Biso   1.000  O
  O30      1.0000 0.60040  0.39970  0.43210  Biso   1.000  O
  O31      1.0000 0.10040  0.10030  0.93210  Biso   1.000  O
  O32      1.0000 0.39960  0.60030  0.56790  Biso   1.000  O
  H65      1.0000 0.41190  0.07020  0.94300  Biso   1.000  H
  H66      1.0000 0.08810  0.57020  0.55700  Biso   1.000  H
  H67      1.0000 0.58810  0.92980  0.05700  Biso   1.000  H
  H68      1.0000 0.91190  0.42980  0.44300  Biso   1.000  H
  H69      1.0000 0.71320  0.22740  0.19590  Biso   1.000  H
  H70      1.0000 0.78680  0.72740  0.30410  Biso   1.000  H
  H71      1.0000 0.28680  0.77260  0.80410  Biso   1.000  H
  H72      1.0000 0.21320  0.27260  0.69590  Biso   1.000  H
  H73      1.0000 0.91080  0.20770  0.99890  Biso   1.000  H
  H74      1.0000 0.58920  0.70770  0.50110  Biso   1.000  H
  H75      1.0000 0.08920  0.79230  0.00110  Biso   1.000  H
  H76      1.0000 0.41080  0.29230  0.49890  Biso   1.000  H
  H77      1.0000 0.82840  0.21670  0.03620  Biso   1.000  H
  H78      1.0000 0.67160  0.71670  0.46380  Biso   1.000  H
  H79      1.0000 0.17160  0.78330  0.96380  Biso   1.000  H
  H80      1.0000 0.32840  0.28330  0.53620  Biso   1.000  H
  H81      1.0000 0.97660  0.39960  0.06930  Biso   1.000  H
  H82      1.0000 0.52340  0.89960  0.43070  Biso   1.000  H
  H83      1.0000 0.02340  0.60040  0.93070  Biso   1.000  H
  H84      1.0000 0.47660  0.10040  0.56930  Biso   1.000  H
  H85      1.0000 0.94760  0.27050  0.11520  Biso   1.000  H
  H86      1.0000 0.55240  0.77050  0.38480  Biso   1.000  H
  H87      1.0000 0.05240  0.72950  0.88480  Biso   1.000  H
  H88      1.0000 0.44760  0.22950  0.61520  Biso   1.000  H
  C97      1.0000 0.32640  0.88470  0.32950  Biso   1.000  C
  C98      1.0000 0.17360  0.38470  0.17050  Biso   1.000  C
  C99      1.0000 0.67360  0.11530  0.67050  Biso   1.000  C
  C100     1.0000 0.82640  0.61530  0.82950  Biso   1.000  C
  H89      1.0000 0.30430  0.97370  0.34790  Biso   1.000  H
  H90      1.0000 0.19570  0.47370  0.15210  Biso   1.000  H
  H91      1.0000 0.69570  0.02630  0.65210  Biso   1.000  H
  H92      1.0000 0.80430  0.52630  0.84790  Biso   1.000  H
  H93      1.0000 0.37620  0.85220  0.35770  Biso   1.000  H
  H94      1.0000 0.12380  0.35220  0.14230  Biso   1.000  H
  H95      1.0000 0.62380  0.14780  0.64230  Biso   1.000  H
  H96      1.0000 0.87620  0.64780  0.85770  Biso   1.000  H
  H97      1.0000 0.28370  0.80800  0.32720  Biso   1.000  H
  H98      1.0000 0.21630  0.30800  0.17280  Biso   1.000  H
  H99      1.0000 0.71630  0.19200  0.67280  Biso   1.000  H
  H100     1.0000 0.78370  0.69200  0.82720  Biso   1.000  H
  C101     1.0000 0.35130  0.91790  0.25710  Biso   1.000  C
  C102     1.0000 0.14870  0.41790  0.24290  Biso   1.000  C
  C103     1.0000 0.64870  0.08210  0.74290  Biso   1.000  C
  C104     1.0000 0.85130  0.58210  0.75710  Biso   1.000  C
  H101     1.0000 0.39450  0.84710  0.24510  Biso   1.000  H
  H102     1.0000 0.10550  0.34710  0.25490  Biso   1.000  H
  H103     1.0000 0.60550  0.15290  0.75490  Biso   1.000  H
  H104     1.0000 0.89450  0.65290  0.74510  Biso   1.000  H
  C105     1.0000 0.38280  0.07900  0.25140  Biso   1.000  C
  C106     1.0000 0.11720  0.57900  0.24860  Biso   1.000  C
  C107     1.0000 0.61720  0.92100  0.74860  Biso   1.000  C
  C108     1.0000 0.88280  0.42100  0.75140  Biso   1.000  C
  H105     1.0000 0.35710  0.12210  0.21030  Biso   1.000  H
  H106     1.0000 0.14290  0.62210  0.28970  Biso   1.000  H
  H107     1.0000 0.64290  0.87790  0.78970  Biso   1.000  H
  H108     1.0000 0.85710  0.37790  0.71030  Biso   1.000  H
  H109     1.0000 0.44380  0.07940  0.25180  Biso   1.000  H
  H110     1.0000 0.05620  0.57940  0.24820  Biso   1.000  H
  H111     1.0000 0.55620  0.92060  0.74820  Biso   1.000  H
  H112     1.0000 0.94380  0.42060  0.75180  Biso   1.000  H
  H113     1.0000 0.36700  0.13620  0.28860  Biso   1.000  H
  H114     1.0000 0.13300  0.63620  0.21140  Biso   1.000  H
  H115     1.0000 0.63300  0.86380  0.71140  Biso   1.000  H
  H116     1.0000 0.86700  0.36380  0.78860  Biso   1.000  H
  O33      1.0000 0.27520  0.90370  0.21320  Biso   1.000  O
  O34      1.0000 0.22480  0.40370  0.28680  Biso   1.000  O
  O35      1.0000 0.72480  0.09630  0.78680  Biso   1.000  O
  O36      1.0000 0.77520  0.59630  0.71320  Biso   1.000  O
  H117     1.0000 0.28720  0.88620  0.17520  Biso   1.000  H
  H118     1.0000 0.21280  0.38620  0.32480  Biso   1.000  H
  H119     1.0000 0.71280  0.11380  0.82480  Biso   1.000  H
  H120     1.0000 0.78720  0.61380  0.67520  Biso   1.000  H
  O37      1.0000 0.31340  0.56340  0.43870  Biso   1.000  O
  O38      1.0000 0.18660  0.06340  0.06130  Biso   1.000  O
  O39      1.0000 0.68660  0.43660  0.56130  Biso   1.000  O
  O40      1.0000 0.81340  0.93660  0.93870  Biso   1.000  O
  H121     1.0000 0.26430  0.56880  0.41550  Biso   1.000  H
  H122     1.0000 0.23570  0.06880  0.08450  Biso   1.000  H
  H123     1.0000 0.73570  0.43120  0.58450  Biso   1.000  H
  H124     1.0000 0.76430  0.93120  0.91550  Biso   1.000  H
  H125     1.0000 0.31800  0.57970  0.48120  Biso   1.000  H
  H126     1.0000 0.18200  0.07970  0.01880  Biso   1.000  H
  H127     1.0000 0.68200  0.42030  0.51880  Biso   1.000  H
  H128     1.0000 0.81800  0.92030  0.98120  Biso   1.000  H
