data_image0
_cell_length_a       8.9307
_cell_length_b       12.8226
_cell_length_c       7.9821
_cell_angle_alpha    90
_cell_angle_beta     90
_cell_angle_gamma    90

_symmetry_space_group_name_H-M    "P 1"
_symmetry_int_tables_number       1

loop_
  _symmetry_equiv_pos_as_xyz
  'x, y, z'

loop_
  _atom_site_label
  _atom_site_occupancy
  _atom_site_fract_x
  _atom_site_fract_y
  _atom_site_fract_z
  _atom_site_thermal_displace_type
  _atom_site_B_iso_or_equiv
  _atom_site_type_symbol
  Cu1      1.0000 0.00000  0.01547  0.00222  Biso   1.000  Cu
  Cu2      1.0000 0.50000  0.98453  0.50222  Biso   1.000  Cu
  Cu3      1.0000 0.00000  0.50764  0.59137  Biso   1.000  Cu
  Cu4      1.0000 0.50000  0.49236  0.09137  Biso   1.000  Cu
  Cu5      1.0000 0.00000  0.25217  0.77156  Biso   1.000  Cu
  Cu6      1.0000 0.50000  0.74783  0.27156  Biso   1.000  Cu
  F1       1.0000 0.27830  0.75253  0.78840  Biso   1.000  F
  F2       1.0000 0.22170  0.24747  0.28840  Biso   1.000  F
  F3       1.0000 0.77830  0.24747  0.28840  Biso   1.000  F
  F4       1.0000 0.72170  0.75253  0.78840  Biso   1.000  F
  O1       1.0000 0.00000  0.18150  0.09610  Biso   1.000  O
  O2       1.0000 0.50000  0.81850  0.59610  Biso   1.000  O
  O3       1.0000 0.00000  0.30710  0.48810  Biso   1.000  O
  O4       1.0000 0.50000  0.69290  0.98810  Biso   1.000  O
  O5       1.0000 0.00000  0.67820  0.71880  Biso   1.000  O
  O6       1.0000 0.50000  0.32180  0.21880  Biso   1.000  O
  N1       1.0000 0.15500  0.04940  0.83120  Biso   1.000  N
  N2       1.0000 0.34500  0.95060  0.33120  Biso   1.000  N
  N3       1.0000 0.65500  0.95060  0.33120  Biso   1.000  N
  N4       1.0000 0.84500  0.04940  0.83120  Biso   1.000  N
  N5       1.0000 0.15740  0.14290  0.74780  Biso   1.000  N
  N6       1.0000 0.34260  0.85710  0.24780  Biso   1.000  N
  N7       1.0000 0.65740  0.85710  0.24780  Biso   1.000  N
  N8       1.0000 0.84260  0.14290  0.74780  Biso   1.000  N
  N9       1.0000 0.15720  0.35750  0.81590  Biso   1.000  N
  N10      1.0000 0.34280  0.64250  0.31590  Biso   1.000  N
  N11      1.0000 0.65720  0.64250  0.31590  Biso   1.000  N
  N12      1.0000 0.84280  0.35750  0.81590  Biso   1.000  N
  N13      1.0000 0.15480  0.45600  0.75010  Biso   1.000  N
  N14      1.0000 0.34520  0.54400  0.25010  Biso   1.000  N
  N15      1.0000 0.65480  0.54400  0.25010  Biso   1.000  N
  N16      1.0000 0.84520  0.45600  0.75010  Biso   1.000  N
  N17      1.0000 0.34050  0.44790  0.93210  Biso   1.000  N
  N18      1.0000 0.15950  0.55210  0.43210  Biso   1.000  N
  N19      1.0000 0.84050  0.55210  0.43210  Biso   1.000  N
  N20      1.0000 0.65950  0.44790  0.93210  Biso   1.000  N
  N21      1.0000 0.34000  0.04420  0.64750  Biso   1.000  N
  N22      1.0000 0.16000  0.95580  0.14750  Biso   1.000  N
  N23      1.0000 0.84000  0.95580  0.14750  Biso   1.000  N
  N24      1.0000 0.66000  0.04420  0.64750  Biso   1.000  N
  C1       1.0000 0.26680  0.50750  0.82180  Biso   1.000  C
  C2       1.0000 0.23320  0.49250  0.32180  Biso   1.000  C
  C3       1.0000 0.76680  0.49250  0.32180  Biso   1.000  C
  C4       1.0000 0.73320  0.50750  0.82180  Biso   1.000  C
  H1       1.0000 0.29150  0.57800  0.79780  Biso   1.000  H
  H2       1.0000 0.20850  0.42200  0.29780  Biso   1.000  H
  H3       1.0000 0.79150  0.42200  0.29780  Biso   1.000  H
  H4       1.0000 0.70850  0.57800  0.79780  Biso   1.000  H
  C5       1.0000 0.26990  0.35510  0.92390  Biso   1.000  C
  C6       1.0000 0.23010  0.64490  0.42390  Biso   1.000  C
  C7       1.0000 0.76990  0.64490  0.42390  Biso   1.000  C
  C8       1.0000 0.73010  0.35510  0.92390  Biso   1.000  C
  H5       1.0000 0.29740  0.29550  0.98750  Biso   1.000  H
  H6       1.0000 0.20260  0.70450  0.48750  Biso   1.000  H
  H7       1.0000 0.79740  0.70450  0.48750  Biso   1.000  H
  H8       1.0000 0.70260  0.29550  0.98750  Biso   1.000  H
  C9       1.0000 0.26400  0.99260  0.76770  Biso   1.000  C
  C10      1.0000 0.23600  0.00740  0.26770  Biso   1.000  C
  C11      1.0000 0.76400  0.00740  0.26770  Biso   1.000  C
  C12      1.0000 0.73600  0.99260  0.76770  Biso   1.000  C
  H9       1.0000 0.28640  0.92350  0.80250  Biso   1.000  H
  H10      1.0000 0.21360  0.07650  0.30250  Biso   1.000  H
  H11      1.0000 0.78640  0.07650  0.30250  Biso   1.000  H
  H12      1.0000 0.71360  0.92350  0.80250  Biso   1.000  H
  C13      1.0000 0.27020  0.13730  0.64080  Biso   1.000  C
  C14      1.0000 0.22980  0.86270  0.14080  Biso   1.000  C
  C15      1.0000 0.77020  0.86270  0.14080  Biso   1.000  C
  C16      1.0000 0.72980  0.13730  0.64080  Biso   1.000  C
  H13      1.0000 0.29860  0.19240  0.56790  Biso   1.000  H
  H14      1.0000 0.20140  0.80760  0.06790  Biso   1.000  H
  H15      1.0000 0.79860  0.80760  0.06790  Biso   1.000  H
  H16      1.0000 0.70140  0.19240  0.56790  Biso   1.000  H
