data_image0
_cell_length_a       6.8728
_cell_length_b       14.95
_cell_length_c       10.452
_cell_angle_alpha    90
_cell_angle_beta     104.752
_cell_angle_gamma    90

_symmetry_space_group_name_H-M    "P 1"
_symmetry_int_tables_number       1

loop_
  _symmetry_equiv_pos_as_xyz
  'x, y, z'

loop_
  _atom_site_label
  _atom_site_occupancy
  _atom_site_fract_x
  _atom_site_fract_y
  _atom_site_fract_z
  _atom_site_thermal_displace_type
  _atom_site_B_iso_or_equiv
  _atom_site_type_symbol
  Cu1      1.0000 0.22648  0.95148  0.94512  Biso   1.000  Cu
  Cu2      1.0000 0.27352  0.45148  0.55488  Biso   1.000  Cu
  Cu3      1.0000 0.77352  0.04852  0.05488  Biso   1.000  Cu
  Cu4      1.0000 0.72648  0.54852  0.44512  Biso   1.000  Cu
  Cl1      1.0000 0.22823  0.80030  0.95029  Biso   1.000  Cl
  Cl2      1.0000 0.27177  0.30030  0.54971  Biso   1.000  Cl
  Cl3      1.0000 0.77177  0.19970  0.04971  Biso   1.000  Cl
  Cl4      1.0000 0.72823  0.69970  0.45029  Biso   1.000  Cl
  Cl5      1.0000 0.17695  0.96954  0.14741  Biso   1.000  Cl
  Cl6      1.0000 0.32305  0.46954  0.35259  Biso   1.000  Cl
  Cl7      1.0000 0.82305  0.03046  0.85259  Biso   1.000  Cl
  Cl8      1.0000 0.67695  0.53046  0.64741  Biso   1.000  Cl
  O1       1.0000 0.34320  0.07399  0.94877  Biso   1.000  O
  O2       1.0000 0.15680  0.57399  0.55123  Biso   1.000  O
  O3       1.0000 0.65680  0.92601  0.05123  Biso   1.000  O
  O4       1.0000 0.84320  0.42601  0.44877  Biso   1.000  O
  O5       1.0000 0.76920  0.79797  0.92033  Biso   1.000  O
  O6       1.0000 0.73080  0.29797  0.57967  Biso   1.000  O
  O7       1.0000 0.23080  0.20203  0.07967  Biso   1.000  O
  O8       1.0000 0.26920  0.70203  0.42033  Biso   1.000  O
  N1       1.0000 0.23660  0.96109  0.75648  Biso   1.000  N
  N2       1.0000 0.26340  0.46109  0.74352  Biso   1.000  N
  N3       1.0000 0.76340  0.03891  0.24352  Biso   1.000  N
  N4       1.0000 0.73660  0.53891  0.25648  Biso   1.000  N
  C1       1.0000 0.28540  0.04188  0.71930  Biso   1.000  C
  C2       1.0000 0.21460  0.54188  0.78070  Biso   1.000  C
  C3       1.0000 0.71460  0.95812  0.28070  Biso   1.000  C
  C4       1.0000 0.78540  0.45812  0.21930  Biso   1.000  C
  C5       1.0000 0.25910  0.99035  0.49960  Biso   1.000  C
  C6       1.0000 0.24090  0.49035  0.00040  Biso   1.000  C
  C7       1.0000 0.74090  0.00965  0.50040  Biso   1.000  C
  C8       1.0000 0.75910  0.50965  0.99960  Biso   1.000  C
  H1       1.0000 0.26820  0.00010  0.41350  Biso   1.000  H
  H2       1.0000 0.23180  0.50010  0.08650  Biso   1.000  H
  H3       1.0000 0.73180  0.99990  0.58650  Biso   1.000  H
  H4       1.0000 0.76820  0.49990  0.91350  Biso   1.000  H
  C9       1.0000 0.19640  0.89489  0.66600  Biso   1.000  C
  C10      1.0000 0.30360  0.39489  0.83400  Biso   1.000  C
  C11      1.0000 0.80360  0.10511  0.33400  Biso   1.000  C
  C12      1.0000 0.69640  0.60511  0.16600  Biso   1.000  C
  H5       1.0000 0.16150  0.83880  0.69160  Biso   1.000  H
  H6       1.0000 0.33850  0.33880  0.80840  Biso   1.000  H
  H7       1.0000 0.83850  0.16120  0.30840  Biso   1.000  H
  H8       1.0000 0.66150  0.66120  0.19160  Biso   1.000  H
  C13      1.0000 0.31970  0.11427  0.82150  Biso   1.000  C
  C14      1.0000 0.18030  0.61427  0.67850  Biso   1.000  C
  C15      1.0000 0.68030  0.88573  0.17850  Biso   1.000  C
  C16      1.0000 0.81970  0.38573  0.32150  Biso   1.000  C
  H9       1.0000 0.43960  0.14790  0.81970  Biso   1.000  H
  H10      1.0000 0.06040  0.64790  0.68030  Biso   1.000  H
  H11      1.0000 0.56040  0.85210  0.18030  Biso   1.000  H
  H12      1.0000 0.93960  0.35210  0.31970  Biso   1.000  H
  H13      1.0000 0.20620  0.15510  0.80330  Biso   1.000  H
  H14      1.0000 0.29380  0.65510  0.69670  Biso   1.000  H
  H15      1.0000 0.79380  0.84490  0.19670  Biso   1.000  H
  H16      1.0000 0.70620  0.34490  0.30330  Biso   1.000  H
  C17      1.0000 0.20520  0.90735  0.53700  Biso   1.000  C
  C18      1.0000 0.29480  0.40735  0.96300  Biso   1.000  C
  C19      1.0000 0.79480  0.09265  0.46300  Biso   1.000  C
  C20      1.0000 0.70520  0.59265  0.03700  Biso   1.000  C
  H17      1.0000 0.17530  0.86070  0.47620  Biso   1.000  H
  H18      1.0000 0.32470  0.36070  0.02380  Biso   1.000  H
  H19      1.0000 0.82470  0.13930  0.52380  Biso   1.000  H
  H20      1.0000 0.67530  0.63930  0.97620  Biso   1.000  H
  C21      1.0000 0.68950  0.78848  0.78060  Biso   1.000  C
  C22      1.0000 0.81050  0.28848  0.71940  Biso   1.000  C
  C23      1.0000 0.31050  0.21152  0.21940  Biso   1.000  C
  C24      1.0000 0.18950  0.71152  0.28060  Biso   1.000  C
  H21      1.0000 0.54510  0.78880  0.76000  Biso   1.000  H
  H22      1.0000 0.95490  0.28880  0.74000  Biso   1.000  H
  H23      1.0000 0.45490  0.21120  0.24000  Biso   1.000  H
  H24      1.0000 0.04510  0.71120  0.26000  Biso   1.000  H
  H25      1.0000 0.73470  0.73300  0.75200  Biso   1.000  H
  H26      1.0000 0.76530  0.23300  0.74800  Biso   1.000  H
  H27      1.0000 0.26530  0.26700  0.24800  Biso   1.000  H
  H28      1.0000 0.23470  0.76700  0.25200  Biso   1.000  H
  H29      1.0000 0.73500  0.83730  0.73590  Biso   1.000  H
  H30      1.0000 0.76500  0.33730  0.76410  Biso   1.000  H
  H31      1.0000 0.26500  0.16270  0.26410  Biso   1.000  H
  H32      1.0000 0.23500  0.66270  0.23590  Biso   1.000  H
  C25      1.0000 0.29970  0.05889  0.59150  Biso   1.000  C
  C26      1.0000 0.20030  0.55889  0.90850  Biso   1.000  C
  C27      1.0000 0.70030  0.94111  0.40850  Biso   1.000  C
  C28      1.0000 0.79970  0.44111  0.09150  Biso   1.000  C
  H33      1.0000 0.33590  0.11530  0.56810  Biso   1.000  H
  H34      1.0000 0.16410  0.61530  0.93190  Biso   1.000  H
  H35      1.0000 0.66410  0.88470  0.43190  Biso   1.000  H
  H36      1.0000 0.83590  0.38470  0.06810  Biso   1.000  H
  H37      1.0000 0.88100  0.79600  0.93500  Biso   1.000  H
  H38      1.0000 0.61900  0.29600  0.56500  Biso   1.000  H
  H39      1.0000 0.11900  0.20400  0.06500  Biso   1.000  H
  H40      1.0000 0.38100  0.70400  0.43500  Biso   1.000  H
  H41      1.0000 0.31200  0.10700  0.98500  Biso   1.000  H
  H42      1.0000 0.18800  0.60700  0.51500  Biso   1.000  H
  H43      1.0000 0.68800  0.89300  0.01500  Biso   1.000  H
  H44      1.0000 0.81200  0.39300  0.48500  Biso   1.000  H
