data_image0
_cell_length_a       6.1486
_cell_length_b       7.9711
_cell_length_c       8.4418
_cell_angle_alpha    89.343
_cell_angle_beta     79.474
_cell_angle_gamma    69.565

_symmetry_space_group_name_H-M    "P 1"
_symmetry_int_tables_number       1

loop_
  _symmetry_equiv_pos_as_xyz
  'x, y, z'

loop_
  _atom_site_label
  _atom_site_occupancy
  _atom_site_fract_x
  _atom_site_fract_y
  _atom_site_fract_z
  _atom_site_thermal_displace_type
  _atom_site_B_iso_or_equiv
  _atom_site_type_symbol
  Cu1      1.0000 0.67519  0.09903  0.49938  Biso   1.000  Cu
  Cu2      1.0000 0.32481  0.90097  0.50062  Biso   1.000  Cu
  Cl1      1.0000 0.11996  0.86446  0.31498  Biso   1.000  Cl
  Cl2      1.0000 0.88004  0.13554  0.68502  Biso   1.000  Cl
  O1       1.0000 0.45126  0.06629  0.38045  Biso   1.000  O
  O2       1.0000 0.54874  0.93371  0.61955  Biso   1.000  O
  N1       1.0000 0.72480  0.29383  0.35892  Biso   1.000  N
  N2       1.0000 0.27520  0.70617  0.64108  Biso   1.000  N
  C1       1.0000 0.70820  0.29470  0.20115  Biso   1.000  C
  C2       1.0000 0.29180  0.70530  0.79885  Biso   1.000  C
  C3       1.0000 0.76700  0.43080  0.42339  Biso   1.000  C
  C4       1.0000 0.23300  0.56920  0.57661  Biso   1.000  C
  H1       1.0000 0.78030  0.42940  0.53380  Biso   1.000  H
  H2       1.0000 0.21970  0.57060  0.46620  Biso   1.000  H
  C5       1.0000 0.64630  0.14860  0.13272  Biso   1.000  C
  C6       1.0000 0.35370  0.85140  0.86728  Biso   1.000  C
  H3       1.0000 0.77640  0.03260  0.13330  Biso   1.000  H
  H4       1.0000 0.22360  0.96740  0.86670  Biso   1.000  H
  H5       1.0000 0.62920  0.17140  0.01930  Biso   1.000  H
  H6       1.0000 0.37080  0.82860  0.98070  Biso   1.000  H
  C7       1.0000 0.73750  0.43260  0.10690  Biso   1.000  C
  C8       1.0000 0.26250  0.56740  0.89310  Biso   1.000  C
  H7       1.0000 0.72950  0.42990  0.99560  Biso   1.000  H
  H8       1.0000 0.27050  0.57010  0.00440  Biso   1.000  H
  C9       1.0000 0.77810  0.57320  0.17480  Biso   1.000  C
  C10      1.0000 0.22190  0.42680  0.82520  Biso   1.000  C
  H9       1.0000 0.79610  0.66850  0.11160  Biso   1.000  H
  H10      1.0000 0.20390  0.33150  0.88840  Biso   1.000  H
  C11      1.0000 0.41690  0.13670  0.22885  Biso   1.000  C
  C12      1.0000 0.58310  0.86330  0.77115  Biso   1.000  C
  H11      1.0000 0.29290  0.25750  0.24490  Biso   1.000  H
  H12      1.0000 0.70710  0.74250  0.75510  Biso   1.000  H
  H13      1.0000 0.36270  0.05870  0.16760  Biso   1.000  H
  H14      1.0000 0.63730  0.94130  0.83240  Biso   1.000  H
  C13      1.0000 0.79190  0.57280  0.33680  Biso   1.000  C
  C14      1.0000 0.20810  0.42720  0.66320  Biso   1.000  C
  H15      1.0000 0.81800  0.66830  0.38710  Biso   1.000  H
  H16      1.0000 0.18200  0.33170  0.61290  Biso   1.000  H
