data_image0
_cell_length_a       6.1955
_cell_length_b       8.0167
_cell_length_c       8.5418
_cell_angle_alpha    89.73
_cell_angle_beta     79.282
_cell_angle_gamma    70.032

_symmetry_space_group_name_H-M    "P 1"
_symmetry_int_tables_number       1

loop_
  _symmetry_equiv_pos_as_xyz
  'x, y, z'

loop_
  _atom_site_label
  _atom_site_occupancy
  _atom_site_fract_x
  _atom_site_fract_y
  _atom_site_fract_z
  _atom_site_thermal_displace_type
  _atom_site_B_iso_or_equiv
  _atom_site_type_symbol
  Cu1      1.0000 0.67374  0.09939  0.49930  Biso   1.000  Cu
  Cu2      1.0000 0.32626  0.90061  0.50070  Biso   1.000  Cu
  Cl1      1.0000 0.87483  0.13913  0.68259  Biso   1.000  Cl
  Cl2      1.0000 0.12517  0.86087  0.31741  Biso   1.000  Cl
  N1       1.0000 0.72610  0.29080  0.35850  Biso   1.000  N
  N2       1.0000 0.27390  0.70920  0.64150  Biso   1.000  N
  C1       1.0000 0.71060  0.28940  0.20290  Biso   1.000  C
  C2       1.0000 0.28940  0.71060  0.79710  Biso   1.000  C
  C3       1.0000 0.73940  0.42460  0.10950  Biso   1.000  C
  C4       1.0000 0.26060  0.57540  0.89050  Biso   1.000  C
  H1       1.0000 0.73250  0.42040  0.00180  Biso   1.000  H
  H2       1.0000 0.26750  0.57960  0.99820  Biso   1.000  H
  C5       1.0000 0.77860  0.56600  0.17610  Biso   1.000  C
  C6       1.0000 0.22140  0.43400  0.82390  Biso   1.000  C
  H3       1.0000 0.79510  0.65850  0.11460  Biso   1.000  H
  H4       1.0000 0.20490  0.34150  0.88540  Biso   1.000  H
  C7       1.0000 0.79280  0.56760  0.33370  Biso   1.000  C
  C8       1.0000 0.20720  0.43240  0.66630  Biso   1.000  C
  H5       1.0000 0.81900  0.66120  0.38120  Biso   1.000  H
  H6       1.0000 0.18100  0.33880  0.61880  Biso   1.000  H
  C9       1.0000 0.76770  0.42880  0.42080  Biso   1.000  C
  C10      1.0000 0.23230  0.57120  0.57920  Biso   1.000  C
  H7       1.0000 0.77990  0.42980  0.52770  Biso   1.000  H
  H8       1.0000 0.22010  0.57020  0.47230  Biso   1.000  H
  C11      1.0000 0.42500  0.12880  0.23020  Biso   1.000  C
  C12      1.0000 0.57500  0.87120  0.76980  Biso   1.000  C
  H9       1.0000 0.30420  0.24560  0.24420  Biso   1.000  H
  H10      1.0000 0.69580  0.75440  0.75580  Biso   1.000  H
  H11      1.0000 0.37470  0.05070  0.17080  Biso   1.000  H
  H12      1.0000 0.62530  0.94930  0.82920  Biso   1.000  H
  C13      1.0000 0.65310  0.14120  0.13640  Biso   1.000  C
  C14      1.0000 0.34690  0.85880  0.86360  Biso   1.000  C
  H13      1.0000 0.77950  0.02980  0.13920  Biso   1.000  H
  H14      1.0000 0.22050  0.97020  0.86080  Biso   1.000  H
  H15      1.0000 0.63980  0.16000  0.02590  Biso   1.000  H
  H16      1.0000 0.36020  0.84000  0.97410  Biso   1.000  H
  O1       1.0000 0.45490  0.06290  0.38026  Biso   1.000  O
  O2       1.0000 0.54510  0.93710  0.61974  Biso   1.000  O
