data_image0
_cell_length_a       15.545
_cell_length_b       16.121
_cell_length_c       8.6838
_cell_angle_alpha    90
_cell_angle_beta     90
_cell_angle_gamma    90

_symmetry_space_group_name_H-M    "P 1"
_symmetry_int_tables_number       1

loop_
  _symmetry_equiv_pos_as_xyz
  'x, y, z'

loop_
  _atom_site_label
  _atom_site_occupancy
  _atom_site_fract_x
  _atom_site_fract_y
  _atom_site_fract_z
  _atom_site_thermal_displace_type
  _atom_site_B_iso_or_equiv
  _atom_site_type_symbol
  Cu1      1.0000 0.76326  0.08295  0.17368  Biso   1.000  Cu
  Cu2      1.0000 0.26326  0.41705  0.82632  Biso   1.000  Cu
  Cu3      1.0000 0.23674  0.58295  0.32632  Biso   1.000  Cu
  Cu4      1.0000 0.73674  0.91705  0.67368  Biso   1.000  Cu
  C1       1.0000 0.87880  0.20420  0.04010  Biso   1.000  C
  C2       1.0000 0.37880  0.29580  0.95990  Biso   1.000  C
  C3       1.0000 0.12120  0.70420  0.45990  Biso   1.000  C
  C4       1.0000 0.62120  0.79580  0.54010  Biso   1.000  C
  C5       1.0000 0.81490  0.20580  0.55290  Biso   1.000  C
  C6       1.0000 0.31490  0.29420  0.44710  Biso   1.000  C
  C7       1.0000 0.18510  0.70580  0.94710  Biso   1.000  C
  C8       1.0000 0.68510  0.79420  0.05290  Biso   1.000  C
  C9       1.0000 0.73940  0.18040  0.62300  Biso   1.000  C
  C10      1.0000 0.23940  0.31960  0.37700  Biso   1.000  C
  C11      1.0000 0.26060  0.68040  0.87700  Biso   1.000  C
  C12      1.0000 0.76060  0.81960  0.12300  Biso   1.000  C
  C13      1.0000 0.66790  0.23180  0.63120  Biso   1.000  C
  C14      1.0000 0.16790  0.26820  0.36880  Biso   1.000  C
  C15      1.0000 0.33210  0.73180  0.86880  Biso   1.000  C
  C16      1.0000 0.83210  0.76820  0.13120  Biso   1.000  C
  C17      1.0000 0.67160  0.31070  0.56660  Biso   1.000  C
  C18      1.0000 0.17160  0.18930  0.43340  Biso   1.000  C
  C19      1.0000 0.32840  0.81070  0.93340  Biso   1.000  C
  C20      1.0000 0.82840  0.68930  0.06660  Biso   1.000  C
  C21      1.0000 0.74560  0.33650  0.49280  Biso   1.000  C
  C22      1.0000 0.24560  0.16350  0.50720  Biso   1.000  C
  C23      1.0000 0.25440  0.83650  0.00720  Biso   1.000  C
  C24      1.0000 0.75440  0.66350  0.99280  Biso   1.000  C
  C25      1.0000 0.81680  0.28460  0.48650  Biso   1.000  C
  C26      1.0000 0.31680  0.21540  0.51350  Biso   1.000  C
  C27      1.0000 0.18320  0.78460  0.01350  Biso   1.000  C
  C28      1.0000 0.68320  0.71540  0.98650  Biso   1.000  C
  C29      1.0000 0.91710  0.17080  0.18930  Biso   1.000  C
  C30      1.0000 0.41710  0.32920  0.81070  Biso   1.000  C
  C31      1.0000 0.08290  0.67080  0.31070  Biso   1.000  C
  C32      1.0000 0.58290  0.82920  0.68930  Biso   1.000  C
  C33      1.0000 0.88920  0.08530  0.41470  Biso   1.000  C
  C34      1.0000 0.38920  0.41470  0.58530  Biso   1.000  C
  C35      1.0000 0.11080  0.58530  0.08530  Biso   1.000  C
  C36      1.0000 0.61080  0.91470  0.91470  Biso   1.000  C
  C37      1.0000 0.82210  0.01990  0.45180  Biso   1.000  C
  C38      1.0000 0.32210  0.48010  0.54820  Biso   1.000  C
  C39      1.0000 0.17790  0.51990  0.04820  Biso   1.000  C
  C40      1.0000 0.67790  0.98010  0.95180  Biso   1.000  C
  C41      1.0000 0.85290  0.29550  0.06540  Biso   1.000  C
  C42      1.0000 0.35290  0.20450  0.93460  Biso   1.000  C
  C43      1.0000 0.14710  0.79550  0.43460  Biso   1.000  C
  C44      1.0000 0.64710  0.70450  0.56540  Biso   1.000  C
  C45      1.0000 0.83760  0.34500  0.91710  Biso   1.000  C
  C46      1.0000 0.33760  0.15500  0.08290  Biso   1.000  C
  C47      1.0000 0.16240  0.84500  0.58290  Biso   1.000  C
  C48      1.0000 0.66240  0.65500  0.41710  Biso   1.000  C
  C49      1.0000 0.79390  0.42740  0.95580  Biso   1.000  C
  C50      1.0000 0.29390  0.07260  0.04420  Biso   1.000  C
  C51      1.0000 0.20610  0.92740  0.54420  Biso   1.000  C
  C52      1.0000 0.70610  0.57260  0.45580  Biso   1.000  C
  C53      1.0000 0.92120  0.36090  0.83150  Biso   1.000  C
  C54      1.0000 0.42120  0.13910  0.16850  Biso   1.000  C
  C55      1.0000 0.07880  0.86090  0.66850  Biso   1.000  C
  C56      1.0000 0.57880  0.63910  0.33150  Biso   1.000  C
  C57      1.0000 0.89380  0.15120  0.54540  Biso   1.000  C
  C58      1.0000 0.39380  0.34880  0.45460  Biso   1.000  C
  C59      1.0000 0.10620  0.65120  0.95460  Biso   1.000  C
  C60      1.0000 0.60620  0.84880  0.04540  Biso   1.000  C
  H1       1.0000 0.92000  0.19200  0.97300  Biso   1.000  H
  H2       1.0000 0.42000  0.30800  0.02700  Biso   1.000  H
  H3       1.0000 0.08000  0.69200  0.52700  Biso   1.000  H
  H4       1.0000 0.58000  0.80800  0.47300  Biso   1.000  H
  H5       1.0000 0.96200  0.39300  0.91400  Biso   1.000  H
  H6       1.0000 0.46200  0.10700  0.08600  Biso   1.000  H
  H7       1.0000 0.03800  0.89300  0.58600  Biso   1.000  H
  H8       1.0000 0.53800  0.60700  0.41400  Biso   1.000  H
  H9       1.0000 0.95200  0.31500  0.80300  Biso   1.000  H
  H10      1.0000 0.45200  0.18500  0.19700  Biso   1.000  H
  H11      1.0000 0.04800  0.81500  0.69700  Biso   1.000  H
  H12      1.0000 0.54800  0.68500  0.30300  Biso   1.000  H
  H13      1.0000 0.90000  0.11800  0.63500  Biso   1.000  H
  H14      1.0000 0.40000  0.38200  0.36500  Biso   1.000  H
  H15      1.0000 0.10000  0.61800  0.86500  Biso   1.000  H
  H16      1.0000 0.60000  0.88200  0.13500  Biso   1.000  H
  H17      1.0000 0.95000  0.19000  0.52000  Biso   1.000  H
  H18      1.0000 0.45000  0.31000  0.48000  Biso   1.000  H
  H19      1.0000 0.05000  0.69000  0.98000  Biso   1.000  H
  H20      1.0000 0.55000  0.81000  0.02000  Biso   1.000  H
  H21      1.0000 0.74000  0.13200  0.67200  Biso   1.000  H
  H22      1.0000 0.24000  0.36800  0.32800  Biso   1.000  H
  H23      1.0000 0.26000  0.63200  0.82800  Biso   1.000  H
  H24      1.0000 0.76000  0.86800  0.17200  Biso   1.000  H
  H25      1.0000 0.61500  0.21200  0.68100  Biso   1.000  H
  H26      1.0000 0.11500  0.28800  0.31900  Biso   1.000  H
  H27      1.0000 0.38500  0.71200  0.81900  Biso   1.000  H
  H28      1.0000 0.88500  0.78800  0.18100  Biso   1.000  H
  H29      1.0000 0.74600  0.39400  0.45700  Biso   1.000  H
  H30      1.0000 0.24600  0.10600  0.54300  Biso   1.000  H
  H31      1.0000 0.25400  0.89400  0.04300  Biso   1.000  H
  H32      1.0000 0.75400  0.60600  0.95700  Biso   1.000  H
  H33      1.0000 0.86900  0.30700  0.43300  Biso   1.000  H
  H34      1.0000 0.36900  0.19300  0.56700  Biso   1.000  H
  H35      1.0000 0.13100  0.80700  0.06700  Biso   1.000  H
  H36      1.0000 0.63100  0.69300  0.93300  Biso   1.000  H
  H37      1.0000 0.94900  0.05700  0.41300  Biso   1.000  H
  H38      1.0000 0.44900  0.44300  0.58700  Biso   1.000  H
  H39      1.0000 0.05100  0.55700  0.08700  Biso   1.000  H
  H40      1.0000 0.55100  0.94300  0.91300  Biso   1.000  H
  H41      1.0000 0.82000  0.12300  0.90200  Biso   1.000  H
  H42      1.0000 0.32000  0.37700  0.09800  Biso   1.000  H
  H43      1.0000 0.18000  0.62300  0.59800  Biso   1.000  H
  H44      1.0000 0.68000  0.87700  0.40200  Biso   1.000  H
  H45      1.0000 0.75900  0.19800  0.96400  Biso   1.000  H
  H46      1.0000 0.25900  0.30200  0.03600  Biso   1.000  H
  H47      1.0000 0.24100  0.69800  0.53600  Biso   1.000  H
  H48      1.0000 0.74100  0.80200  0.46400  Biso   1.000  H
  H49      1.0000 0.63400  0.19700  0.19100  Biso   1.000  H
  H50      1.0000 0.13400  0.30300  0.80900  Biso   1.000  H
  H51      1.0000 0.36600  0.69700  0.30900  Biso   1.000  H
  H52      1.0000 0.86600  0.80300  0.69100  Biso   1.000  H
  H53      1.0000 0.66100  0.19100  0.33400  Biso   1.000  H
  H54      1.0000 0.16100  0.30900  0.66600  Biso   1.000  H
  H55      1.0000 0.33900  0.69100  0.16600  Biso   1.000  H
  H56      1.0000 0.83900  0.80900  0.83400  Biso   1.000  H
  H57      1.0000 0.56100  0.35000  0.64700  Biso   1.000  H
  H58      1.0000 0.06100  0.15000  0.35300  Biso   1.000  H
  H59      1.0000 0.43900  0.85000  0.85300  Biso   1.000  H
  H60      1.0000 0.93900  0.65000  0.14700  Biso   1.000  H
  H61      1.0000 0.89900  0.32600  0.12200  Biso   1.000  H
  H62      1.0000 0.39900  0.17400  0.87800  Biso   1.000  H
  H63      1.0000 0.10100  0.82600  0.37800  Biso   1.000  H
  H64      1.0000 0.60100  0.67400  0.62200  Biso   1.000  H
  H65      1.0000 0.79800  0.29400  0.15100  Biso   1.000  H
  H66      1.0000 0.29800  0.20600  0.84900  Biso   1.000  H
  H67      1.0000 0.20200  0.79400  0.34900  Biso   1.000  H
  H68      1.0000 0.70200  0.70600  0.65100  Biso   1.000  H
  H69      1.0000 0.79300  0.31600  0.84900  Biso   1.000  H
  H70      1.0000 0.29300  0.18400  0.15100  Biso   1.000  H
  H71      1.0000 0.20700  0.81600  0.65100  Biso   1.000  H
  H72      1.0000 0.70700  0.68400  0.34900  Biso   1.000  H
  H73      1.0000 0.78300  0.45100  0.86900  Biso   1.000  H
  H74      1.0000 0.28300  0.04900  0.13100  Biso   1.000  H
  H75      1.0000 0.21700  0.95100  0.63100  Biso   1.000  H
  H76      1.0000 0.71700  0.54900  0.36900  Biso   1.000  H
  H77      1.0000 0.84000  0.45500  0.03200  Biso   1.000  H
  H78      1.0000 0.34000  0.04500  0.96800  Biso   1.000  H
  H79      1.0000 0.16000  0.95500  0.46800  Biso   1.000  H
  H80      1.0000 0.66000  0.54500  0.53200  Biso   1.000  H
  H81      1.0000 0.73500  0.42500  0.01000  Biso   1.000  H
  H82      1.0000 0.23500  0.07500  0.99000  Biso   1.000  H
  H83      1.0000 0.26500  0.92500  0.49000  Biso   1.000  H
  H84      1.0000 0.76500  0.57500  0.51000  Biso   1.000  H
  H85      1.0000 0.91500  0.39600  0.74700  Biso   1.000  H
  H86      1.0000 0.41500  0.10400  0.25300  Biso   1.000  H
  H87      1.0000 0.08500  0.89600  0.75300  Biso   1.000  H
  H88      1.0000 0.58500  0.60400  0.24700  Biso   1.000  H
  N1       1.0000 0.80130  0.15440  0.99740  Biso   1.000  N
  N2       1.0000 0.30130  0.34560  0.00260  Biso   1.000  N
  N3       1.0000 0.19870  0.65440  0.50260  Biso   1.000  N
  N4       1.0000 0.69870  0.84560  0.49740  Biso   1.000  N
  N5       1.0000 0.86730  0.12070  0.26760  Biso   1.000  N
  N6       1.0000 0.36730  0.37930  0.73240  Biso   1.000  N
  N7       1.0000 0.13270  0.62070  0.23240  Biso   1.000  N
  N8       1.0000 0.63270  0.87930  0.76760  Biso   1.000  N
  O1       1.0000 0.99200  0.19460  0.22700  Biso   1.000  O
  O2       1.0000 0.49200  0.30540  0.77300  Biso   1.000  O
  O3       1.0000 0.00800  0.69460  0.27300  Biso   1.000  O
  O4       1.0000 0.50800  0.80540  0.72700  Biso   1.000  O
  O5       1.0000 0.82930  0.98220  0.57780  Biso   1.000  O
  O6       1.0000 0.32930  0.51780  0.42220  Biso   1.000  O
  O7       1.0000 0.17070  0.48220  0.92220  Biso   1.000  O
  O8       1.0000 0.67070  0.01780  0.07780  Biso   1.000  O
  O9       1.0000 0.76110  0.00750  0.35710  Biso   1.000  O
  O10      1.0000 0.26110  0.49250  0.64290  Biso   1.000  O
  O11      1.0000 0.23890  0.50750  0.14290  Biso   1.000  O
  O12      1.0000 0.73890  0.99250  0.85710  Biso   1.000  O
  O13      1.0000 0.65180  0.16190  0.26460  Biso   1.000  O
  O14      1.0000 0.15180  0.33810  0.73540  Biso   1.000  O
  O15      1.0000 0.34820  0.66190  0.23540  Biso   1.000  O
  O16      1.0000 0.84820  0.83810  0.76460  Biso   1.000  O
  O17      1.0000 0.60300  0.36390  0.57090  Biso   1.000  O
  O18      1.0000 0.10300  0.13610  0.42910  Biso   1.000  O
  O19      1.0000 0.39700  0.86390  0.92910  Biso   1.000  O
  O20      1.0000 0.89700  0.63610  0.07090  Biso   1.000  O
  C61      1.0000 0.96020  0.95530  0.01310  Biso   1.000  C
  C62      1.0000 0.46020  0.54470  0.98690  Biso   1.000  C
  C63      1.0000 0.03980  0.45530  0.48690  Biso   1.000  C
  C64      1.0000 0.53980  0.04470  0.51310  Biso   1.000  C
  C65      1.0000 0.03960  0.98250  0.09390  Biso   1.000  C
  C66      1.0000 0.53960  0.51750  0.90610  Biso   1.000  C
  C67      1.0000 0.96040  0.48250  0.40610  Biso   1.000  C
  C68      1.0000 0.46040  0.01750  0.59390  Biso   1.000  C
  H89      1.0000 0.97300  0.89900  0.97900  Biso   1.000  H
  H90      1.0000 0.47300  0.60100  0.02100  Biso   1.000  H
  H91      1.0000 0.02700  0.39900  0.52100  Biso   1.000  H
  H92      1.0000 0.52700  0.10100  0.47900  Biso   1.000  H
  H93      1.0000 0.91600  0.96800  0.08700  Biso   1.000  H
  H94      1.0000 0.41600  0.53200  0.91300  Biso   1.000  H
  H95      1.0000 0.08400  0.46800  0.41300  Biso   1.000  H
  H96      1.0000 0.58400  0.03200  0.58700  Biso   1.000  H
  H97      1.0000 0.05000  0.94400  0.20200  Biso   1.000  H
  H98      1.0000 0.55000  0.55600  0.79800  Biso   1.000  H
  H99      1.0000 0.95000  0.44400  0.29800  Biso   1.000  H
  H100     1.0000 0.45000  0.05600  0.70200  Biso   1.000  H
  H101     1.0000 0.08300  0.97800  0.02500  Biso   1.000  H
  H102     1.0000 0.58300  0.52200  0.97500  Biso   1.000  H
  H103     1.0000 0.91700  0.47800  0.47500  Biso   1.000  H
  H104     1.0000 0.41700  0.02200  0.52500  Biso   1.000  H
  H105     1.0000 0.03600  0.04300  0.12800  Biso   1.000  H
  H106     1.0000 0.53600  0.45700  0.87200  Biso   1.000  H
  H107     1.0000 0.96400  0.54300  0.37200  Biso   1.000  H
  H108     1.0000 0.46400  0.95700  0.62800  Biso   1.000  H
  H109     1.0000 0.92000  0.97900  0.82100  Biso   1.000  H
  H110     1.0000 0.42000  0.52100  0.17900  Biso   1.000  H
  H111     1.0000 0.08000  0.47900  0.67900  Biso   1.000  H
  H112     1.0000 0.58000  0.02100  0.32100  Biso   1.000  H
  O21      1.0000 0.94520  0.00600  0.88110  Biso   1.000  O
  O22      1.0000 0.44520  0.49400  0.11890  Biso   1.000  O
  O23      1.0000 0.05480  0.50600  0.61890  Biso   1.000  O
  O24      1.0000 0.55480  0.99400  0.38110  Biso   1.000  O
  H113     1.0000 0.08500  0.17800  0.91200  Biso   1.000  H
  H114     1.0000 0.58500  0.32200  0.08800  Biso   1.000  H
  H115     1.0000 0.91500  0.67800  0.58800  Biso   1.000  H
  H116     1.0000 0.41500  0.82200  0.41200  Biso   1.000  H
  H117     1.0000 0.08400  0.23200  0.05800  Biso   1.000  H
  H118     1.0000 0.58400  0.26800  0.94200  Biso   1.000  H
  H119     1.0000 0.91600  0.73200  0.44200  Biso   1.000  H
  H120     1.0000 0.41600  0.76800  0.55800  Biso   1.000  H
  O25      1.0000 0.11510  0.23050  0.97630  Biso   1.000  O
  O26      1.0000 0.61510  0.26950  0.02370  Biso   1.000  O
  O27      1.0000 0.88490  0.73050  0.52370  Biso   1.000  O
  O28      1.0000 0.38490  0.76950  0.47630  Biso   1.000  O
  H121     1.0000 0.08700  0.10400  0.66400  Biso   1.000  H
  H122     1.0000 0.58700  0.39600  0.33600  Biso   1.000  H
  H123     1.0000 0.91300  0.60400  0.83600  Biso   1.000  H
  H124     1.0000 0.41300  0.89600  0.16400  Biso   1.000  H
  H125     1.0000 0.03700  0.06900  0.80900  Biso   1.000  H
  H126     1.0000 0.53700  0.43100  0.19100  Biso   1.000  H
  H127     1.0000 0.96300  0.56900  0.69100  Biso   1.000  H
  H128     1.0000 0.46300  0.93100  0.30900  Biso   1.000  H
  O29      1.0000 0.08230  0.10310  0.76930  Biso   1.000  O
  O30      1.0000 0.58230  0.39690  0.23070  Biso   1.000  O
  O31      1.0000 0.91770  0.60310  0.73070  Biso   1.000  O
  O32      1.0000 0.41770  0.89690  0.26930  Biso   1.000  O
