data_image0
_cell_length_a       25.54
_cell_length_b       5.14
_cell_length_c       22.306
_cell_angle_alpha    90
_cell_angle_beta     117.73
_cell_angle_gamma    90

_symmetry_space_group_name_H-M    "P 1"
_symmetry_int_tables_number       1

loop_
  _symmetry_equiv_pos_as_xyz
  'x, y, z'

loop_
  _atom_site_label
  _atom_site_occupancy
  _atom_site_fract_x
  _atom_site_fract_y
  _atom_site_fract_z
  _atom_site_thermal_displace_type
  _atom_site_B_iso_or_equiv
  _atom_site_type_symbol
  H1       1.0000 0.11020  0.70600  0.23870  Biso   1.000  H
  H2       1.0000 0.88980  0.70600  0.26130  Biso   1.000  H
  H3       1.0000 0.61020  0.20600  0.23870  Biso   1.000  H
  H4       1.0000 0.38980  0.20600  0.26130  Biso   1.000  H
  H5       1.0000 0.88980  0.29400  0.76130  Biso   1.000  H
  H6       1.0000 0.11020  0.29400  0.73870  Biso   1.000  H
  H7       1.0000 0.38980  0.79400  0.76130  Biso   1.000  H
  H8       1.0000 0.61020  0.79400  0.73870  Biso   1.000  H
  H9       1.0000 0.97120  0.24200  0.12050  Biso   1.000  H
  H10      1.0000 0.02880  0.24200  0.37950  Biso   1.000  H
  H11      1.0000 0.47120  0.74200  0.12050  Biso   1.000  H
  H12      1.0000 0.52880  0.74200  0.37950  Biso   1.000  H
  H13      1.0000 0.02880  0.75800  0.87950  Biso   1.000  H
  H14      1.0000 0.97120  0.75800  0.62050  Biso   1.000  H
  H15      1.0000 0.52880  0.25800  0.87950  Biso   1.000  H
  H16      1.0000 0.47120  0.25800  0.62050  Biso   1.000  H
  H17      1.0000 0.09210  0.96600  0.14700  Biso   1.000  H
  H18      1.0000 0.90790  0.96600  0.35300  Biso   1.000  H
  H19      1.0000 0.59210  0.46600  0.14700  Biso   1.000  H
  H20      1.0000 0.40790  0.46600  0.35300  Biso   1.000  H
  H21      1.0000 0.90790  0.03400  0.85300  Biso   1.000  H
  H22      1.0000 0.09210  0.03400  0.64700  Biso   1.000  H
  H23      1.0000 0.40790  0.53400  0.85300  Biso   1.000  H
  H24      1.0000 0.59210  0.53400  0.64700  Biso   1.000  H
  H25      1.0000 0.95540  0.51300  0.03410  Biso   1.000  H
  H26      1.0000 0.04460  0.51300  0.46590  Biso   1.000  H
  H27      1.0000 0.45540  0.01300  0.03410  Biso   1.000  H
  H28      1.0000 0.54460  0.01300  0.46590  Biso   1.000  H
  H29      1.0000 0.04460  0.48700  0.96590  Biso   1.000  H
  H30      1.0000 0.95540  0.48700  0.53410  Biso   1.000  H
  H31      1.0000 0.54460  0.98700  0.96590  Biso   1.000  H
  H32      1.0000 0.45540  0.98700  0.53410  Biso   1.000  H
  C1       1.0000 0.24158  0.49960  0.14492  Biso   1.000  C
  C2       1.0000 0.75842  0.49960  0.35508  Biso   1.000  C
  C3       1.0000 0.74158  0.99960  0.14492  Biso   1.000  C
  C4       1.0000 0.25842  0.99960  0.35508  Biso   1.000  C
  C5       1.0000 0.75842  0.50040  0.85508  Biso   1.000  C
  C6       1.0000 0.24158  0.50040  0.64492  Biso   1.000  C
  C7       1.0000 0.25842  0.00040  0.85508  Biso   1.000  C
  C8       1.0000 0.74158  0.00040  0.64492  Biso   1.000  C
  C9       1.0000 0.11969  0.03300  0.03407  Biso   1.000  C
  C10      1.0000 0.88031  0.03300  0.46593  Biso   1.000  C
  C11      1.0000 0.61969  0.53300  0.03407  Biso   1.000  C
  C12      1.0000 0.38031  0.53300  0.46593  Biso   1.000  C
  C13      1.0000 0.88031  0.96700  0.96593  Biso   1.000  C
  C14      1.0000 0.11969  0.96700  0.53407  Biso   1.000  C
  C15      1.0000 0.38031  0.46700  0.96593  Biso   1.000  C
  C16      1.0000 0.61969  0.46700  0.53407  Biso   1.000  C
  C17      1.0000 0.33216  0.12240  0.08135  Biso   1.000  C
  C18      1.0000 0.66784  0.12240  0.41865  Biso   1.000  C
  C19      1.0000 0.83216  0.62240  0.08135  Biso   1.000  C
  C20      1.0000 0.16784  0.62240  0.41865  Biso   1.000  C
  C21      1.0000 0.66784  0.87760  0.91865  Biso   1.000  C
  C22      1.0000 0.33216  0.87760  0.58135  Biso   1.000  C
  C23      1.0000 0.16784  0.37760  0.91865  Biso   1.000  C
  C24      1.0000 0.83216  0.37760  0.58135  Biso   1.000  C
  C25      1.0000 0.24810  0.71070  0.19317  Biso   1.000  C
  C26      1.0000 0.75190  0.71070  0.30683  Biso   1.000  C
  C27      1.0000 0.74810  0.21070  0.19317  Biso   1.000  C
  C28      1.0000 0.25190  0.21070  0.30683  Biso   1.000  C
  C29      1.0000 0.75190  0.28930  0.80683  Biso   1.000  C
  C30      1.0000 0.24810  0.28930  0.69317  Biso   1.000  C
  C31      1.0000 0.25190  0.78930  0.80683  Biso   1.000  C
  C32      1.0000 0.74810  0.78930  0.69317  Biso   1.000  C
  C33      1.0000 0.28061  0.20970  0.09108  Biso   1.000  C
  C34      1.0000 0.71939  0.20970  0.40892  Biso   1.000  C
  C35      1.0000 0.78061  0.70970  0.09108  Biso   1.000  C
  C36      1.0000 0.21939  0.70970  0.40892  Biso   1.000  C
  C37      1.0000 0.71939  0.79030  0.90892  Biso   1.000  C
  C38      1.0000 0.28061  0.79030  0.59108  Biso   1.000  C
  C39      1.0000 0.21939  0.29030  0.90892  Biso   1.000  C
  C40      1.0000 0.78061  0.29030  0.59108  Biso   1.000  C
  C41      1.0000 0.28804  0.42260  0.13298  Biso   1.000  C
  C42      1.0000 0.71196  0.42260  0.36702  Biso   1.000  C
  C43      1.0000 0.78804  0.92260  0.13298  Biso   1.000  C
  C44      1.0000 0.21196  0.92260  0.36702  Biso   1.000  C
  C45      1.0000 0.71196  0.57740  0.86702  Biso   1.000  C
  C46      1.0000 0.28804  0.57740  0.63298  Biso   1.000  C
  C47      1.0000 0.21196  0.07740  0.86702  Biso   1.000  C
  C48      1.0000 0.78804  0.07740  0.63298  Biso   1.000  C
  C49      1.0000 0.22641  0.07920  0.05994  Biso   1.000  C
  C50      1.0000 0.77359  0.07920  0.44006  Biso   1.000  C
  C51      1.0000 0.72641  0.57920  0.05994  Biso   1.000  C
  C52      1.0000 0.27359  0.57920  0.44006  Biso   1.000  C
  C53      1.0000 0.77359  0.92080  0.94006  Biso   1.000  C
  C54      1.0000 0.22641  0.92080  0.55994  Biso   1.000  C
  C55      1.0000 0.27359  0.42080  0.94006  Biso   1.000  C
  C56      1.0000 0.72641  0.42080  0.55994  Biso   1.000  C
  C57      1.0000 0.18691  0.37270  0.11274  Biso   1.000  C
  C58      1.0000 0.81309  0.37270  0.38726  Biso   1.000  C
  C59      1.0000 0.68691  0.87270  0.11274  Biso   1.000  C
  C60      1.0000 0.31309  0.87270  0.38726  Biso   1.000  C
  C61      1.0000 0.81309  0.62730  0.88726  Biso   1.000  C
  C62      1.0000 0.18691  0.62730  0.61274  Biso   1.000  C
  C63      1.0000 0.31309  0.12730  0.88726  Biso   1.000  C
  C64      1.0000 0.68691  0.12730  0.61274  Biso   1.000  C
  C65      1.0000 0.17887  0.16430  0.06948  Biso   1.000  C
  C66      1.0000 0.82113  0.16430  0.43052  Biso   1.000  C
  C67      1.0000 0.67887  0.66430  0.06948  Biso   1.000  C
  C68      1.0000 0.32113  0.66430  0.43052  Biso   1.000  C
  C69      1.0000 0.82113  0.83570  0.93052  Biso   1.000  C
  C70      1.0000 0.17887  0.83570  0.56948  Biso   1.000  C
  C71      1.0000 0.32113  0.33570  0.93052  Biso   1.000  C
  C72      1.0000 0.67887  0.33570  0.56948  Biso   1.000  C
  Cu1      1.0000 0.00000  0.00000  0.00000  Biso   1.000  Cu
  Cu2      1.0000 0.00000  0.00000  0.50000  Biso   1.000  Cu
  Cu3      1.0000 0.50000  0.50000  0.00000  Biso   1.000  Cu
  Cu4      1.0000 0.50000  0.50000  0.50000  Biso   1.000  Cu
  O1       1.0000 0.07884  0.14290  0.04366  Biso   1.000  O
  O2       1.0000 0.92116  0.14290  0.45634  Biso   1.000  O
  O3       1.0000 0.57884  0.64290  0.04366  Biso   1.000  O
  O4       1.0000 0.42116  0.64290  0.45634  Biso   1.000  O
  O5       1.0000 0.92116  0.85710  0.95634  Biso   1.000  O
  O6       1.0000 0.07884  0.85710  0.54366  Biso   1.000  O
  O7       1.0000 0.42116  0.35710  0.95634  Biso   1.000  O
  O8       1.0000 0.57884  0.35710  0.54366  Biso   1.000  O
  O9       1.0000 0.11201  0.83450  0.99967  Biso   1.000  O
  O10      1.0000 0.88799  0.83450  0.50033  Biso   1.000  O
  O11      1.0000 0.61201  0.33450  0.99967  Biso   1.000  O
  O12      1.0000 0.38799  0.33450  0.50033  Biso   1.000  O
  O13      1.0000 0.88799  0.16550  0.00033  Biso   1.000  O
  O14      1.0000 0.11201  0.16550  0.49967  Biso   1.000  O
  O15      1.0000 0.38799  0.66550  0.00033  Biso   1.000  O
  O16      1.0000 0.61201  0.66550  0.49967  Biso   1.000  O
  O17      1.0000 0.32115  0.89840  0.04825  Biso   1.000  O
  O18      1.0000 0.67885  0.89840  0.45175  Biso   1.000  O
  O19      1.0000 0.82115  0.39840  0.04825  Biso   1.000  O
  O20      1.0000 0.17885  0.39840  0.45175  Biso   1.000  O
  O21      1.0000 0.67885  0.10160  0.95175  Biso   1.000  O
  O22      1.0000 0.32115  0.10160  0.54825  Biso   1.000  O
  O23      1.0000 0.17885  0.60160  0.95175  Biso   1.000  O
  O24      1.0000 0.82115  0.60160  0.54825  Biso   1.000  O
  O25      1.0000 0.29814  0.84370  0.21539  Biso   1.000  O
  O26      1.0000 0.70186  0.84370  0.28461  Biso   1.000  O
  O27      1.0000 0.79814  0.34370  0.21539  Biso   1.000  O
  O28      1.0000 0.20186  0.34370  0.28461  Biso   1.000  O
  O29      1.0000 0.70186  0.15630  0.78461  Biso   1.000  O
  O30      1.0000 0.29814  0.15630  0.71539  Biso   1.000  O
  O31      1.0000 0.20186  0.65630  0.78461  Biso   1.000  O
  O32      1.0000 0.79814  0.65630  0.71539  Biso   1.000  O
  O33      1.0000 0.21114  0.75540  0.21205  Biso   1.000  O
  O34      1.0000 0.78886  0.75540  0.28795  Biso   1.000  O
  O35      1.0000 0.71114  0.25540  0.21205  Biso   1.000  O
  O36      1.0000 0.28886  0.25540  0.28795  Biso   1.000  O
  O37      1.0000 0.78886  0.24460  0.78795  Biso   1.000  O
  O38      1.0000 0.21114  0.24460  0.71205  Biso   1.000  O
  O39      1.0000 0.28886  0.74460  0.78795  Biso   1.000  O
  O40      1.0000 0.71114  0.74460  0.71205  Biso   1.000  O
  O41      1.0000 0.37796  0.24340  0.10188  Biso   1.000  O
  O42      1.0000 0.62204  0.24340  0.39812  Biso   1.000  O
  O43      1.0000 0.87796  0.74340  0.10188  Biso   1.000  O
  O44      1.0000 0.12204  0.74340  0.39812  Biso   1.000  O
  O45      1.0000 0.62204  0.75660  0.89812  Biso   1.000  O
  O46      1.0000 0.37796  0.75660  0.60188  Biso   1.000  O
  O47      1.0000 0.12204  0.25660  0.89812  Biso   1.000  O
  O48      1.0000 0.87796  0.25660  0.60188  Biso   1.000  O
  N1       1.0000 0.02130  0.75980  0.08073  Biso   1.000  N
  N2       1.0000 0.97870  0.75980  0.41927  Biso   1.000  N
  N3       1.0000 0.52130  0.25980  0.08073  Biso   1.000  N
  N4       1.0000 0.47870  0.25980  0.41927  Biso   1.000  N
  N5       1.0000 0.97870  0.24020  0.91927  Biso   1.000  N
  N6       1.0000 0.02130  0.24020  0.58073  Biso   1.000  N
  N7       1.0000 0.47870  0.74020  0.91927  Biso   1.000  N
  N8       1.0000 0.52130  0.74020  0.58073  Biso   1.000  N
  C73      1.0000 0.98771  0.55170  0.07559  Biso   1.000  C
  C74      1.0000 0.01229  0.55170  0.42441  Biso   1.000  C
  C75      1.0000 0.48771  0.05170  0.07559  Biso   1.000  C
  C76      1.0000 0.51229  0.05170  0.42441  Biso   1.000  C
  C77      1.0000 0.01229  0.44830  0.92441  Biso   1.000  C
  C78      1.0000 0.98771  0.44830  0.57559  Biso   1.000  C
  C79      1.0000 0.51229  0.94830  0.92441  Biso   1.000  C
  C80      1.0000 0.48771  0.94830  0.57559  Biso   1.000  C
  C81      1.0000 0.99794  0.39010  0.12949  Biso   1.000  C
  C82      1.0000 0.00206  0.39010  0.37051  Biso   1.000  C
  C83      1.0000 0.49794  0.89010  0.12949  Biso   1.000  C
  C84      1.0000 0.50206  0.89010  0.37051  Biso   1.000  C
  C85      1.0000 0.00206  0.60990  0.87051  Biso   1.000  C
  C86      1.0000 0.99794  0.60990  0.62949  Biso   1.000  C
  C87      1.0000 0.50206  0.10990  0.87051  Biso   1.000  C
  C88      1.0000 0.49794  0.10990  0.62949  Biso   1.000  C
  C89      1.0000 0.06791  0.80890  0.14214  Biso   1.000  C
  C90      1.0000 0.93209  0.80890  0.35786  Biso   1.000  C
  C91      1.0000 0.56791  0.30890  0.14214  Biso   1.000  C
  C92      1.0000 0.43209  0.30890  0.35786  Biso   1.000  C
  C93      1.0000 0.93209  0.19110  0.85786  Biso   1.000  C
  C94      1.0000 0.06791  0.19110  0.64214  Biso   1.000  C
  C95      1.0000 0.43209  0.69110  0.85786  Biso   1.000  C
  C96      1.0000 0.56791  0.69110  0.64214  Biso   1.000  C
  C97      1.0000 0.08060  0.65910  0.19833  Biso   1.000  C
  C98      1.0000 0.91940  0.65910  0.30167  Biso   1.000  C
  C99      1.0000 0.58060  0.15910  0.19833  Biso   1.000  C
  C100     1.0000 0.41940  0.15910  0.30167  Biso   1.000  C
  C101     1.0000 0.91940  0.34090  0.80167  Biso   1.000  C
  C102     1.0000 0.08060  0.34090  0.69833  Biso   1.000  C
  C103     1.0000 0.41940  0.84090  0.80167  Biso   1.000  C
  C104     1.0000 0.58060  0.84090  0.69833  Biso   1.000  C
  S1       1.0000 0.06517  0.26413  0.26731  Biso   1.000  S
  S2       1.0000 0.93483  0.26413  0.23269  Biso   1.000  S
  S3       1.0000 0.56517  0.76413  0.26731  Biso   1.000  S
  S4       1.0000 0.43483  0.76413  0.23269  Biso   1.000  S
  S5       1.0000 0.93483  0.73587  0.73269  Biso   1.000  S
  S6       1.0000 0.06517  0.73587  0.76731  Biso   1.000  S
  S7       1.0000 0.43483  0.23587  0.73269  Biso   1.000  S
  S8       1.0000 0.56517  0.23587  0.76731  Biso   1.000  S
  C105     1.0000 0.04521  0.44490  0.19310  Biso   1.000  C
  C106     1.0000 0.95479  0.44490  0.30690  Biso   1.000  C
  C107     1.0000 0.54521  0.94490  0.19310  Biso   1.000  C
  C108     1.0000 0.45479  0.94490  0.30690  Biso   1.000  C
  C109     1.0000 0.95479  0.55510  0.80690  Biso   1.000  C
  C110     1.0000 0.04521  0.55510  0.69310  Biso   1.000  C
  C111     1.0000 0.45479  0.05510  0.80690  Biso   1.000  C
  C112     1.0000 0.54521  0.05510  0.69310  Biso   1.000  C
  C113     1.0000 0.00000  0.07550  0.25000  Biso   1.000  C
  C114     1.0000 0.50000  0.57550  0.25000  Biso   1.000  C
  C115     1.0000 0.00000  0.92450  0.75000  Biso   1.000  C
  C116     1.0000 0.50000  0.42450  0.75000  Biso   1.000  C
  H33      1.0000 0.00880  0.96390  0.28860  Biso   1.000  H
  H34      1.0000 0.99120  0.96390  0.21140  Biso   1.000  H
  H35      1.0000 0.50880  0.46390  0.28860  Biso   1.000  H
  H36      1.0000 0.49120  0.46390  0.21140  Biso   1.000  H
  H37      1.0000 0.99120  0.03610  0.71140  Biso   1.000  H
  H38      1.0000 0.00880  0.03610  0.78860  Biso   1.000  H
  H39      1.0000 0.49120  0.53610  0.71140  Biso   1.000  H
  H40      1.0000 0.50880  0.53610  0.78860  Biso   1.000  H
  H41      1.0000 0.22060  0.94900  0.02940  Biso   1.000  H
  H42      1.0000 0.77940  0.94900  0.47060  Biso   1.000  H
  H43      1.0000 0.72060  0.44900  0.02940  Biso   1.000  H
  H44      1.0000 0.27940  0.44900  0.47060  Biso   1.000  H
  H45      1.0000 0.77940  0.05100  0.97060  Biso   1.000  H
  H46      1.0000 0.22060  0.05100  0.52940  Biso   1.000  H
  H47      1.0000 0.27940  0.55100  0.97060  Biso   1.000  H
  H48      1.0000 0.72060  0.55100  0.52940  Biso   1.000  H
  H49      1.0000 0.32180  0.51500  0.15340  Biso   1.000  H
  H50      1.0000 0.67820  0.51500  0.34660  Biso   1.000  H
  H51      1.0000 0.82180  0.01500  0.15340  Biso   1.000  H
  H52      1.0000 0.17820  0.01500  0.34660  Biso   1.000  H
  H53      1.0000 0.67820  0.48500  0.84660  Biso   1.000  H
  H54      1.0000 0.32180  0.48500  0.65340  Biso   1.000  H
  H55      1.0000 0.17820  0.98500  0.84660  Biso   1.000  H
  H56      1.0000 0.82180  0.98500  0.65340  Biso   1.000  H
  H57      1.0000 0.15460  0.44000  0.11900  Biso   1.000  H
  H58      1.0000 0.84540  0.44000  0.38100  Biso   1.000  H
  H59      1.0000 0.65460  0.94000  0.11900  Biso   1.000  H
  H60      1.0000 0.34540  0.94000  0.38100  Biso   1.000  H
  H61      1.0000 0.84540  0.56000  0.88100  Biso   1.000  H
  H62      1.0000 0.15460  0.56000  0.61900  Biso   1.000  H
  H63      1.0000 0.34540  0.06000  0.88100  Biso   1.000  H
  H64      1.0000 0.65460  0.06000  0.61900  Biso   1.000  H
  H65      1.0000 0.29710  0.97300  0.24300  Biso   1.000  H
  H66      1.0000 0.70290  0.97300  0.25700  Biso   1.000  H
  H67      1.0000 0.79710  0.47300  0.24300  Biso   1.000  H
  H68      1.0000 0.20290  0.47300  0.25700  Biso   1.000  H
  H69      1.0000 0.70290  0.02700  0.75700  Biso   1.000  H
  H70      1.0000 0.29710  0.02700  0.74300  Biso   1.000  H
  H71      1.0000 0.20290  0.52700  0.75700  Biso   1.000  H
  H72      1.0000 0.79710  0.52700  0.74300  Biso   1.000  H
  H73      1.0000 0.35000  0.85300  0.04000  Biso   1.000  H
  H74      1.0000 0.65000  0.85300  0.46000  Biso   1.000  H
  H75      1.0000 0.85000  0.35300  0.04000  Biso   1.000  H
  H76      1.0000 0.15000  0.35300  0.46000  Biso   1.000  H
  H77      1.0000 0.65000  0.14700  0.96000  Biso   1.000  H
  H78      1.0000 0.35000  0.14700  0.54000  Biso   1.000  H
  H79      1.0000 0.15000  0.64700  0.96000  Biso   1.000  H
  H80      1.0000 0.85000  0.64700  0.54000  Biso   1.000  H
