data_image0
_cell_length_a       15.7082
_cell_length_b       15.7594
_cell_length_c       6.3624
_cell_angle_alpha    90
_cell_angle_beta     90
_cell_angle_gamma    90

_symmetry_space_group_name_H-M    "P 1"
_symmetry_int_tables_number       1

loop_
  _symmetry_equiv_pos_as_xyz
  'x, y, z'

loop_
  _atom_site_label
  _atom_site_occupancy
  _atom_site_fract_x
  _atom_site_fract_y
  _atom_site_fract_z
  _atom_site_thermal_displace_type
  _atom_site_B_iso_or_equiv
  _atom_site_type_symbol
  Cu1      1.0000 0.14215  0.48856  0.99285  Biso   1.000  Cu
  Cu2      1.0000 0.85785  0.51144  0.49285  Biso   1.000  Cu
  Cu3      1.0000 0.35785  0.98856  0.49285  Biso   1.000  Cu
  Cu4      1.0000 0.64215  0.01144  0.99285  Biso   1.000  Cu
  S1       1.0000 0.43465  0.48254  0.12940  Biso   1.000  S
  S2       1.0000 0.56535  0.51746  0.62940  Biso   1.000  S
  S3       1.0000 0.06535  0.98254  0.62940  Biso   1.000  S
  S4       1.0000 0.93465  0.01746  0.12940  Biso   1.000  S
  S5       1.0000 0.84536  0.51391  0.04335  Biso   1.000  S
  S6       1.0000 0.15464  0.48609  0.54335  Biso   1.000  S
  S7       1.0000 0.65464  0.01391  0.54335  Biso   1.000  S
  S8       1.0000 0.34536  0.98609  0.04335  Biso   1.000  S
  N1       1.0000 0.13748  0.61641  0.01820  Biso   1.000  N
  N2       1.0000 0.86252  0.38359  0.51820  Biso   1.000  N
  N3       1.0000 0.36252  0.11641  0.51820  Biso   1.000  N
  N4       1.0000 0.63748  0.88359  0.01820  Biso   1.000  N
  N5       1.0000 0.11600  0.87620  0.09880  Biso   1.000  N
  N6       1.0000 0.88400  0.12380  0.59880  Biso   1.000  N
  N7       1.0000 0.38400  0.37620  0.59880  Biso   1.000  N
  N8       1.0000 0.61600  0.62380  0.09880  Biso   1.000  N
  H1       1.0000 0.08470  0.90580  0.01570  Biso   1.000  H
  H2       1.0000 0.91530  0.09420  0.51570  Biso   1.000  H
  H3       1.0000 0.41530  0.40580  0.51570  Biso   1.000  H
  H4       1.0000 0.58470  0.59420  0.01570  Biso   1.000  H
  H5       1.0000 0.14330  0.90060  0.19930  Biso   1.000  H
  H6       1.0000 0.85670  0.09940  0.69930  Biso   1.000  H
  H7       1.0000 0.35670  0.40060  0.69930  Biso   1.000  H
  H8       1.0000 0.64330  0.59940  0.19930  Biso   1.000  H
  N9       1.0000 0.14255  0.36081  0.02010  Biso   1.000  N
  N10      1.0000 0.85745  0.63919  0.52010  Biso   1.000  N
  N11      1.0000 0.35745  0.86081  0.52010  Biso   1.000  N
  N12      1.0000 0.64255  0.13919  0.02010  Biso   1.000  N
  N13      1.0000 0.14048  0.09792  0.07500  Biso   1.000  N
  N14      1.0000 0.85952  0.90208  0.57500  Biso   1.000  N
  N15      1.0000 0.35952  0.59792  0.57500  Biso   1.000  N
  N16      1.0000 0.64048  0.40208  0.07500  Biso   1.000  N
  H9       1.0000 0.11030  0.06760  0.99070  Biso   1.000  H
  H10      1.0000 0.88970  0.93240  0.49070  Biso   1.000  H
  H11      1.0000 0.38970  0.56760  0.49070  Biso   1.000  H
  H12      1.0000 0.61030  0.43240  0.99070  Biso   1.000  H
  H13      1.0000 0.17130  0.07380  0.16940  Biso   1.000  H
  H14      1.0000 0.82870  0.92620  0.66940  Biso   1.000  H
  H15      1.0000 0.32870  0.57380  0.66940  Biso   1.000  H
  H16      1.0000 0.67130  0.42620  0.16940  Biso   1.000  H
  N17      1.0000 0.26627  0.49063  0.01310  Biso   1.000  N
  N18      1.0000 0.73373  0.50937  0.51310  Biso   1.000  N
  N19      1.0000 0.23373  0.99063  0.51310  Biso   1.000  N
  N20      1.0000 0.76627  0.00937  0.01310  Biso   1.000  N
  N21      1.0000 0.01849  0.48659  0.98970  Biso   1.000  N
  N22      1.0000 0.98151  0.51341  0.48970  Biso   1.000  N
  N23      1.0000 0.48151  0.98659  0.48970  Biso   1.000  N
  N24      1.0000 0.51849  0.01341  0.98970  Biso   1.000  N
  C1       1.0000 0.08860  0.66440  0.89220  Biso   1.000  C
  C2       1.0000 0.91140  0.33560  0.39220  Biso   1.000  C
  C3       1.0000 0.41140  0.16440  0.39220  Biso   1.000  C
  C4       1.0000 0.58860  0.83560  0.89220  Biso   1.000  C
  H17      1.0000 0.05880  0.63770  0.78460  Biso   1.000  H
  H18      1.0000 0.94120  0.36230  0.28460  Biso   1.000  H
  H19      1.0000 0.44120  0.13770  0.28460  Biso   1.000  H
  H20      1.0000 0.55880  0.86230  0.78460  Biso   1.000  H
  C5       1.0000 0.08020  0.74970  0.91310  Biso   1.000  C
  C6       1.0000 0.91980  0.25030  0.41310  Biso   1.000  C
  C7       1.0000 0.41980  0.24970  0.41310  Biso   1.000  C
  C8       1.0000 0.58020  0.75030  0.91310  Biso   1.000  C
  H21      1.0000 0.04580  0.77990  0.82040  Biso   1.000  H
  H22      1.0000 0.95420  0.22010  0.32040  Biso   1.000  H
  H23      1.0000 0.45420  0.27990  0.32040  Biso   1.000  H
  H24      1.0000 0.54580  0.72010  0.82040  Biso   1.000  H
  C9       1.0000 0.12250  0.79150  0.07140  Biso   1.000  C
  C10      1.0000 0.87750  0.20850  0.57140  Biso   1.000  C
  C11      1.0000 0.37750  0.29150  0.57140  Biso   1.000  C
  C12      1.0000 0.62250  0.70850  0.07140  Biso   1.000  C
  C13      1.0000 0.17320  0.74200  0.20350  Biso   1.000  C
  C14      1.0000 0.82680  0.25800  0.70350  Biso   1.000  C
  C15      1.0000 0.32680  0.24200  0.70350  Biso   1.000  C
  C16      1.0000 0.67320  0.75800  0.20350  Biso   1.000  C
  H25      1.0000 0.20280  0.76690  0.31400  Biso   1.000  H
  H26      1.0000 0.79720  0.23310  0.81400  Biso   1.000  H
  H27      1.0000 0.29720  0.26690  0.81400  Biso   1.000  H
  H28      1.0000 0.70280  0.73310  0.31400  Biso   1.000  H
  C17      1.0000 0.17900  0.65760  0.16980  Biso   1.000  C
  C18      1.0000 0.82100  0.34240  0.66980  Biso   1.000  C
  C19      1.0000 0.32100  0.15760  0.66980  Biso   1.000  C
  C20      1.0000 0.67900  0.84240  0.16980  Biso   1.000  C
  H29      1.0000 0.21420  0.62630  0.25800  Biso   1.000  H
  H30      1.0000 0.78580  0.37370  0.75800  Biso   1.000  H
  H31      1.0000 0.28580  0.12630  0.75800  Biso   1.000  H
  H32      1.0000 0.71420  0.87370  0.25800  Biso   1.000  H
  C21      1.0000 0.18860  0.32040  0.16390  Biso   1.000  C
  C22      1.0000 0.81140  0.67960  0.66390  Biso   1.000  C
  C23      1.0000 0.31140  0.82040  0.66390  Biso   1.000  C
  C24      1.0000 0.68860  0.17960  0.16390  Biso   1.000  C
  H33      1.0000 0.22320  0.35260  0.25160  Biso   1.000  H
  H34      1.0000 0.77680  0.64740  0.75160  Biso   1.000  H
  H35      1.0000 0.27680  0.85260  0.75160  Biso   1.000  H
  H36      1.0000 0.72320  0.14740  0.25160  Biso   1.000  H
  C25      1.0000 0.18840  0.23480  0.19070  Biso   1.000  C
  C26      1.0000 0.81160  0.76520  0.69070  Biso   1.000  C
  C27      1.0000 0.31160  0.73480  0.69070  Biso   1.000  C
  C28      1.0000 0.68840  0.26520  0.19070  Biso   1.000  C
  H37      1.0000 0.22090  0.21030  0.29680  Biso   1.000  H
  H38      1.0000 0.77910  0.78970  0.79680  Biso   1.000  H
  H39      1.0000 0.27910  0.71030  0.79680  Biso   1.000  H
  H40      1.0000 0.72090  0.28970  0.29680  Biso   1.000  H
  C29      1.0000 0.13940  0.18370  0.05910  Biso   1.000  C
  C30      1.0000 0.86060  0.81630  0.55910  Biso   1.000  C
  C31      1.0000 0.36060  0.68370  0.55910  Biso   1.000  C
  C32      1.0000 0.63940  0.31630  0.05910  Biso   1.000  C
  C33      1.0000 0.09070  0.22590  0.90920  Biso   1.000  C
  C34      1.0000 0.90930  0.77410  0.40920  Biso   1.000  C
  C35      1.0000 0.40930  0.72590  0.40920  Biso   1.000  C
  C36      1.0000 0.59070  0.27410  0.90920  Biso   1.000  C
  H41      1.0000 0.05600  0.19520  0.81840  Biso   1.000  H
  H42      1.0000 0.94400  0.80480  0.31840  Biso   1.000  H
  H43      1.0000 0.44400  0.69520  0.31840  Biso   1.000  H
  H44      1.0000 0.55600  0.30480  0.81840  Biso   1.000  H
  C37      1.0000 0.09380  0.31170  0.89560  Biso   1.000  C
  C38      1.0000 0.90620  0.68830  0.39560  Biso   1.000  C
  C39      1.0000 0.40620  0.81170  0.39560  Biso   1.000  C
  C40      1.0000 0.59380  0.18830  0.89560  Biso   1.000  C
  H45      1.0000 0.06030  0.33820  0.79440  Biso   1.000  H
  H46      1.0000 0.93970  0.66180  0.29440  Biso   1.000  H
  H47      1.0000 0.43970  0.83820  0.29440  Biso   1.000  H
  H48      1.0000 0.56030  0.16180  0.79440  Biso   1.000  H
  C41      1.0000 0.94712  0.49840  0.01060  Biso   1.000  C
  C42      1.0000 0.05288  0.50160  0.51060  Biso   1.000  C
  C43      1.0000 0.55288  0.99840  0.51060  Biso   1.000  C
  C44      1.0000 0.44712  0.00160  0.01060  Biso   1.000  C
  C45      1.0000 0.33640  0.48806  0.06240  Biso   1.000  C
  C46      1.0000 0.66360  0.51194  0.56240  Biso   1.000  C
  C47      1.0000 0.16360  0.98806  0.56240  Biso   1.000  C
  C48      1.0000 0.83640  0.01194  0.06240  Biso   1.000  C
