data_image0
_cell_length_a       15.6369
_cell_length_b       15.6322
_cell_length_c       6.3057
_cell_angle_alpha    90
_cell_angle_beta     90
_cell_angle_gamma    90

_symmetry_space_group_name_H-M    "P 1"
_symmetry_int_tables_number       1

loop_
  _symmetry_equiv_pos_as_xyz
  'x, y, z'

loop_
  _atom_site_label
  _atom_site_occupancy
  _atom_site_fract_x
  _atom_site_fract_y
  _atom_site_fract_z
  _atom_site_thermal_displace_type
  _atom_site_B_iso_or_equiv
  _atom_site_type_symbol
  Cu1      1.0000 0.51964  0.85838  0.62696  Biso   1.000  Cu
  Cu2      1.0000 0.48036  0.14162  0.12696  Biso   1.000  Cu
  Cu3      1.0000 0.98036  0.35838  0.62696  Biso   1.000  Cu
  Cu4      1.0000 0.01964  0.64162  0.12696  Biso   1.000  Cu
  S1       1.0000 0.47569  0.15422  0.57511  Biso   1.000  S
  S2       1.0000 0.52431  0.84578  0.07511  Biso   1.000  S
  S3       1.0000 0.02431  0.65422  0.57511  Biso   1.000  S
  S4       1.0000 0.97569  0.34578  0.07511  Biso   1.000  S
  S5       1.0000 0.52561  0.56197  0.48668  Biso   1.000  S
  S6       1.0000 0.47439  0.43803  0.98668  Biso   1.000  S
  S7       1.0000 0.97439  0.06197  0.48668  Biso   1.000  S
  S8       1.0000 0.02561  0.93803  0.98668  Biso   1.000  S
  N1       1.0000 0.52178  0.98359  0.63480  Biso   1.000  N
  N2       1.0000 0.47822  0.01641  0.13480  Biso   1.000  N
  N3       1.0000 0.97822  0.48359  0.63480  Biso   1.000  N
  N4       1.0000 0.02178  0.51641  0.13480  Biso   1.000  N
  N5       1.0000 0.51575  0.73369  0.60330  Biso   1.000  N
  N6       1.0000 0.48425  0.26631  0.10330  Biso   1.000  N
  N7       1.0000 0.98425  0.23369  0.60330  Biso   1.000  N
  N8       1.0000 0.01575  0.76631  0.10330  Biso   1.000  N
  N9       1.0000 0.64822  0.85678  0.59720  Biso   1.000  N
  N10      1.0000 0.35178  0.14322  0.09720  Biso   1.000  N
  N11      1.0000 0.85178  0.35678  0.59720  Biso   1.000  N
  N12      1.0000 0.14822  0.64322  0.09720  Biso   1.000  N
  N13      1.0000 0.39121  0.86467  0.60060  Biso   1.000  N
  N14      1.0000 0.60879  0.13533  0.10060  Biso   1.000  N
  N15      1.0000 0.10879  0.36467  0.60060  Biso   1.000  N
  N16      1.0000 0.89121  0.63533  0.10060  Biso   1.000  N
  N17      1.0000 0.91354  0.85427  0.54440  Biso   1.000  N
  N18      1.0000 0.08646  0.14573  0.04440  Biso   1.000  N
  N19      1.0000 0.58646  0.35427  0.54440  Biso   1.000  N
  N20      1.0000 0.41354  0.64573  0.04440  Biso   1.000  N
  H1       1.0000 0.93700  0.82200  0.47700  Biso   1.000  H
  H2       1.0000 0.06300  0.17800  0.97700  Biso   1.000  H
  H3       1.0000 0.56300  0.32200  0.47700  Biso   1.000  H
  H4       1.0000 0.43700  0.67800  0.97700  Biso   1.000  H
  H5       1.0000 0.93600  0.87700  0.62400  Biso   1.000  H
  H6       1.0000 0.06400  0.12300  0.12400  Biso   1.000  H
  H7       1.0000 0.56400  0.37700  0.62400  Biso   1.000  H
  H8       1.0000 0.43600  0.62300  0.12400  Biso   1.000  H
  N21      1.0000 0.12856  0.89170  0.50920  Biso   1.000  N
  N22      1.0000 0.87144  0.10830  0.00920  Biso   1.000  N
  N23      1.0000 0.37144  0.39170  0.50920  Biso   1.000  N
  N24      1.0000 0.62856  0.60830  0.00920  Biso   1.000  N
  H9       1.0000 0.10800  0.92200  0.59000  Biso   1.000  H
  H10      1.0000 0.89200  0.07800  0.09000  Biso   1.000  H
  H11      1.0000 0.39200  0.42200  0.59000  Biso   1.000  H
  H12      1.0000 0.60800  0.57800  0.09000  Biso   1.000  H
  H13      1.0000 0.11700  0.88200  0.40500  Biso   1.000  H
  H14      1.0000 0.88300  0.11800  0.90500  Biso   1.000  H
  H15      1.0000 0.38300  0.38200  0.40500  Biso   1.000  H
  H16      1.0000 0.61700  0.61800  0.90500  Biso   1.000  H
  C1       1.0000 0.50247  0.05382  0.61160  Biso   1.000  C
  C2       1.0000 0.49753  0.94618  0.11160  Biso   1.000  C
  C3       1.0000 0.99753  0.55382  0.61160  Biso   1.000  C
  C4       1.0000 0.00247  0.44618  0.11160  Biso   1.000  C
  C5       1.0000 0.51898  0.66250  0.55300  Biso   1.000  C
  C6       1.0000 0.48102  0.33750  0.05300  Biso   1.000  C
  C7       1.0000 0.98102  0.16250  0.55300  Biso   1.000  C
  C8       1.0000 0.01898  0.83750  0.05300  Biso   1.000  C
  C9       1.0000 0.69777  0.90604  0.72200  Biso   1.000  C
  C10      1.0000 0.30223  0.09396  0.22200  Biso   1.000  C
  C11      1.0000 0.80223  0.40604  0.72200  Biso   1.000  C
  C12      1.0000 0.19777  0.59396  0.22200  Biso   1.000  C
  H17      1.0000 0.67070  0.94170  0.82390  Biso   1.000  H
  H18      1.0000 0.32930  0.05830  0.32390  Biso   1.000  H
  H19      1.0000 0.82930  0.44170  0.82390  Biso   1.000  H
  H20      1.0000 0.17070  0.55830  0.32390  Biso   1.000  H
  C13      1.0000 0.78607  0.90742  0.70960  Biso   1.000  C
  C14      1.0000 0.21393  0.09258  0.20960  Biso   1.000  C
  C15      1.0000 0.71393  0.40742  0.70960  Biso   1.000  C
  C16      1.0000 0.28607  0.59258  0.20960  Biso   1.000  C
  H21      1.0000 0.81840  0.94300  0.80170  Biso   1.000  H
  H22      1.0000 0.18160  0.05700  0.30170  Biso   1.000  H
  H23      1.0000 0.68160  0.44300  0.80170  Biso   1.000  H
  H24      1.0000 0.31840  0.55700  0.30170  Biso   1.000  H
  C17      1.0000 0.82709  0.85595  0.56020  Biso   1.000  C
  C18      1.0000 0.17291  0.14405  0.06020  Biso   1.000  C
  C19      1.0000 0.67291  0.35595  0.56020  Biso   1.000  C
  C20      1.0000 0.32709  0.64405  0.06020  Biso   1.000  C
  C21      1.0000 0.77555  0.80638  0.42640  Biso   1.000  C
  C22      1.0000 0.22445  0.19362  0.92640  Biso   1.000  C
  C23      1.0000 0.72445  0.30638  0.42640  Biso   1.000  C
  C24      1.0000 0.27555  0.69362  0.92640  Biso   1.000  C
  H25      1.0000 0.80060  0.77180  0.31920  Biso   1.000  H
  H26      1.0000 0.19940  0.22820  0.81920  Biso   1.000  H
  H27      1.0000 0.69940  0.27180  0.31920  Biso   1.000  H
  H28      1.0000 0.30060  0.72820  0.81920  Biso   1.000  H
  C25      1.0000 0.68842  0.80833  0.45210  Biso   1.000  C
  C26      1.0000 0.31158  0.19167  0.95210  Biso   1.000  C
  C27      1.0000 0.81158  0.30833  0.45210  Biso   1.000  C
  C28      1.0000 0.18842  0.69167  0.95210  Biso   1.000  C
  H29      1.0000 0.65450  0.77340  0.36190  Biso   1.000  H
  H30      1.0000 0.34550  0.22660  0.86190  Biso   1.000  H
  H31      1.0000 0.84550  0.27340  0.36190  Biso   1.000  H
  H32      1.0000 0.15450  0.72660  0.86190  Biso   1.000  H
  C29      1.0000 0.34256  0.91425  0.72770  Biso   1.000  C
  C30      1.0000 0.65744  0.08575  0.22770  Biso   1.000  C
  C31      1.0000 0.15744  0.41425  0.72770  Biso   1.000  C
  C32      1.0000 0.84256  0.58575  0.22770  Biso   1.000  C
  H33      1.0000 0.37010  0.94410  0.83990  Biso   1.000  H
  H34      1.0000 0.62990  0.05590  0.33990  Biso   1.000  H
  H35      1.0000 0.12990  0.44410  0.83990  Biso   1.000  H
  H36      1.0000 0.87010  0.55590  0.33990  Biso   1.000  H
  C33      1.0000 0.25592  0.92428  0.70500  Biso   1.000  C
  C34      1.0000 0.74408  0.07572  0.20500  Biso   1.000  C
  C35      1.0000 0.24408  0.42428  0.70500  Biso   1.000  C
  C36      1.0000 0.75592  0.57572  0.20500  Biso   1.000  C
  H37      1.0000 0.22490  0.95930  0.80120  Biso   1.000  H
  H38      1.0000 0.77510  0.04070  0.30120  Biso   1.000  H
  H39      1.0000 0.27510  0.45930  0.80120  Biso   1.000  H
  H40      1.0000 0.72490  0.54070  0.30120  Biso   1.000  H
  C37      1.0000 0.21356  0.88270  0.53980  Biso   1.000  C
  C38      1.0000 0.78644  0.11730  0.03980  Biso   1.000  C
  C39      1.0000 0.28644  0.38270  0.53980  Biso   1.000  C
  C40      1.0000 0.71356  0.61730  0.03980  Biso   1.000  C
  C41      1.0000 0.26310  0.83160  0.40660  Biso   1.000  C
  C42      1.0000 0.73690  0.16840  0.90660  Biso   1.000  C
  C43      1.0000 0.23690  0.33160  0.40660  Biso   1.000  C
  C44      1.0000 0.76310  0.66840  0.90660  Biso   1.000  C
  H41      1.0000 0.23730  0.80240  0.29100  Biso   1.000  H
  H42      1.0000 0.76270  0.19760  0.79100  Biso   1.000  H
  H43      1.0000 0.26270  0.30240  0.29100  Biso   1.000  H
  H44      1.0000 0.73730  0.69760  0.79100  Biso   1.000  H
  C45      1.0000 0.34942  0.82364  0.44320  Biso   1.000  C
  C46      1.0000 0.65058  0.17636  0.94320  Biso   1.000  C
  C47      1.0000 0.15058  0.32364  0.44320  Biso   1.000  C
  C48      1.0000 0.84942  0.67636  0.94320  Biso   1.000  C
  H45      1.0000 0.38150  0.78720  0.35260  Biso   1.000  H
  H46      1.0000 0.61850  0.21280  0.85260  Biso   1.000  H
  H47      1.0000 0.11850  0.28720  0.35260  Biso   1.000  H
  H48      1.0000 0.88150  0.71280  0.85260  Biso   1.000  H
