data_image0
_cell_length_a       10.005
_cell_length_b       10.285
_cell_length_c       13.167
_cell_angle_alpha    106.84
_cell_angle_beta     96.26
_cell_angle_gamma    111.225

_symmetry_space_group_name_H-M    "P 1"
_symmetry_int_tables_number       1

loop_
  _symmetry_equiv_pos_as_xyz
  'x, y, z'

loop_
  _atom_site_label
  _atom_site_occupancy
  _atom_site_fract_x
  _atom_site_fract_y
  _atom_site_fract_z
  _atom_site_thermal_displace_type
  _atom_site_B_iso_or_equiv
  _atom_site_type_symbol
  Mo1      1.0000 0.47526  0.14880  0.40120  Biso   1.000  Mo
  Mo2      1.0000 0.52474  0.85120  0.59880  Biso   1.000  Mo
  O1       1.0000 0.64220  0.23490  0.52160  Biso   1.000  O
  O2       1.0000 0.35780  0.76510  0.47840  Biso   1.000  O
  O3       1.0000 0.46330  0.36630  0.50730  Biso   1.000  O
  O4       1.0000 0.53670  0.63370  0.49270  Biso   1.000  O
  O5       1.0000 0.32880  0.15160  0.28440  Biso   1.000  O
  O6       1.0000 0.67120  0.84840  0.71560  Biso   1.000  O
  O7       1.0000 0.51790  0.01790  0.31670  Biso   1.000  O
  O8       1.0000 0.48210  0.98210  0.68330  Biso   1.000  O
  O9       1.0000 0.34030  0.05230  0.45490  Biso   1.000  O
  O10      1.0000 0.65970  0.94770  0.54510  Biso   1.000  O
  O11      1.0000 0.60350  0.33680  0.35380  Biso   1.000  O
  O12      1.0000 0.39650  0.66320  0.64620  Biso   1.000  O
  Cu1      1.0000 0.80398  0.18546  0.56954  Biso   1.000  Cu
  Cu2      1.0000 0.19602  0.81454  0.43046  Biso   1.000  Cu
  Cu3      1.0000 0.60677  0.38194  0.62917  Biso   1.000  Cu
  Cu4      1.0000 0.39323  0.61806  0.37083  Biso   1.000  Cu
  Mo3      1.0000 0.65531  0.53226  0.44028  Biso   1.000  Mo
  Mo4      1.0000 0.34469  0.46774  0.55972  Biso   1.000  Mo
  Mo5      1.0000 0.38147  0.27869  0.20740  Biso   1.000  Mo
  Mo6      1.0000 0.61853  0.72131  0.79260  Biso   1.000  Mo
  N1       1.0000 0.86800  0.17430  0.43260  Biso   1.000  N
  N2       1.0000 0.13200  0.82570  0.56740  Biso   1.000  N
  O13      1.0000 0.96430  0.13710  0.61760  Biso   1.000  O
  O14      1.0000 0.03570  0.86290  0.38240  Biso   1.000  O
  N3       1.0000 0.78770  0.26480  0.72260  Biso   1.000  N
  N4       1.0000 0.21230  0.73520  0.27740  Biso   1.000  N
  O15      1.0000 0.76920  0.56000  0.55840  Biso   1.000  O
  O16      1.0000 0.23080  0.44000  0.44160  Biso   1.000  O
  O17      1.0000 0.54350  0.52140  0.71550  Biso   1.000  O
  O18      1.0000 0.45650  0.47860  0.28450  Biso   1.000  O
  N5       1.0000 0.70730  0.34800  0.74830  Biso   1.000  N
  N6       1.0000 0.29270  0.65200  0.25170  Biso   1.000  N
  O19      1.0000 0.76880  0.63610  0.37920  Biso   1.000  O
  O20      1.0000 0.23120  0.36390  0.62080  Biso   1.000  O
  O21      1.0000 0.21550  0.23950  0.12650  Biso   1.000  O
  O22      1.0000 0.78450  0.76050  0.87350  Biso   1.000  O
  O23      1.0000 0.48720  0.24240  0.11840  Biso   1.000  O
  O24      1.0000 0.51280  0.75760  0.88160  Biso   1.000  O
  N7       1.0000 0.95320  0.09740  0.40320  Biso   1.000  N
  N8       1.0000 0.04680  0.90260  0.59680  Biso   1.000  N
  C1       1.0000 0.84220  0.22030  0.35360  Biso   1.000  C
  C2       1.0000 0.15780  0.77970  0.64640  Biso   1.000  C
  Cu5      1.0000 0.00000  0.00000  0.50000  Biso   1.000  Cu
  H1       1.0000 0.04260  0.21720  0.64580  Biso   1.000  H
  H2       1.0000 0.95740  0.78280  0.35420  Biso   1.000  H
  C3       1.0000 0.97540  0.10110  0.30840  Biso   1.000  C
  C4       1.0000 0.02460  0.89890  0.69160  Biso   1.000  C
  N9       1.0000 0.90650  0.17640  0.27400  Biso   1.000  N
  N10      1.0000 0.09350  0.82360  0.72600  Biso   1.000  N
  H3       1.0000 0.78690  0.27580  0.35230  Biso   1.000  H
  H4       1.0000 0.21310  0.72420  0.64770  Biso   1.000  H
  H5       1.0000 0.03080  0.05800  0.27020  Biso   1.000  H
  H6       1.0000 0.96920  0.94200  0.72980  Biso   1.000  H
  C5       1.0000 0.89230  0.19740  0.16760  Biso   1.000  C
  C6       1.0000 0.10770  0.80260  0.83240  Biso   1.000  C
  H7       1.0000 0.96600  0.17310  0.13240  Biso   1.000  H
  H8       1.0000 0.03400  0.82690  0.86760  Biso   1.000  H
  C7       1.0000 0.74100  0.09370  0.09360  Biso   1.000  C
  C8       1.0000 0.25900  0.90630  0.90640  Biso   1.000  C
  C9       1.0000 0.92310  0.35720  0.18380  Biso   1.000  C
  C10      1.0000 0.07690  0.64280  0.81620  Biso   1.000  C
  H9       1.0000 0.66610  0.11540  0.12700  Biso   1.000  H
  H10      1.0000 0.33390  0.88460  0.87300  Biso   1.000  H
  H11      1.0000 0.72360  0.99120  0.08360  Biso   1.000  H
  H12      1.0000 0.27640  0.00880  0.91640  Biso   1.000  H
  C11      1.0000 0.73020  0.11310  0.98370  Biso   1.000  C
  C12      1.0000 0.26980  0.88690  0.01630  Biso   1.000  C
  H13      1.0000 0.02070  0.42170  0.23120  Biso   1.000  H
  H14      1.0000 0.97930  0.57830  0.76880  Biso   1.000  H
  H15      1.0000 0.85160  0.38380  0.21890  Biso   1.000  H
  H16      1.0000 0.14840  0.61620  0.78110  Biso   1.000  H
  C13      1.0000 0.91460  0.38020  0.07490  Biso   1.000  C
  C14      1.0000 0.08540  0.61980  0.92510  Biso   1.000  C
  H17      1.0000 0.79850  0.08190  0.94720  Biso   1.000  H
  H18      1.0000 0.20150  0.91810  0.05280  Biso   1.000  H
  H19      1.0000 0.63110  0.05030  0.93830  Biso   1.000  H
  H20      1.0000 0.36890  0.94970  0.06170  Biso   1.000  H
  C15      1.0000 0.76580  0.27380  0.99740  Biso   1.000  C
  C16      1.0000 0.23420  0.72620  0.00260  Biso   1.000  C
  H21      1.0000 0.92900  0.48220  0.08620  Biso   1.000  H
  H22      1.0000 0.07100  0.51780  0.91380  Biso   1.000  H
  H23      1.0000 0.99250  0.36310  0.04320  Biso   1.000  H
  H24      1.0000 0.00750  0.63690  0.95680  Biso   1.000  H
  N11      1.0000 0.76040  0.28990  0.88830  Biso   1.000  N
  N12      1.0000 0.23960  0.71010  0.11170  Biso   1.000  N
  H25      1.0000 0.68970  0.29990  0.02740  Biso   1.000  H
  H26      1.0000 0.31030  0.70010  0.97260  Biso   1.000  H
  C17      1.0000 0.81900  0.23130  0.80820  Biso   1.000  C
  C18      1.0000 0.18100  0.76870  0.19180  Biso   1.000  C
  C19      1.0000 0.69370  0.36240  0.84790  Biso   1.000  C
  C20      1.0000 0.30630  0.63760  0.15210  Biso   1.000  C
  H27      1.0000 0.87320  0.17570  0.81330  Biso   1.000  H
  H28      1.0000 0.12680  0.82430  0.18670  Biso   1.000  H
  H29      1.0000 0.64490  0.41510  0.88540  Biso   1.000  H
  H30      1.0000 0.35510  0.58490  0.11460  Biso   1.000  H
  O25      1.0000 0.90400  0.81660  0.09540  Biso   1.000  O
  O26      1.0000 0.09600  0.18340  0.90460  Biso   1.000  O
  H31      1.0000 0.87030  0.80210  0.02910  Biso   1.000  H
  H32      1.0000 0.12970  0.19790  0.97090  Biso   1.000  H
  H33      1.0000 0.84310  0.74950  0.11320  Biso   1.000  H
  H34      1.0000 0.15690  0.25050  0.88680  Biso   1.000  H
  O27      1.0000 0.66400  0.76800  0.23200  Biso   1.000  O
  O28      1.0000 0.33600  0.23200  0.76800  Biso   1.000  O
  O29      1.0000 0.70700  0.59950  0.14550  Biso   1.000  O
  O30      1.0000 0.29300  0.40050  0.85450  Biso   1.000  O
  O31      1.0000 0.64900  0.79930  0.26900  Biso   1.000  O
  O32      1.0000 0.35100  0.20070  0.73100  Biso   1.000  O
  O33      1.0000 0.53700  0.49100  0.03530  Biso   1.000  O
  O34      1.0000 0.46300  0.50900  0.96470  Biso   1.000  O
