data_image0
_cell_length_a       10.988
_cell_length_b       14.253
_cell_length_c       11.358
_cell_angle_alpha    90
_cell_angle_beta     108.93
_cell_angle_gamma    90

_symmetry_space_group_name_H-M    "P 1"
_symmetry_int_tables_number       1

loop_
  _symmetry_equiv_pos_as_xyz
  'x, y, z'

loop_
  _atom_site_label
  _atom_site_occupancy
  _atom_site_fract_x
  _atom_site_fract_y
  _atom_site_fract_z
  _atom_site_thermal_displace_type
  _atom_site_B_iso_or_equiv
  _atom_site_type_symbol
  Cu1      1.0000 0.11872  0.71205  0.36524  Biso   1.000  Cu
  Cu2      1.0000 0.88128  0.21205  0.63476  Biso   1.000  Cu
  O1       1.0000 0.00734  0.62492  0.24442  Biso   1.000  O
  O2       1.0000 0.99266  0.12492  0.75558  Biso   1.000  O
  O3       1.0000 0.11978  0.61831  0.11040  Biso   1.000  O
  O4       1.0000 0.88022  0.11831  0.88960  Biso   1.000  O
  O5       1.0000 0.04875  0.32435  0.88060  Biso   1.000  O
  O6       1.0000 0.95125  0.82435  0.11940  Biso   1.000  O
  O7       1.0000 0.84890  0.29989  0.74965  Biso   1.000  O
  O8       1.0000 0.15110  0.79989  0.25035  Biso   1.000  O
  O9       1.0000 0.31842  0.64499  0.39690  Biso   1.000  O
  O10      1.0000 0.68158  0.14499  0.60310  Biso   1.000  O
  O11      1.0000 0.35230  0.66321  0.21460  Biso   1.000  O
  O12      1.0000 0.64770  0.16321  0.78540  Biso   1.000  O
  H1       1.0000 0.27440  0.64800  0.18600  Biso   1.000  H
  H2       1.0000 0.72560  0.14800  0.81400  Biso   1.000  H
  O13      1.0000 0.77957  0.76276  0.20830  Biso   1.000  O
  O14      1.0000 0.22043  0.26276  0.79170  Biso   1.000  O
  H3       1.0000 0.83530  0.78270  0.17840  Biso   1.000  H
  H4       1.0000 0.16470  0.28270  0.82160  Biso   1.000  H
  O15      1.0000 0.93276  0.79200  0.38990  Biso   1.000  O
  O16      1.0000 0.06724  0.29200  0.61010  Biso   1.000  O
  N1       1.0000 0.20220  0.80710  0.50370  Biso   1.000  N
  N2       1.0000 0.79780  0.30710  0.49630  Biso   1.000  N
  N3       1.0000 0.10480  0.63783  0.51180  Biso   1.000  N
  N4       1.0000 0.89520  0.13783  0.48820  Biso   1.000  N
  C1       1.0000 0.92200  0.54060  0.05320  Biso   1.000  C
  C2       1.0000 0.07800  0.04060  0.94680  Biso   1.000  C
  C3       1.0000 0.96450  0.47160  0.99100  Biso   1.000  C
  C4       1.0000 0.03550  0.97160  0.00900  Biso   1.000  C
  H5       1.0000 0.05420  0.46340  0.00700  Biso   1.000  H
  H6       1.0000 0.94580  0.96340  0.99300  Biso   1.000  H
  C5       1.0000 0.87780  0.41380  0.90500  Biso   1.000  C
  C6       1.0000 0.12220  0.91380  0.09500  Biso   1.000  C
  C7       1.0000 0.74780  0.42800  0.88010  Biso   1.000  C
  C8       1.0000 0.25220  0.92800  0.11990  Biso   1.000  C
  H7       1.0000 0.68870  0.38940  0.82010  Biso   1.000  H
  H8       1.0000 0.31130  0.88940  0.17990  Biso   1.000  H
  C9       1.0000 0.69970  0.49790  0.94060  Biso   1.000  C
  C10      1.0000 0.30030  0.99790  0.05940  Biso   1.000  C
  C11      1.0000 0.78970  0.55330  0.02960  Biso   1.000  C
  C12      1.0000 0.21030  0.05330  0.97040  Biso   1.000  C
  H9       1.0000 0.76060  0.59970  0.07410  Biso   1.000  H
  H10      1.0000 0.23940  0.09970  0.92590  Biso   1.000  H
  C13      1.0000 0.02380  0.60030  0.14270  Biso   1.000  C
  C14      1.0000 0.97620  0.10030  0.85730  Biso   1.000  C
  C15      1.0000 0.93020  0.34010  0.84070  Biso   1.000  C
  C16      1.0000 0.06980  0.84010  0.15930  Biso   1.000  C
  C17      1.0000 0.55420  0.50900  0.90900  Biso   1.000  C
  C18      1.0000 0.44580  0.00900  0.09100  Biso   1.000  C
  C19      1.0000 0.51750  0.59160  0.97670  Biso   1.000  C
  C20      1.0000 0.48250  0.09160  0.02330  Biso   1.000  C
  H11      1.0000 0.55150  0.58100  0.06680  Biso   1.000  H
  H12      1.0000 0.44850  0.08100  0.93320  Biso   1.000  H
  H13      1.0000 0.42360  0.59710  0.95080  Biso   1.000  H
  H14      1.0000 0.57640  0.09710  0.04920  Biso   1.000  H
  H15      1.0000 0.55400  0.64960  0.95600  Biso   1.000  H
  H16      1.0000 0.44600  0.14960  0.04400  Biso   1.000  H
  C21      1.0000 0.49770  0.41840  0.94550  Biso   1.000  C
  C22      1.0000 0.50230  0.91840  0.05450  Biso   1.000  C
  H17      1.0000 0.53280  0.40950  0.03590  Biso   1.000  H
  H18      1.0000 0.46720  0.90950  0.96410  Biso   1.000  H
  H19      1.0000 0.52070  0.36450  0.90350  Biso   1.000  H
  H20      1.0000 0.47930  0.86450  0.09650  Biso   1.000  H
  H21      1.0000 0.40380  0.42380  0.92050  Biso   1.000  H
  H22      1.0000 0.59620  0.92380  0.07950  Biso   1.000  H
  C23      1.0000 0.49010  0.52420  0.76690  Biso   1.000  C
  C24      1.0000 0.50990  0.02420  0.23310  Biso   1.000  C
  H23      1.0000 0.52690  0.58000  0.74100  Biso   1.000  H
  H24      1.0000 0.47310  0.08000  0.25900  Biso   1.000  H
  H25      1.0000 0.39720  0.53300  0.74810  Biso   1.000  H
  H26      1.0000 0.60280  0.03300  0.25190  Biso   1.000  H
  H27      1.0000 0.50550  0.46930  0.72190  Biso   1.000  H
  H28      1.0000 0.49450  0.96930  0.27810  Biso   1.000  H
  C25      1.0000 0.51620  0.70790  0.39560  Biso   1.000  C
  C26      1.0000 0.48380  0.20790  0.60440  Biso   1.000  C
  C27      1.0000 0.60280  0.72100  0.33090  Biso   1.000  C
  C28      1.0000 0.39720  0.22100  0.66910  Biso   1.000  C
  H29      1.0000 0.57970  0.70450  0.24540  Biso   1.000  H
  H30      1.0000 0.42030  0.20450  0.75460  Biso   1.000  H
  C29      1.0000 0.72240  0.75810  0.39200  Biso   1.000  C
  C30      1.0000 0.27760  0.25810  0.60800  Biso   1.000  C
  C31      1.0000 0.75590  0.78350  0.51700  Biso   1.000  C
  C32      1.0000 0.24410  0.28350  0.48300  Biso   1.000  C
  H31      1.0000 0.83960  0.80760  0.55790  Biso   1.000  H
  H32      1.0000 0.16040  0.30760  0.44210  Biso   1.000  H
  C33      1.0000 0.67070  0.77480  0.58360  Biso   1.000  C
  C34      1.0000 0.32930  0.27480  0.41640  Biso   1.000  C
  C35      1.0000 0.55030  0.73500  0.52020  Biso   1.000  C
  C36      1.0000 0.44970  0.23500  0.47980  Biso   1.000  C
  H33      1.0000 0.49020  0.72630  0.56340  Biso   1.000  H
  H34      1.0000 0.50980  0.22630  0.43660  Biso   1.000  H
  C37      1.0000 0.38690  0.66880  0.33660  Biso   1.000  C
  C38      1.0000 0.61310  0.16880  0.66340  Biso   1.000  C
  C39      1.0000 0.82240  0.77190  0.33040  Biso   1.000  C
  C40      1.0000 0.17760  0.27190  0.66960  Biso   1.000  C
  C41      1.0000 0.70850  0.80960  0.71900  Biso   1.000  C
  C42      1.0000 0.29150  0.30960  0.28100  Biso   1.000  C
  C43      1.0000 0.59590  0.80710  0.76780  Biso   1.000  C
  C44      1.0000 0.40410  0.30710  0.23220  Biso   1.000  C
  H35      1.0000 0.62380  0.82890  0.85430  Biso   1.000  H
  H36      1.0000 0.37620  0.32890  0.14570  Biso   1.000  H
  H37      1.0000 0.56370  0.74260  0.76400  Biso   1.000  H
  H38      1.0000 0.43630  0.24260  0.23600  Biso   1.000  H
  H39      1.0000 0.52730  0.84790  0.71680  Biso   1.000  H
  H40      1.0000 0.47270  0.34790  0.28320  Biso   1.000  H
  C45      1.0000 0.75320  0.91060  0.72480  Biso   1.000  C
  C46      1.0000 0.24680  0.41060  0.27520  Biso   1.000  C
  H41      1.0000 0.84130  0.91240  0.72190  Biso   1.000  H
  H42      1.0000 0.15870  0.41240  0.27810  Biso   1.000  H
  H43      1.0000 0.75090  0.93930  0.80240  Biso   1.000  H
  H44      1.0000 0.24910  0.43930  0.19760  Biso   1.000  H
  H45      1.0000 0.69620  0.94530  0.65380  Biso   1.000  H
  H46      1.0000 0.30380  0.44530  0.34620  Biso   1.000  H
  C47      1.0000 0.81390  0.74770  0.79950  Biso   1.000  C
  C48      1.0000 0.18610  0.24770  0.20050  Biso   1.000  C
  H47      1.0000 0.88920  0.75170  0.77150  Biso   1.000  H
  H48      1.0000 0.11080  0.25170  0.22850  Biso   1.000  H
  H49      1.0000 0.78360  0.68260  0.79300  Biso   1.000  H
  H50      1.0000 0.21640  0.18260  0.20700  Biso   1.000  H
  H51      1.0000 0.83740  0.76840  0.88620  Biso   1.000  H
  H52      1.0000 0.16260  0.26840  0.11380  Biso   1.000  H
  C49      1.0000 0.24740  0.89190  0.49520  Biso   1.000  C
  C50      1.0000 0.75260  0.39190  0.50480  Biso   1.000  C
  H53      1.0000 0.25970  0.90960  0.41920  Biso   1.000  H
  H54      1.0000 0.74030  0.40960  0.58080  Biso   1.000  H
  C51      1.0000 0.27800  0.95650  0.59260  Biso   1.000  C
  C52      1.0000 0.72200  0.45650  0.40740  Biso   1.000  C
  H55      1.0000 0.30980  0.01690  0.58280  Biso   1.000  H
  H56      1.0000 0.69020  0.51690  0.41720  Biso   1.000  H
  C53      1.0000 0.26130  0.93110  0.70310  Biso   1.000  C
  C54      1.0000 0.73870  0.43110  0.29690  Biso   1.000  C
  H57      1.0000 0.27950  0.97480  0.76970  Biso   1.000  H
  H58      1.0000 0.72050  0.47480  0.23030  Biso   1.000  H
  C55      1.0000 0.21730  0.84060  0.71760  Biso   1.000  C
  C56      1.0000 0.78270  0.34060  0.28240  Biso   1.000  C
  C57      1.0000 0.20110  0.80600  0.83010  Biso   1.000  C
  C58      1.0000 0.79890  0.30600  0.16990  Biso   1.000  C
  H59      1.0000 0.21960  0.84600  0.90060  Biso   1.000  H
  H60      1.0000 0.78040  0.34600  0.09940  Biso   1.000  H
  C59      1.0000 0.16000  0.71740  0.83750  Biso   1.000  C
  C60      1.0000 0.84000  0.21740  0.16250  Biso   1.000  C
  H61      1.0000 0.15260  0.69530  0.91380  Biso   1.000  H
  H62      1.0000 0.84740  0.19530  0.08620  Biso   1.000  H
  C61      1.0000 0.12740  0.65610  0.73100  Biso   1.000  C
  C62      1.0000 0.87260  0.15610  0.26900  Biso   1.000  C
  C63      1.0000 0.08030  0.56400  0.72980  Biso   1.000  C
  C64      1.0000 0.91970  0.06400  0.27020  Biso   1.000  C
  H63      1.0000 0.07040  0.53790  0.80320  Biso   1.000  H
  H64      1.0000 0.92960  0.03790  0.19680  Biso   1.000  H
  C65      1.0000 0.04920  0.51250  0.62320  Biso   1.000  C
  C66      1.0000 0.95080  0.01250  0.37680  Biso   1.000  C
  H65      1.0000 0.01950  0.44980  0.62240  Biso   1.000  H
  H66      1.0000 0.98050  0.94980  0.37760  Biso   1.000  H
  C67      1.0000 0.06100  0.55200  0.51520  Biso   1.000  C
  C68      1.0000 0.93900  0.05200  0.48480  Biso   1.000  C
  H67      1.0000 0.03660  0.51570  0.44100  Biso   1.000  H
  H68      1.0000 0.96340  0.01570  0.55900  Biso   1.000  H
  C69      1.0000 0.13870  0.68880  0.61820  Biso   1.000  C
  C70      1.0000 0.86130  0.18880  0.38180  Biso   1.000  C
  C71      1.0000 0.18780  0.78140  0.61400  Biso   1.000  C
  C72      1.0000 0.81220  0.28140  0.38600  Biso   1.000  C
