data_image0
_cell_length_a       15.0898
_cell_length_b       12.3402
_cell_length_c       12.2249
_cell_angle_alpha    90
_cell_angle_beta     107.505
_cell_angle_gamma    90

_symmetry_space_group_name_H-M    "P 1"
_symmetry_int_tables_number       1

loop_
  _symmetry_equiv_pos_as_xyz
  'x, y, z'

loop_
  _atom_site_label
  _atom_site_occupancy
  _atom_site_fract_x
  _atom_site_fract_y
  _atom_site_fract_z
  _atom_site_thermal_displace_type
  _atom_site_B_iso_or_equiv
  _atom_site_type_symbol
  Cu1      1.0000 0.36822  0.42376  0.57976  Biso   1.000  Cu
  Cu2      1.0000 0.63178  0.92376  0.92024  Biso   1.000  Cu
  Cu3      1.0000 0.63178  0.57624  0.42024  Biso   1.000  Cu
  Cu4      1.0000 0.36822  0.07624  0.07976  Biso   1.000  Cu
  O1       1.0000 0.36807  0.53386  0.45656  Biso   1.000  O
  O2       1.0000 0.63193  0.03386  0.04344  Biso   1.000  O
  O3       1.0000 0.63193  0.46614  0.54344  Biso   1.000  O
  O4       1.0000 0.36807  0.96614  0.95656  Biso   1.000  O
  O5       1.0000 0.51403  0.45223  0.68200  Biso   1.000  O
  O6       1.0000 0.48597  0.95223  0.81800  Biso   1.000  O
  O7       1.0000 0.48597  0.54777  0.31800  Biso   1.000  O
  O8       1.0000 0.51403  0.04777  0.18200  Biso   1.000  O
  H1       1.0000 0.51870  0.51360  0.71300  Biso   1.000  H
  H2       1.0000 0.48130  0.01360  0.78700  Biso   1.000  H
  H3       1.0000 0.48130  0.48640  0.28700  Biso   1.000  H
  H4       1.0000 0.51870  0.98640  0.21300  Biso   1.000  H
  H5       1.0000 0.54940  0.45710  0.64610  Biso   1.000  H
  H6       1.0000 0.45060  0.95710  0.85390  Biso   1.000  H
  H7       1.0000 0.45060  0.54290  0.35390  Biso   1.000  H
  H8       1.0000 0.54940  0.04290  0.14610  Biso   1.000  H
  O9       1.0000 0.21908  0.49726  0.42682  Biso   1.000  O
  O10      1.0000 0.78092  0.99726  0.07318  Biso   1.000  O
  O11      1.0000 0.78092  0.50274  0.57318  Biso   1.000  O
  O12      1.0000 0.21908  0.00274  0.92682  Biso   1.000  O
  O13      1.0000 0.32646  0.97186  0.17048  Biso   1.000  O
  O14      1.0000 0.67354  0.47186  0.32952  Biso   1.000  O
  O15      1.0000 0.67354  0.02814  0.82952  Biso   1.000  O
  O16      1.0000 0.32646  0.52814  0.67048  Biso   1.000  O
  O17      1.0000 0.44808  0.86943  0.26250  Biso   1.000  O
  O18      1.0000 0.55192  0.36943  0.23750  Biso   1.000  O
  O19      1.0000 0.55192  0.13057  0.73750  Biso   1.000  O
  O20      1.0000 0.44808  0.63057  0.76250  Biso   1.000  O
  N1       1.0000 0.30009  0.30689  0.63890  Biso   1.000  N
  N2       1.0000 0.69991  0.80689  0.86110  Biso   1.000  N
  N3       1.0000 0.69991  0.69311  0.36110  Biso   1.000  N
  N4       1.0000 0.30009  0.19311  0.13890  Biso   1.000  N
  N5       1.0000 0.40415  0.29595  0.50140  Biso   1.000  N
  N6       1.0000 0.59585  0.79595  0.99860  Biso   1.000  N
  N7       1.0000 0.59585  0.70405  0.49860  Biso   1.000  N
  N8       1.0000 0.40415  0.20405  0.00140  Biso   1.000  N
  C1       1.0000 0.25580  0.64590  0.32620  Biso   1.000  C
  C2       1.0000 0.74420  0.14590  0.17380  Biso   1.000  C
  C3       1.0000 0.74420  0.35410  0.67380  Biso   1.000  C
  C4       1.0000 0.25580  0.85410  0.82620  Biso   1.000  C
  C5       1.0000 0.32170  0.71950  0.31480  Biso   1.000  C
  C6       1.0000 0.67830  0.21950  0.18520  Biso   1.000  C
  C7       1.0000 0.67830  0.28050  0.68520  Biso   1.000  C
  C8       1.0000 0.32170  0.78050  0.81480  Biso   1.000  C
  H9       1.0000 0.38470  0.71250  0.36030  Biso   1.000  H
  H10      1.0000 0.61530  0.21250  0.13970  Biso   1.000  H
  H11      1.0000 0.61530  0.28750  0.63970  Biso   1.000  H
  H12      1.0000 0.38470  0.78750  0.86030  Biso   1.000  H
  C9       1.0000 0.29490  0.80370  0.23600  Biso   1.000  C
  C10      1.0000 0.70510  0.30370  0.26400  Biso   1.000  C
  C11      1.0000 0.70510  0.19630  0.76400  Biso   1.000  C
  C12      1.0000 0.29490  0.69630  0.73600  Biso   1.000  C
  C13      1.0000 0.20340  0.81200  0.16900  Biso   1.000  C
  C14      1.0000 0.79660  0.31200  0.33100  Biso   1.000  C
  C15      1.0000 0.79660  0.18800  0.83100  Biso   1.000  C
  C16      1.0000 0.20340  0.68800  0.66900  Biso   1.000  C
  H13      1.0000 0.18600  0.86970  0.11540  Biso   1.000  H
  H14      1.0000 0.81400  0.36970  0.38460  Biso   1.000  H
  H15      1.0000 0.81400  0.13030  0.88460  Biso   1.000  H
  H16      1.0000 0.18600  0.63030  0.61540  Biso   1.000  H
  C17      1.0000 0.13600  0.73840  0.17770  Biso   1.000  C
  C18      1.0000 0.86400  0.23840  0.32230  Biso   1.000  C
  C19      1.0000 0.86400  0.26160  0.82230  Biso   1.000  C
  C20      1.0000 0.13600  0.76160  0.67770  Biso   1.000  C
  C21      1.0000 0.16430  0.65650  0.25930  Biso   1.000  C
  C22      1.0000 0.83570  0.15650  0.24070  Biso   1.000  C
  C23      1.0000 0.83570  0.34350  0.74070  Biso   1.000  C
  C24      1.0000 0.16430  0.84350  0.75930  Biso   1.000  C
  H17      1.0000 0.11950  0.60650  0.26930  Biso   1.000  H
  H18      1.0000 0.88050  0.10650  0.23070  Biso   1.000  H
  H19      1.0000 0.88050  0.39350  0.73070  Biso   1.000  H
  H20      1.0000 0.11950  0.89350  0.76930  Biso   1.000  H
  C25      1.0000 0.28090  0.55220  0.40910  Biso   1.000  C
  C26      1.0000 0.71910  0.05220  0.09090  Biso   1.000  C
  C27      1.0000 0.71910  0.44780  0.59090  Biso   1.000  C
  C28      1.0000 0.28090  0.94780  0.90910  Biso   1.000  C
  C29      1.0000 0.36370  0.88630  0.22250  Biso   1.000  C
  C30      1.0000 0.63630  0.38630  0.27750  Biso   1.000  C
  C31      1.0000 0.63630  0.11370  0.77750  Biso   1.000  C
  C32      1.0000 0.36370  0.61370  0.72250  Biso   1.000  C
  C33      1.0000 0.03650  0.75080  0.10030  Biso   1.000  C
  C34      1.0000 0.96350  0.25080  0.39970  Biso   1.000  C
  C35      1.0000 0.96350  0.24920  0.89970  Biso   1.000  C
  C36      1.0000 0.03650  0.74920  0.60030  Biso   1.000  C
  C37      1.0000 0.97430  0.65790  0.11540  Biso   1.000  C
  C38      1.0000 0.02570  0.15790  0.38460  Biso   1.000  C
  C39      1.0000 0.02570  0.34210  0.88460  Biso   1.000  C
  C40      1.0000 0.97430  0.84210  0.61540  Biso   1.000  C
  H21      1.0000 0.99950  0.58900  0.09830  Biso   1.000  H
  H22      1.0000 0.00050  0.08900  0.40170  Biso   1.000  H
  H23      1.0000 0.00050  0.41100  0.90170  Biso   1.000  H
  H24      1.0000 0.99950  0.91100  0.59830  Biso   1.000  H
  H25      1.0000 0.91150  0.66810  0.06300  Biso   1.000  H
  H26      1.0000 0.08850  0.16810  0.43700  Biso   1.000  H
  H27      1.0000 0.08850  0.33190  0.93700  Biso   1.000  H
  H28      1.0000 0.91150  0.83190  0.56300  Biso   1.000  H
  H29      1.0000 0.97210  0.65700  0.19470  Biso   1.000  H
  H30      1.0000 0.02790  0.15700  0.30530  Biso   1.000  H
  H31      1.0000 0.02790  0.34300  0.80530  Biso   1.000  H
  H32      1.0000 0.97210  0.84300  0.69470  Biso   1.000  H
  C41      1.0000 0.03660  0.75400  0.97590  Biso   1.000  C
  C42      1.0000 0.96340  0.25400  0.52410  Biso   1.000  C
  C43      1.0000 0.96340  0.24600  0.02410  Biso   1.000  C
  C44      1.0000 0.03660  0.74600  0.47590  Biso   1.000  C
  H33      1.0000 0.06270  0.68620  0.95710  Biso   1.000  H
  H34      1.0000 0.93730  0.18620  0.54290  Biso   1.000  H
  H35      1.0000 0.93730  0.31380  0.04290  Biso   1.000  H
  H36      1.0000 0.06270  0.81380  0.45710  Biso   1.000  H
  H37      1.0000 0.07430  0.81520  0.96480  Biso   1.000  H
  H38      1.0000 0.92570  0.31520  0.53520  Biso   1.000  H
  H39      1.0000 0.92570  0.18480  0.03520  Biso   1.000  H
  H40      1.0000 0.07430  0.68480  0.46480  Biso   1.000  H
  H41      1.0000 0.97270  0.76240  0.92570  Biso   1.000  H
  H42      1.0000 0.02730  0.26240  0.57430  Biso   1.000  H
  H43      1.0000 0.02730  0.23760  0.07430  Biso   1.000  H
  H44      1.0000 0.97270  0.73760  0.42570  Biso   1.000  H
  C45      1.0000 0.99650  0.85690  0.13140  Biso   1.000  C
  C46      1.0000 0.00350  0.35690  0.36860  Biso   1.000  C
  C47      1.0000 0.00350  0.14310  0.86860  Biso   1.000  C
  C48      1.0000 0.99650  0.64310  0.63140  Biso   1.000  C
  H45      1.0000 0.99820  0.85490  0.21210  Biso   1.000  H
  H46      1.0000 0.00180  0.35490  0.28790  Biso   1.000  H
  H47      1.0000 0.00180  0.14510  0.78790  Biso   1.000  H
  H48      1.0000 0.99820  0.64510  0.71210  Biso   1.000  H
  H49      1.0000 0.93210  0.86540  0.08290  Biso   1.000  H
  H50      1.0000 0.06790  0.36540  0.41710  Biso   1.000  H
  H51      1.0000 0.06790  0.13460  0.91710  Biso   1.000  H
  H52      1.0000 0.93210  0.63460  0.58290  Biso   1.000  H
  H53      1.0000 0.03360  0.91820  0.11890  Biso   1.000  H
  H54      1.0000 0.96640  0.41820  0.38110  Biso   1.000  H
  H55      1.0000 0.96640  0.08180  0.88110  Biso   1.000  H
  H56      1.0000 0.03360  0.58180  0.61890  Biso   1.000  H
  C49      1.0000 0.24880  0.31650  0.70890  Biso   1.000  C
  C50      1.0000 0.75120  0.81650  0.79110  Biso   1.000  C
  C51      1.0000 0.75120  0.68350  0.29110  Biso   1.000  C
  C52      1.0000 0.24880  0.18350  0.20890  Biso   1.000  C
  H57      1.0000 0.24120  0.38600  0.73830  Biso   1.000  H
  H58      1.0000 0.75880  0.88600  0.76170  Biso   1.000  H
  H59      1.0000 0.75880  0.61400  0.26170  Biso   1.000  H
  H60      1.0000 0.24120  0.11400  0.23830  Biso   1.000  H
  C53      1.0000 0.20580  0.22760  0.74060  Biso   1.000  C
  C54      1.0000 0.79420  0.72760  0.75940  Biso   1.000  C
  C55      1.0000 0.79420  0.77240  0.25940  Biso   1.000  C
  C56      1.0000 0.20580  0.27240  0.24060  Biso   1.000  C
  H61      1.0000 0.17020  0.23670  0.79220  Biso   1.000  H
  H62      1.0000 0.82980  0.73670  0.70780  Biso   1.000  H
  H63      1.0000 0.82980  0.76330  0.20780  Biso   1.000  H
  H64      1.0000 0.17020  0.26330  0.29220  Biso   1.000  H
  C57      1.0000 0.21430  0.12760  0.69810  Biso   1.000  C
  C58      1.0000 0.78570  0.62760  0.80190  Biso   1.000  C
  C59      1.0000 0.78570  0.87240  0.30190  Biso   1.000  C
  C60      1.0000 0.21430  0.37240  0.19810  Biso   1.000  C
  H65      1.0000 0.18410  0.06690  0.71900  Biso   1.000  H
  H66      1.0000 0.81590  0.56690  0.78100  Biso   1.000  H
  H67      1.0000 0.81590  0.93310  0.28100  Biso   1.000  H
  H68      1.0000 0.18410  0.43310  0.21900  Biso   1.000  H
  C61      1.0000 0.26790  0.11480  0.62340  Biso   1.000  C
  C62      1.0000 0.73210  0.61480  0.87660  Biso   1.000  C
  C63      1.0000 0.73210  0.88520  0.37660  Biso   1.000  C
  C64      1.0000 0.26790  0.38520  0.12340  Biso   1.000  C
  C65      1.0000 0.28290  0.01380  0.57390  Biso   1.000  C
  C66      1.0000 0.71710  0.51380  0.92610  Biso   1.000  C
  C67      1.0000 0.71710  0.98620  0.42610  Biso   1.000  C
  C68      1.0000 0.28290  0.48620  0.07390  Biso   1.000  C
  H69      1.0000 0.25440  0.94990  0.59070  Biso   1.000  H
  H70      1.0000 0.74560  0.44990  0.90930  Biso   1.000  H
  H71      1.0000 0.74560  0.05010  0.40930  Biso   1.000  H
  H72      1.0000 0.25440  0.55010  0.09070  Biso   1.000  H
  C69      1.0000 0.33670  0.00800  0.50420  Biso   1.000  C
  C70      1.0000 0.66330  0.50800  0.99580  Biso   1.000  C
  C71      1.0000 0.66330  0.99200  0.49580  Biso   1.000  C
  C72      1.0000 0.33670  0.49200  0.00420  Biso   1.000  C
  H73      1.0000 0.34490  0.94020  0.47170  Biso   1.000  H
  H74      1.0000 0.65510  0.44020  0.02830  Biso   1.000  H
  H75      1.0000 0.65510  0.05980  0.52830  Biso   1.000  H
  H76      1.0000 0.34490  0.55980  0.97170  Biso   1.000  H
  C73      1.0000 0.38200  0.10250  0.47800  Biso   1.000  C
  C74      1.0000 0.61800  0.60250  0.02200  Biso   1.000  C
  C75      1.0000 0.61800  0.89750  0.52200  Biso   1.000  C
  C76      1.0000 0.38200  0.39750  0.97800  Biso   1.000  C
  C77      1.0000 0.44140  0.10230  0.40880  Biso   1.000  C
  C78      1.0000 0.55860  0.60230  0.09120  Biso   1.000  C
  C79      1.0000 0.55860  0.89770  0.59120  Biso   1.000  C
  C80      1.0000 0.44140  0.39770  0.90880  Biso   1.000  C
  H77      1.0000 0.45470  0.03650  0.37670  Biso   1.000  H
  H78      1.0000 0.54530  0.53650  0.12330  Biso   1.000  H
  H79      1.0000 0.54530  0.96350  0.62330  Biso   1.000  H
  H80      1.0000 0.45470  0.46350  0.87670  Biso   1.000  H
  C81      1.0000 0.47970  0.19710  0.38800  Biso   1.000  C
  C82      1.0000 0.52030  0.69710  0.11200  Biso   1.000  C
  C83      1.0000 0.52030  0.80290  0.61200  Biso   1.000  C
  C84      1.0000 0.47970  0.30290  0.88800  Biso   1.000  C
  H81      1.0000 0.51990  0.19790  0.34120  Biso   1.000  H
  H82      1.0000 0.48010  0.69790  0.15880  Biso   1.000  H
  H83      1.0000 0.48010  0.80210  0.65880  Biso   1.000  H
  H84      1.0000 0.51990  0.30210  0.84120  Biso   1.000  H
  C85      1.0000 0.45960  0.29290  0.43610  Biso   1.000  C
  C86      1.0000 0.54040  0.79290  0.06390  Biso   1.000  C
  C87      1.0000 0.54040  0.70710  0.56390  Biso   1.000  C
  C88      1.0000 0.45960  0.20710  0.93610  Biso   1.000  C
  H85      1.0000 0.48680  0.35850  0.42130  Biso   1.000  H
  H86      1.0000 0.51320  0.85850  0.07870  Biso   1.000  H
  H87      1.0000 0.51320  0.64150  0.57870  Biso   1.000  H
  H88      1.0000 0.48680  0.14150  0.92130  Biso   1.000  H
  C89      1.0000 0.36660  0.20180  0.52320  Biso   1.000  C
  C90      1.0000 0.63340  0.70180  0.97680  Biso   1.000  C
  C91      1.0000 0.63340  0.79820  0.47680  Biso   1.000  C
  C92      1.0000 0.36660  0.29820  0.02320  Biso   1.000  C
  C93      1.0000 0.30990  0.20740  0.59720  Biso   1.000  C
  C94      1.0000 0.69010  0.70740  0.90280  Biso   1.000  C
  C95      1.0000 0.69010  0.79260  0.40280  Biso   1.000  C
  C96      1.0000 0.30990  0.29260  0.09720  Biso   1.000  C
