data_image0
_cell_length_a       14.7048
_cell_length_b       13.1186
_cell_length_c       26.8081
_cell_angle_alpha    90
_cell_angle_beta     131.266
_cell_angle_gamma    90

_symmetry_space_group_name_H-M    "P 1"
_symmetry_int_tables_number       1

loop_
  _symmetry_equiv_pos_as_xyz
  'x, y, z'

loop_
  _atom_site_label
  _atom_site_occupancy
  _atom_site_fract_x
  _atom_site_fract_y
  _atom_site_fract_z
  _atom_site_thermal_displace_type
  _atom_site_B_iso_or_equiv
  _atom_site_type_symbol
  Cu1      1.0000 0.45320  0.08482  0.70495  Biso   1.000  Cu
  Cu2      1.0000 0.54680  0.58482  0.79505  Biso   1.000  Cu
  Cu3      1.0000 0.54680  0.91518  0.29505  Biso   1.000  Cu
  Cu4      1.0000 0.45320  0.41518  0.20495  Biso   1.000  Cu
  Cu5      1.0000 0.19904  0.47704  0.34566  Biso   1.000  Cu
  Cu6      1.0000 0.80096  0.97704  0.15434  Biso   1.000  Cu
  Cu7      1.0000 0.80096  0.52296  0.65434  Biso   1.000  Cu
  Cu8      1.0000 0.19904  0.02296  0.84566  Biso   1.000  Cu
  N1       1.0000 0.47470  0.17870  0.77120  Biso   1.000  N
  N2       1.0000 0.52530  0.67870  0.72880  Biso   1.000  N
  N3       1.0000 0.52530  0.82130  0.22880  Biso   1.000  N
  N4       1.0000 0.47470  0.32130  0.27120  Biso   1.000  N
  N5       1.0000 0.29270  0.06830  0.67951  Biso   1.000  N
  N6       1.0000 0.70730  0.56830  0.82049  Biso   1.000  N
  N7       1.0000 0.70730  0.93170  0.32049  Biso   1.000  N
  N8       1.0000 0.29270  0.43170  0.17951  Biso   1.000  N
  N9       1.0000 0.18750  0.58710  0.28963  Biso   1.000  N
  N10      1.0000 0.81250  0.08710  0.21037  Biso   1.000  N
  N11      1.0000 0.81250  0.41290  0.71037  Biso   1.000  N
  N12      1.0000 0.18750  0.91290  0.78963  Biso   1.000  N
  N13      1.0000 0.37040  0.47610  0.38350  Biso   1.000  N
  N14      1.0000 0.62960  0.97610  0.11650  Biso   1.000  N
  N15      1.0000 0.62960  0.52390  0.61650  Biso   1.000  N
  N16      1.0000 0.37040  0.02390  0.88350  Biso   1.000  N
  O1       1.0000 0.62600  0.06610  0.75299  Biso   1.000  O
  O2       1.0000 0.37400  0.56610  0.74701  Biso   1.000  O
  O3       1.0000 0.37400  0.93390  0.24701  Biso   1.000  O
  O4       1.0000 0.62600  0.43390  0.25299  Biso   1.000  O
  O5       1.0000 0.56720  0.94220  0.78083  Biso   1.000  O
  O6       1.0000 0.43280  0.44220  0.71917  Biso   1.000  O
  O7       1.0000 0.43280  0.05780  0.21917  Biso   1.000  O
  O8       1.0000 0.56720  0.55780  0.28083  Biso   1.000  O
  O9       1.0000 0.03150  0.00420  0.81117  Biso   1.000  O
  O10      1.0000 0.96850  0.50420  0.68883  Biso   1.000  O
  O11      1.0000 0.96850  0.99580  0.18883  Biso   1.000  O
  O12      1.0000 0.03150  0.49580  0.31117  Biso   1.000  O
  O13      1.0000 0.16410  0.91460  0.90073  Biso   1.000  O
  O14      1.0000 0.83590  0.41460  0.59927  Biso   1.000  O
  O15      1.0000 0.83590  0.08540  0.09927  Biso   1.000  O
  O16      1.0000 0.16410  0.58540  0.40073  Biso   1.000  O
  O17      1.0000 0.39440  0.03800  0.61884  Biso   1.000  O
  O18      1.0000 0.60560  0.53800  0.88116  Biso   1.000  O
  O19      1.0000 0.60560  0.96200  0.38116  Biso   1.000  O
  O20      1.0000 0.39440  0.46200  0.11884  Biso   1.000  O
  O21      1.0000 0.40450  0.20450  0.61532  Biso   1.000  O
  O22      1.0000 0.59550  0.70450  0.88468  Biso   1.000  O
  O23      1.0000 0.59550  0.79550  0.38468  Biso   1.000  O
  O24      1.0000 0.40450  0.29550  0.11532  Biso   1.000  O
  O25      1.0000 0.22730  0.36220  0.39923  Biso   1.000  O
  O26      1.0000 0.77270  0.86220  0.10077  Biso   1.000  O
  O27      1.0000 0.77270  0.63780  0.60077  Biso   1.000  O
  O28      1.0000 0.22730  0.13780  0.89923  Biso   1.000  O
  O29      1.0000 0.17180  0.26650  0.31497  Biso   1.000  O
  O30      1.0000 0.82820  0.76650  0.18503  Biso   1.000  O
  O31      1.0000 0.82820  0.73350  0.68503  Biso   1.000  O
  O32      1.0000 0.17180  0.23350  0.81497  Biso   1.000  O
  C1       1.0000 0.77300  0.94380  0.83056  Biso   1.000  C
  C2       1.0000 0.22700  0.44380  0.66944  Biso   1.000  C
  C3       1.0000 0.22700  0.05620  0.16944  Biso   1.000  C
  C4       1.0000 0.77300  0.55620  0.33056  Biso   1.000  C
  C5       1.0000 0.85200  0.96500  0.82048  Biso   1.000  C
  C6       1.0000 0.14800  0.46500  0.67952  Biso   1.000  C
  C7       1.0000 0.14800  0.03500  0.17952  Biso   1.000  C
  C8       1.0000 0.85200  0.53500  0.32048  Biso   1.000  C
  H1       1.0000 0.82730  0.00470  0.78470  Biso   1.000  H
  H2       1.0000 0.17270  0.50470  0.71530  Biso   1.000  H
  H3       1.0000 0.17270  0.99530  0.21530  Biso   1.000  H
  H4       1.0000 0.82730  0.49530  0.28470  Biso   1.000  H
  C9       1.0000 0.96830  0.92630  0.86454  Biso   1.000  C
  C10      1.0000 0.03170  0.42630  0.63546  Biso   1.000  C
  C11      1.0000 0.03170  0.07370  0.13546  Biso   1.000  C
  C12      1.0000 0.96830  0.57370  0.36454  Biso   1.000  C
  C13      1.0000 0.00510  0.87110  0.91934  Biso   1.000  C
  C14      1.0000 0.99490  0.37110  0.58066  Biso   1.000  C
  C15      1.0000 0.99490  0.12890  0.08066  Biso   1.000  C
  C16      1.0000 0.00510  0.62890  0.41934  Biso   1.000  C
  H5       1.0000 0.08370  0.84580  0.94880  Biso   1.000  H
  H6       1.0000 0.91630  0.34580  0.55120  Biso   1.000  H
  H7       1.0000 0.91630  0.15420  0.05120  Biso   1.000  H
  H8       1.0000 0.08370  0.65420  0.44880  Biso   1.000  H
  C17      1.0000 0.92910  0.85230  0.93165  Biso   1.000  C
  C18      1.0000 0.07090  0.35230  0.56835  Biso   1.000  C
  C19      1.0000 0.07090  0.14770  0.06835  Biso   1.000  C
  C20      1.0000 0.92910  0.64770  0.43165  Biso   1.000  C
  C21      1.0000 0.81070  0.88690  0.88502  Biso   1.000  C
  C22      1.0000 0.18930  0.38690  0.61498  Biso   1.000  C
  C23      1.0000 0.18930  0.11310  0.11498  Biso   1.000  C
  C24      1.0000 0.81070  0.61310  0.38502  Biso   1.000  C
  H9       1.0000 0.75580  0.87160  0.89040  Biso   1.000  H
  H10      1.0000 0.24420  0.37160  0.60960  Biso   1.000  H
  H11      1.0000 0.24420  0.12840  0.10960  Biso   1.000  H
  H12      1.0000 0.75580  0.62840  0.39040  Biso   1.000  H
  C25      1.0000 0.64580  0.98560  0.78502  Biso   1.000  C
  C26      1.0000 0.35420  0.48560  0.71498  Biso   1.000  C
  C27      1.0000 0.35420  0.01440  0.21498  Biso   1.000  C
  C28      1.0000 0.64580  0.51440  0.28502  Biso   1.000  C
  C29      1.0000 0.06100  0.94830  0.85858  Biso   1.000  C
  C30      1.0000 0.93900  0.44830  0.64142  Biso   1.000  C
  C31      1.0000 0.93900  0.05170  0.14142  Biso   1.000  C
  C32      1.0000 0.06100  0.55170  0.35858  Biso   1.000  C
  C33      1.0000 0.97180  0.79780  0.99398  Biso   1.000  C
  C34      1.0000 0.02820  0.29780  0.50602  Biso   1.000  C
  C35      1.0000 0.02820  0.20220  0.00602  Biso   1.000  C
  C36      1.0000 0.97180  0.70220  0.49398  Biso   1.000  C
  C37      1.0000 0.90560  0.69880  0.97550  Biso   1.000  C
  C38      1.0000 0.09440  0.19880  0.52450  Biso   1.000  C
  C39      1.0000 0.09440  0.30120  0.02450  Biso   1.000  C
  C40      1.0000 0.90560  0.80120  0.47550  Biso   1.000  C
  H13      1.0000 0.94360  0.64800  0.96880  Biso   1.000  H
  H14      1.0000 0.05640  0.14800  0.53120  Biso   1.000  H
  H15      1.0000 0.05640  0.35200  0.03120  Biso   1.000  H
  H16      1.0000 0.94360  0.85200  0.46880  Biso   1.000  H
  H17      1.0000 0.82310  0.70750  0.93520  Biso   1.000  H
  H18      1.0000 0.17690  0.20750  0.56480  Biso   1.000  H
  H19      1.0000 0.17690  0.29250  0.06480  Biso   1.000  H
  H20      1.0000 0.82310  0.79250  0.43520  Biso   1.000  H
  H21      1.0000 0.90760  0.67760  0.01040  Biso   1.000  H
  H22      1.0000 0.09240  0.17760  0.48960  Biso   1.000  H
  H23      1.0000 0.09240  0.32240  0.98960  Biso   1.000  H
  H24      1.0000 0.90760  0.82240  0.51040  Biso   1.000  H
  C41      1.0000 0.93230  0.85880  0.02600  Biso   1.000  C
  C42      1.0000 0.06770  0.35880  0.47400  Biso   1.000  C
  C43      1.0000 0.06770  0.14120  0.97400  Biso   1.000  C
  C44      1.0000 0.93230  0.64120  0.52600  Biso   1.000  C
  H25      1.0000 0.94800  0.81950  0.06110  Biso   1.000  H
  H26      1.0000 0.05200  0.31950  0.43890  Biso   1.000  H
  H27      1.0000 0.05200  0.18050  0.93890  Biso   1.000  H
  H28      1.0000 0.94800  0.68050  0.56110  Biso   1.000  H
  H29      1.0000 0.84740  0.87350  0.99310  Biso   1.000  H
  H30      1.0000 0.15260  0.37350  0.50690  Biso   1.000  H
  H31      1.0000 0.15260  0.12650  0.00690  Biso   1.000  H
  H32      1.0000 0.84740  0.62650  0.49310  Biso   1.000  H
  H33      1.0000 0.97700  0.92150  0.04360  Biso   1.000  H
  H34      1.0000 0.02300  0.42150  0.45640  Biso   1.000  H
  H35      1.0000 0.02300  0.07850  0.95640  Biso   1.000  H
  H36      1.0000 0.97700  0.57850  0.54360  Biso   1.000  H
  C45      1.0000 0.10250  0.78170  0.04340  Biso   1.000  C
  C46      1.0000 0.89750  0.28170  0.45660  Biso   1.000  C
  C47      1.0000 0.89750  0.21830  0.95660  Biso   1.000  C
  C48      1.0000 0.10250  0.71830  0.54340  Biso   1.000  C
  H37      1.0000 0.12690  0.73890  0.02500  Biso   1.000  H
  H38      1.0000 0.87310  0.23890  0.47500  Biso   1.000  H
  H39      1.0000 0.87310  0.26110  0.97500  Biso   1.000  H
  H40      1.0000 0.12690  0.76110  0.52500  Biso   1.000  H
  H41      1.0000 0.12320  0.74930  0.08180  Biso   1.000  H
  H42      1.0000 0.87680  0.24930  0.41820  Biso   1.000  H
  H43      1.0000 0.87680  0.25070  0.91820  Biso   1.000  H
  H44      1.0000 0.12320  0.75070  0.58180  Biso   1.000  H
  H45      1.0000 0.14320  0.84610  0.05580  Biso   1.000  H
  H46      1.0000 0.85680  0.34610  0.44420  Biso   1.000  H
  H47      1.0000 0.85680  0.15390  0.94420  Biso   1.000  H
  H48      1.0000 0.14320  0.65390  0.55580  Biso   1.000  H
  C49      1.0000 0.57350  0.23250  0.81770  Biso   1.000  C
  C50      1.0000 0.42650  0.73250  0.68230  Biso   1.000  C
  C51      1.0000 0.42650  0.76750  0.18230  Biso   1.000  C
  C52      1.0000 0.57350  0.26750  0.31770  Biso   1.000  C
  H49      1.0000 0.64280  0.22260  0.82370  Biso   1.000  H
  H50      1.0000 0.35720  0.72260  0.67630  Biso   1.000  H
  H51      1.0000 0.35720  0.77740  0.17630  Biso   1.000  H
  H52      1.0000 0.64280  0.27740  0.32370  Biso   1.000  H
  C53      1.0000 0.57680  0.30180  0.85700  Biso   1.000  C
  C54      1.0000 0.42320  0.80180  0.64300  Biso   1.000  C
  C55      1.0000 0.42320  0.69820  0.14300  Biso   1.000  C
  C56      1.0000 0.57680  0.19820  0.35700  Biso   1.000  C
  H53      1.0000 0.64710  0.33820  0.88910  Biso   1.000  H
  H54      1.0000 0.35290  0.83820  0.61090  Biso   1.000  H
  H55      1.0000 0.35290  0.66180  0.11090  Biso   1.000  H
  H56      1.0000 0.64710  0.16180  0.38910  Biso   1.000  H
  C57      1.0000 0.47520  0.31670  0.84830  Biso   1.000  C
  C58      1.0000 0.52480  0.81670  0.65170  Biso   1.000  C
  C59      1.0000 0.52480  0.68330  0.15170  Biso   1.000  C
  C60      1.0000 0.47520  0.18330  0.34830  Biso   1.000  C
  H57      1.0000 0.47540  0.36410  0.87420  Biso   1.000  H
  H58      1.0000 0.52460  0.86410  0.62580  Biso   1.000  H
  H59      1.0000 0.52460  0.63590  0.12580  Biso   1.000  H
  H60      1.0000 0.47540  0.13590  0.37420  Biso   1.000  H
  C61      1.0000 0.37320  0.26130  0.80130  Biso   1.000  C
  C62      1.0000 0.62680  0.76130  0.69870  Biso   1.000  C
  C63      1.0000 0.62680  0.73870  0.19870  Biso   1.000  C
  C64      1.0000 0.37320  0.23870  0.30130  Biso   1.000  C
  H61      1.0000 0.30350  0.27020  0.79500  Biso   1.000  H
  H62      1.0000 0.69650  0.77020  0.70500  Biso   1.000  H
  H63      1.0000 0.69650  0.72980  0.20500  Biso   1.000  H
  H64      1.0000 0.30350  0.22980  0.29500  Biso   1.000  H
  C65      1.0000 0.37560  0.19170  0.76336  Biso   1.000  C
  C66      1.0000 0.62440  0.69170  0.73664  Biso   1.000  C
  C67      1.0000 0.62440  0.80830  0.23664  Biso   1.000  C
  C68      1.0000 0.37560  0.30830  0.26336  Biso   1.000  C
  C69      1.0000 0.27300  0.12630  0.71282  Biso   1.000  C
  C70      1.0000 0.72700  0.62630  0.78718  Biso   1.000  C
  C71      1.0000 0.72700  0.87370  0.28718  Biso   1.000  C
  C72      1.0000 0.27300  0.37370  0.21282  Biso   1.000  C
  C73      1.0000 0.16700  0.11970  0.70140  Biso   1.000  C
  C74      1.0000 0.83300  0.61970  0.79860  Biso   1.000  C
  C75      1.0000 0.83300  0.88030  0.29860  Biso   1.000  C
  C76      1.0000 0.16700  0.38030  0.20140  Biso   1.000  C
  H65      1.0000 0.15390  0.16160  0.72410  Biso   1.000  H
  H66      1.0000 0.84610  0.66160  0.77590  Biso   1.000  H
  H67      1.0000 0.84610  0.83840  0.27590  Biso   1.000  H
  H68      1.0000 0.15390  0.33840  0.22410  Biso   1.000  H
  C77      1.0000 0.08130  0.05010  0.65600  Biso   1.000  C
  C78      1.0000 0.91870  0.55010  0.84400  Biso   1.000  C
  C79      1.0000 0.91870  0.94990  0.34400  Biso   1.000  C
  C80      1.0000 0.08130  0.44990  0.15600  Biso   1.000  C
  H69      1.0000 0.00950  0.04350  0.64790  Biso   1.000  H
  H70      1.0000 0.99050  0.54350  0.85210  Biso   1.000  H
  H71      1.0000 0.99050  0.95650  0.35210  Biso   1.000  H
  H72      1.0000 0.00950  0.45650  0.14790  Biso   1.000  H
  C81      1.0000 0.10250  0.99050  0.62270  Biso   1.000  C
  C82      1.0000 0.89750  0.49050  0.87730  Biso   1.000  C
  C83      1.0000 0.89750  0.00950  0.37730  Biso   1.000  C
  C84      1.0000 0.10250  0.50950  0.12270  Biso   1.000  C
  H73      1.0000 0.04550  0.94270  0.59200  Biso   1.000  H
  H74      1.0000 0.95450  0.44270  0.90800  Biso   1.000  H
  H75      1.0000 0.95450  0.05730  0.40800  Biso   1.000  H
  H76      1.0000 0.04550  0.55730  0.09200  Biso   1.000  H
  C85      1.0000 0.20730  0.00160  0.63480  Biso   1.000  C
  C86      1.0000 0.79270  0.50160  0.86520  Biso   1.000  C
  C87      1.0000 0.79270  0.99840  0.36520  Biso   1.000  C
  C88      1.0000 0.20730  0.49840  0.13480  Biso   1.000  C
  H77      1.0000 0.22020  0.96160  0.61140  Biso   1.000  H
  H78      1.0000 0.77980  0.46160  0.88860  Biso   1.000  H
  H79      1.0000 0.77980  0.03840  0.38860  Biso   1.000  H
  H80      1.0000 0.22020  0.53840  0.11140  Biso   1.000  H
  C89      1.0000 0.33130  0.11000  0.51947  Biso   1.000  C
  C90      1.0000 0.66870  0.61000  0.98053  Biso   1.000  C
  C91      1.0000 0.66870  0.89000  0.48053  Biso   1.000  C
  C92      1.0000 0.33130  0.39000  0.01947  Biso   1.000  C
  C93      1.0000 0.29600  0.19520  0.48001  Biso   1.000  C
  C94      1.0000 0.70400  0.69520  0.01999  Biso   1.000  C
  C95      1.0000 0.70400  0.80480  0.51999  Biso   1.000  C
  C96      1.0000 0.29600  0.30480  0.98001  Biso   1.000  C
  H81      1.0000 0.30230  0.25960  0.49660  Biso   1.000  H
  H82      1.0000 0.69770  0.75960  0.00340  Biso   1.000  H
  H83      1.0000 0.69770  0.74040  0.50340  Biso   1.000  H
  H84      1.0000 0.30230  0.24040  0.99660  Biso   1.000  H
  C97      1.0000 0.25140  0.18480  0.41585  Biso   1.000  C
  C98      1.0000 0.74860  0.68480  0.08415  Biso   1.000  C
  C99      1.0000 0.74860  0.81520  0.58415  Biso   1.000  C
  C100     1.0000 0.25140  0.31520  0.91585  Biso   1.000  C
  C101     1.0000 0.24690  0.08850  0.39217  Biso   1.000  C
  C102     1.0000 0.75310  0.58850  0.10783  Biso   1.000  C
  C103     1.0000 0.75310  0.91150  0.60783  Biso   1.000  C
  C104     1.0000 0.24690  0.41150  0.89217  Biso   1.000  C
  H85      1.0000 0.21660  0.08190  0.34900  Biso   1.000  H
  H86      1.0000 0.78340  0.58190  0.15100  Biso   1.000  H
  H87      1.0000 0.78340  0.91810  0.65100  Biso   1.000  H
  H88      1.0000 0.21660  0.41810  0.84900  Biso   1.000  H
  C105     1.0000 0.28650  0.00270  0.43151  Biso   1.000  C
  C106     1.0000 0.71350  0.50270  0.06849  Biso   1.000  C
  C107     1.0000 0.71350  0.99730  0.56849  Biso   1.000  C
  C108     1.0000 0.28650  0.49730  0.93151  Biso   1.000  C
  C109     1.0000 0.32500  0.01520  0.49449  Biso   1.000  C
  C110     1.0000 0.67500  0.51520  0.00551  Biso   1.000  C
  C111     1.0000 0.67500  0.98480  0.50551  Biso   1.000  C
  C112     1.0000 0.32500  0.48480  0.99449  Biso   1.000  C
  H89      1.0000 0.34730  0.95780  0.52080  Biso   1.000  H
  H90      1.0000 0.65270  0.45780  0.97920  Biso   1.000  H
  H91      1.0000 0.65270  0.04220  0.47920  Biso   1.000  H
  H92      1.0000 0.34730  0.54220  0.02080  Biso   1.000  H
  C113     1.0000 0.38040  0.12040  0.58914  Biso   1.000  C
  C114     1.0000 0.61960  0.62040  0.91086  Biso   1.000  C
  C115     1.0000 0.61960  0.87960  0.41086  Biso   1.000  C
  C116     1.0000 0.38040  0.37960  0.08914  Biso   1.000  C
  C117     1.0000 0.21250  0.27670  0.37190  Biso   1.000  C
  C118     1.0000 0.78750  0.77670  0.12810  Biso   1.000  C
  C119     1.0000 0.78750  0.72330  0.62810  Biso   1.000  C
  C120     1.0000 0.21250  0.22330  0.87190  Biso   1.000  C
  C121     1.0000 0.29120  0.89890  0.40720  Biso   1.000  C
  C122     1.0000 0.70880  0.39890  0.09280  Biso   1.000  C
  C123     1.0000 0.70880  0.10110  0.59280  Biso   1.000  C
  C124     1.0000 0.29120  0.60110  0.90720  Biso   1.000  C
  C125     1.0000 0.38510  0.82950  0.46350  Biso   1.000  C
  C126     1.0000 0.61490  0.32950  0.03650  Biso   1.000  C
  C127     1.0000 0.61490  0.17050  0.53650  Biso   1.000  C
  C128     1.0000 0.38510  0.67050  0.96350  Biso   1.000  C
  H93      1.0000 0.36470  0.81550  0.49020  Biso   1.000  H
  H94      1.0000 0.63530  0.31550  0.00980  Biso   1.000  H
  H95      1.0000 0.63530  0.18450  0.50980  Biso   1.000  H
  H96      1.0000 0.36470  0.68450  0.99020  Biso   1.000  H
  H97      1.0000 0.46290  0.86190  0.49020  Biso   1.000  H
  H98      1.0000 0.53710  0.36190  0.00980  Biso   1.000  H
  H99      1.0000 0.53710  0.13810  0.50980  Biso   1.000  H
  H100     1.0000 0.46290  0.63810  0.99020  Biso   1.000  H
  H101     1.0000 0.38750  0.76680  0.44590  Biso   1.000  H
  H102     1.0000 0.61250  0.26680  0.05410  Biso   1.000  H
  H103     1.0000 0.61250  0.23320  0.55410  Biso   1.000  H
  H104     1.0000 0.38750  0.73320  0.94590  Biso   1.000  H
  C129     1.0000 0.33650  0.91470  0.36890  Biso   1.000  C
  C130     1.0000 0.66350  0.41470  0.13110  Biso   1.000  C
  C131     1.0000 0.66350  0.08530  0.63110  Biso   1.000  C
  C132     1.0000 0.33650  0.58530  0.86890  Biso   1.000  C
  H105     1.0000 0.33990  0.85000  0.35350  Biso   1.000  H
  H106     1.0000 0.66010  0.35000  0.14650  Biso   1.000  H
  H107     1.0000 0.66010  0.15000  0.64650  Biso   1.000  H
  H108     1.0000 0.33990  0.65000  0.85350  Biso   1.000  H
  H109     1.0000 0.41570  0.94470  0.39800  Biso   1.000  H
  H110     1.0000 0.58430  0.44470  0.10200  Biso   1.000  H
  H111     1.0000 0.58430  0.05530  0.60200  Biso   1.000  H
  H112     1.0000 0.41570  0.55530  0.89800  Biso   1.000  H
  H113     1.0000 0.28170  0.95890  0.33170  Biso   1.000  H
  H114     1.0000 0.71830  0.45890  0.16830  Biso   1.000  H
  H115     1.0000 0.71830  0.04110  0.66830  Biso   1.000  H
  H116     1.0000 0.28170  0.54110  0.83170  Biso   1.000  H
  C133     1.0000 0.16960  0.85190  0.36130  Biso   1.000  C
  C134     1.0000 0.83040  0.35190  0.13870  Biso   1.000  C
  C135     1.0000 0.83040  0.14810  0.63870  Biso   1.000  C
  C136     1.0000 0.16960  0.64810  0.86130  Biso   1.000  C
  H117     1.0000 0.14020  0.84180  0.38400  Biso   1.000  H
  H118     1.0000 0.85980  0.34180  0.11600  Biso   1.000  H
  H119     1.0000 0.85980  0.15820  0.61600  Biso   1.000  H
  H120     1.0000 0.14020  0.65820  0.88400  Biso   1.000  H
  H121     1.0000 0.17440  0.78730  0.34630  Biso   1.000  H
  H122     1.0000 0.82560  0.28730  0.15370  Biso   1.000  H
  H123     1.0000 0.82560  0.21270  0.65370  Biso   1.000  H
  H124     1.0000 0.17440  0.71270  0.84630  Biso   1.000  H
  H125     1.0000 0.11530  0.89590  0.32390  Biso   1.000  H
  H126     1.0000 0.88470  0.39590  0.17610  Biso   1.000  H
  H127     1.0000 0.88470  0.10410  0.67610  Biso   1.000  H
  H128     1.0000 0.11530  0.60410  0.82390  Biso   1.000  H
  C137     1.0000 0.09020  0.64360  0.24470  Biso   1.000  C
  C138     1.0000 0.90980  0.14360  0.25530  Biso   1.000  C
  C139     1.0000 0.90980  0.35640  0.75530  Biso   1.000  C
  C140     1.0000 0.09020  0.85640  0.74470  Biso   1.000  C
  H129     1.0000 0.01840  0.62950  0.23550  Biso   1.000  H
  H130     1.0000 0.98160  0.12950  0.26450  Biso   1.000  H
  H131     1.0000 0.98160  0.37050  0.76450  Biso   1.000  H
  H132     1.0000 0.01840  0.87050  0.73550  Biso   1.000  H
  C141     1.0000 0.09230  0.72210  0.21150  Biso   1.000  C
  C142     1.0000 0.90770  0.22210  0.28850  Biso   1.000  C
  C143     1.0000 0.90770  0.27790  0.78850  Biso   1.000  C
  C144     1.0000 0.09230  0.77790  0.71150  Biso   1.000  C
  H133     1.0000 0.02280  0.75980  0.17990  Biso   1.000  H
  H134     1.0000 0.97720  0.25980  0.32010  Biso   1.000  H
  H135     1.0000 0.97720  0.24020  0.82010  Biso   1.000  H
  H136     1.0000 0.02280  0.74020  0.67990  Biso   1.000  H
  C145     1.0000 0.19800  0.74390  0.22550  Biso   1.000  C
  C146     1.0000 0.80200  0.24390  0.27450  Biso   1.000  C
  C147     1.0000 0.80200  0.25610  0.77450  Biso   1.000  C
  C148     1.0000 0.19800  0.75610  0.72550  Biso   1.000  C
  H137     1.0000 0.20130  0.79680  0.20360  Biso   1.000  H
  H138     1.0000 0.79870  0.29680  0.29640  Biso   1.000  H
  H139     1.0000 0.79870  0.20320  0.79640  Biso   1.000  H
  H140     1.0000 0.20130  0.70320  0.70360  Biso   1.000  H
  C149     1.0000 0.29900  0.68690  0.27210  Biso   1.000  C
  C150     1.0000 0.70100  0.18690  0.22790  Biso   1.000  C
  C151     1.0000 0.70100  0.31310  0.72790  Biso   1.000  C
  C152     1.0000 0.29900  0.81310  0.77210  Biso   1.000  C
  H141     1.0000 0.37180  0.70090  0.28240  Biso   1.000  H
  H142     1.0000 0.62820  0.20090  0.21760  Biso   1.000  H
  H143     1.0000 0.62820  0.29910  0.71760  Biso   1.000  H
  H144     1.0000 0.37180  0.79910  0.78240  Biso   1.000  H
  C153     1.0000 0.29140  0.60810  0.30366  Biso   1.000  C
  C154     1.0000 0.70860  0.10810  0.19634  Biso   1.000  C
  C155     1.0000 0.70860  0.39190  0.69634  Biso   1.000  C
  C156     1.0000 0.29140  0.89190  0.80366  Biso   1.000  C
  C157     1.0000 0.39530  0.54540  0.35651  Biso   1.000  C
  C158     1.0000 0.60470  0.04540  0.14349  Biso   1.000  C
  C159     1.0000 0.60470  0.45460  0.64349  Biso   1.000  C
  C160     1.0000 0.39530  0.95460  0.85651  Biso   1.000  C
  C161     1.0000 0.51030  0.55600  0.37900  Biso   1.000  C
  C162     1.0000 0.48970  0.05600  0.12100  Biso   1.000  C
  C163     1.0000 0.48970  0.44400  0.62100  Biso   1.000  C
  C164     1.0000 0.51030  0.94400  0.87900  Biso   1.000  C
  H145     1.0000 0.52610  0.60300  0.35960  Biso   1.000  H
  H146     1.0000 0.47390  0.10300  0.14040  Biso   1.000  H
  H147     1.0000 0.47390  0.39700  0.64040  Biso   1.000  H
  H148     1.0000 0.52610  0.89700  0.85960  Biso   1.000  H
  C165     1.0000 0.60070  0.49600  0.43040  Biso   1.000  C
  C166     1.0000 0.39930  0.99600  0.06960  Biso   1.000  C
  C167     1.0000 0.39930  0.50400  0.56960  Biso   1.000  C
  C168     1.0000 0.60070  0.00400  0.93040  Biso   1.000  C
  H149     1.0000 0.67890  0.50170  0.44610  Biso   1.000  H
  H150     1.0000 0.32110  0.00170  0.05390  Biso   1.000  H
  H151     1.0000 0.32110  0.49830  0.55390  Biso   1.000  H
  H152     1.0000 0.67890  0.99830  0.94610  Biso   1.000  H
  C169     1.0000 0.57590  0.42720  0.45870  Biso   1.000  C
  C170     1.0000 0.42410  0.92720  0.04130  Biso   1.000  C
  C171     1.0000 0.42410  0.57280  0.54130  Biso   1.000  C
  C172     1.0000 0.57590  0.07280  0.95870  Biso   1.000  C
  H153     1.0000 0.63720  0.38730  0.49440  Biso   1.000  H
  H154     1.0000 0.36280  0.88730  0.00560  Biso   1.000  H
  H155     1.0000 0.36280  0.61270  0.50560  Biso   1.000  H
  H156     1.0000 0.63720  0.11270  0.99440  Biso   1.000  H
  C173     1.0000 0.45930  0.41870  0.43350  Biso   1.000  C
  C174     1.0000 0.54070  0.91870  0.06650  Biso   1.000  C
  C175     1.0000 0.54070  0.58130  0.56650  Biso   1.000  C
  C176     1.0000 0.45930  0.08130  0.93350  Biso   1.000  C
  H157     1.0000 0.44200  0.37110  0.45190  Biso   1.000  H
  H158     1.0000 0.55800  0.87110  0.04810  Biso   1.000  H
  H159     1.0000 0.55800  0.62890  0.54810  Biso   1.000  H
  H160     1.0000 0.44200  0.12890  0.95190  Biso   1.000  H
