data_image0
_cell_length_a       10.036
_cell_length_b       12.322
_cell_length_c       25.767
_cell_angle_alpha    90
_cell_angle_beta     93.06
_cell_angle_gamma    90

_symmetry_space_group_name_H-M    "P 1"
_symmetry_int_tables_number       1

loop_
  _symmetry_equiv_pos_as_xyz
  'x, y, z'

loop_
  _atom_site_label
  _atom_site_occupancy
  _atom_site_fract_x
  _atom_site_fract_y
  _atom_site_fract_z
  _atom_site_thermal_displace_type
  _atom_site_B_iso_or_equiv
  _atom_site_type_symbol
  Cu1      1.0000 0.63143  0.24546  0.26445  Biso   1.000  Cu
  Cu2      1.0000 0.36857  0.74546  0.23555  Biso   1.000  Cu
  Cu3      1.0000 0.36857  0.75454  0.73555  Biso   1.000  Cu
  Cu4      1.0000 0.63143  0.25454  0.76445  Biso   1.000  Cu
  O1       1.0000 0.60751  0.38445  0.29948  Biso   1.000  O
  O2       1.0000 0.39249  0.88445  0.20052  Biso   1.000  O
  O3       1.0000 0.39249  0.61555  0.70052  Biso   1.000  O
  O4       1.0000 0.60751  0.11555  0.79948  Biso   1.000  O
  O5       1.0000 0.70077  0.30390  0.36966  Biso   1.000  O
  O6       1.0000 0.29923  0.80390  0.13034  Biso   1.000  O
  O7       1.0000 0.29923  0.69610  0.63034  Biso   1.000  O
  O8       1.0000 0.70077  0.19610  0.86966  Biso   1.000  O
  O9       1.0000 0.64128  0.87245  0.37429  Biso   1.000  O
  O10      1.0000 0.35872  0.37245  0.12571  Biso   1.000  O
  O11      1.0000 0.35872  0.12755  0.62571  Biso   1.000  O
  O12      1.0000 0.64128  0.62755  0.87429  Biso   1.000  O
  H1       1.0000 0.61500  0.93020  0.35980  Biso   1.000  H
  H2       1.0000 0.38500  0.43020  0.14020  Biso   1.000  H
  H3       1.0000 0.38500  0.06980  0.64020  Biso   1.000  H
  H4       1.0000 0.61500  0.56980  0.85980  Biso   1.000  H
  O13      1.0000 0.51476  0.79698  0.31001  Biso   1.000  O
  O14      1.0000 0.48524  0.29698  0.18999  Biso   1.000  O
  O15      1.0000 0.48524  0.20302  0.68999  Biso   1.000  O
  O16      1.0000 0.51476  0.70302  0.81001  Biso   1.000  O
  O17      1.0000 0.47398  0.18500  0.29468  Biso   1.000  O
  O18      1.0000 0.52602  0.68500  0.20532  Biso   1.000  O
  O19      1.0000 0.52602  0.81500  0.70532  Biso   1.000  O
  O20      1.0000 0.47398  0.31500  0.79468  Biso   1.000  O
  O21      1.0000 0.58984  0.06462  0.34366  Biso   1.000  O
  O22      1.0000 0.41016  0.56462  0.15634  Biso   1.000  O
  O23      1.0000 0.41016  0.93538  0.65634  Biso   1.000  O
  O24      1.0000 0.58984  0.43538  0.84366  Biso   1.000  O
  O25      1.0000 0.90710  0.17600  0.38866  Biso   1.000  O
  O26      1.0000 0.09290  0.67600  0.11134  Biso   1.000  O
  O27      1.0000 0.09290  0.82400  0.61134  Biso   1.000  O
  O28      1.0000 0.90710  0.32400  0.88866  Biso   1.000  O
  H5       1.0000 0.84510  0.21920  0.37990  Biso   1.000  H
  H6       1.0000 0.15490  0.71920  0.12010  Biso   1.000  H
  H7       1.0000 0.15490  0.78080  0.62010  Biso   1.000  H
  H8       1.0000 0.84510  0.28080  0.87990  Biso   1.000  H
  O29      1.0000 0.98490  0.22810  0.31360  Biso   1.000  O
  O30      1.0000 0.01510  0.72810  0.18640  Biso   1.000  O
  O31      1.0000 0.01510  0.77190  0.68640  Biso   1.000  O
  O32      1.0000 0.98490  0.27190  0.81360  Biso   1.000  O
  N1       1.0000 0.69581  0.10821  0.23139  Biso   1.000  N
  N2       1.0000 0.30419  0.60821  0.26861  Biso   1.000  N
  N3       1.0000 0.30419  0.89179  0.76861  Biso   1.000  N
  N4       1.0000 0.69581  0.39179  0.73139  Biso   1.000  N
  N5       1.0000 0.79110  0.30781  0.23037  Biso   1.000  N
  N6       1.0000 0.20890  0.80781  0.26963  Biso   1.000  N
  N7       1.0000 0.20890  0.69219  0.76963  Biso   1.000  N
  N8       1.0000 0.79110  0.19219  0.73037  Biso   1.000  N
  C1       1.0000 0.64740  0.49080  0.37485  Biso   1.000  C
  C2       1.0000 0.35260  0.99080  0.12515  Biso   1.000  C
  C3       1.0000 0.35260  0.50920  0.62515  Biso   1.000  C
  C4       1.0000 0.64740  0.00920  0.87485  Biso   1.000  C
  C5       1.0000 0.61090  0.58730  0.34978  Biso   1.000  C
  C6       1.0000 0.38910  0.08730  0.15022  Biso   1.000  C
  C7       1.0000 0.38910  0.41270  0.65022  Biso   1.000  C
  C8       1.0000 0.61090  0.91270  0.84978  Biso   1.000  C
  H9       1.0000 0.58310  0.58690  0.31400  Biso   1.000  H
  H10      1.0000 0.41690  0.08690  0.18600  Biso   1.000  H
  H11      1.0000 0.41690  0.41310  0.68600  Biso   1.000  H
  H12      1.0000 0.58310  0.91310  0.81400  Biso   1.000  H
  C9       1.0000 0.61550  0.68440  0.37744  Biso   1.000  C
  C10      1.0000 0.38450  0.18440  0.12256  Biso   1.000  C
  C11      1.0000 0.38450  0.31560  0.62256  Biso   1.000  C
  C12      1.0000 0.61550  0.81560  0.87744  Biso   1.000  C
  C13      1.0000 0.65380  0.68520  0.43031  Biso   1.000  C
  C14      1.0000 0.34620  0.18520  0.06969  Biso   1.000  C
  C15      1.0000 0.34620  0.31480  0.56969  Biso   1.000  C
  C16      1.0000 0.65380  0.81480  0.93031  Biso   1.000  C
  H13      1.0000 0.65710  0.75210  0.44860  Biso   1.000  H
  H14      1.0000 0.34290  0.25210  0.05140  Biso   1.000  H
  H15      1.0000 0.34290  0.24790  0.55140  Biso   1.000  H
  H16      1.0000 0.65710  0.74790  0.94860  Biso   1.000  H
  C17      1.0000 0.68760  0.58850  0.45688  Biso   1.000  C
  C18      1.0000 0.31240  0.08850  0.04312  Biso   1.000  C
  C19      1.0000 0.31240  0.41150  0.54312  Biso   1.000  C
  C20      1.0000 0.68760  0.91150  0.95688  Biso   1.000  C
  C21      1.0000 0.68470  0.49240  0.42808  Biso   1.000  C
  C22      1.0000 0.31530  0.99240  0.07192  Biso   1.000  C
  C23      1.0000 0.31530  0.50760  0.57192  Biso   1.000  C
  C24      1.0000 0.68470  0.00760  0.92808  Biso   1.000  C
  H17      1.0000 0.70880  0.42620  0.44500  Biso   1.000  H
  H18      1.0000 0.29120  0.92620  0.05500  Biso   1.000  H
  H19      1.0000 0.29120  0.57380  0.55500  Biso   1.000  H
  H20      1.0000 0.70880  0.07380  0.94500  Biso   1.000  H
  C25      1.0000 0.65310  0.38470  0.34654  Biso   1.000  C
  C26      1.0000 0.34690  0.88470  0.15346  Biso   1.000  C
  C27      1.0000 0.34690  0.61530  0.65346  Biso   1.000  C
  C28      1.0000 0.65310  0.11530  0.84654  Biso   1.000  C
  C29      1.0000 0.58450  0.78870  0.35002  Biso   1.000  C
  C30      1.0000 0.41550  0.28870  0.14998  Biso   1.000  C
  C31      1.0000 0.41550  0.21130  0.64998  Biso   1.000  C
  C32      1.0000 0.58450  0.71130  0.85002  Biso   1.000  C
  C33      1.0000 0.72930  0.59190  0.51487  Biso   1.000  C
  C34      1.0000 0.27070  0.09190  0.98513  Biso   1.000  C
  C35      1.0000 0.27070  0.40810  0.48513  Biso   1.000  C
  C36      1.0000 0.72930  0.90810  0.01487  Biso   1.000  C
  C37      1.0000 0.87280  0.63660  0.52049  Biso   1.000  C
  C38      1.0000 0.12720  0.13660  0.97951  Biso   1.000  C
  C39      1.0000 0.12720  0.36340  0.47951  Biso   1.000  C
  C40      1.0000 0.87280  0.86340  0.02049  Biso   1.000  C
  H21      1.0000 0.87440  0.71080  0.50680  Biso   1.000  H
  H22      1.0000 0.12560  0.21080  0.99320  Biso   1.000  H
  H23      1.0000 0.12560  0.28920  0.49320  Biso   1.000  H
  H24      1.0000 0.87440  0.78920  0.00680  Biso   1.000  H
  H25      1.0000 0.93200  0.59060  0.50090  Biso   1.000  H
  H26      1.0000 0.06800  0.09060  0.99910  Biso   1.000  H
  H27      1.0000 0.06800  0.40940  0.49910  Biso   1.000  H
  H28      1.0000 0.93200  0.90940  0.00090  Biso   1.000  H
  H29      1.0000 0.90320  0.63690  0.55730  Biso   1.000  H
  H30      1.0000 0.09680  0.13690  0.94270  Biso   1.000  H
  H31      1.0000 0.09680  0.36310  0.44270  Biso   1.000  H
  H32      1.0000 0.90320  0.86310  0.05730  Biso   1.000  H
  C41      1.0000 0.63630  0.66480  0.54452  Biso   1.000  C
  C42      1.0000 0.36370  0.16480  0.95548  Biso   1.000  C
  C43      1.0000 0.36370  0.33520  0.45548  Biso   1.000  C
  C44      1.0000 0.63630  0.83520  0.04452  Biso   1.000  C
  H33      1.0000 0.54390  0.64070  0.53800  Biso   1.000  H
  H34      1.0000 0.45610  0.14070  0.96200  Biso   1.000  H
  H35      1.0000 0.45610  0.35930  0.46200  Biso   1.000  H
  H36      1.0000 0.54390  0.85930  0.03800  Biso   1.000  H
  H37      1.0000 0.64500  0.74000  0.53270  Biso   1.000  H
  H38      1.0000 0.35500  0.24000  0.96730  Biso   1.000  H
  H39      1.0000 0.35500  0.26000  0.46730  Biso   1.000  H
  H40      1.0000 0.64500  0.76000  0.03270  Biso   1.000  H
  H41      1.0000 0.66040  0.66060  0.58180  Biso   1.000  H
  H42      1.0000 0.33960  0.16060  0.91820  Biso   1.000  H
  H43      1.0000 0.33960  0.33940  0.41820  Biso   1.000  H
  H44      1.0000 0.66040  0.83940  0.08180  Biso   1.000  H
  C45      1.0000 0.72650  0.47790  0.53913  Biso   1.000  C
  C46      1.0000 0.27350  0.97790  0.96087  Biso   1.000  C
  C47      1.0000 0.27350  0.52210  0.46087  Biso   1.000  C
  C48      1.0000 0.72650  0.02210  0.03913  Biso   1.000  C
  H45      1.0000 0.63730  0.44650  0.53310  Biso   1.000  H
  H46      1.0000 0.36270  0.94650  0.96690  Biso   1.000  H
  H47      1.0000 0.36270  0.55350  0.46690  Biso   1.000  H
  H48      1.0000 0.63730  0.05350  0.03310  Biso   1.000  H
  H49      1.0000 0.74820  0.48300  0.57660  Biso   1.000  H
  H50      1.0000 0.25180  0.98300  0.92340  Biso   1.000  H
  H51      1.0000 0.25180  0.51700  0.42340  Biso   1.000  H
  H52      1.0000 0.74820  0.01700  0.07660  Biso   1.000  H
  H53      1.0000 0.79220  0.43160  0.52310  Biso   1.000  H
  H54      1.0000 0.20780  0.93160  0.97690  Biso   1.000  H
  H55      1.0000 0.20780  0.56840  0.47690  Biso   1.000  H
  H56      1.0000 0.79220  0.06840  0.02310  Biso   1.000  H
  C49      1.0000 0.35880  0.09100  0.35863  Biso   1.000  C
  C50      1.0000 0.64120  0.59100  0.14137  Biso   1.000  C
  C51      1.0000 0.64120  0.90900  0.64137  Biso   1.000  C
  C52      1.0000 0.35880  0.40900  0.85863  Biso   1.000  C
  C53      1.0000 0.23900  0.14280  0.34371  Biso   1.000  C
  C54      1.0000 0.76100  0.64280  0.15629  Biso   1.000  C
  C55      1.0000 0.76100  0.85720  0.65629  Biso   1.000  C
  C56      1.0000 0.23900  0.35720  0.84371  Biso   1.000  C
  H57      1.0000 0.23440  0.18970  0.31440  Biso   1.000  H
  H58      1.0000 0.76560  0.68970  0.18560  Biso   1.000  H
  H59      1.0000 0.76560  0.81030  0.68560  Biso   1.000  H
  H60      1.0000 0.23440  0.31030  0.81440  Biso   1.000  H
  C57      1.0000 0.12690  0.12540  0.37177  Biso   1.000  C
  C58      1.0000 0.87310  0.62540  0.12823  Biso   1.000  C
  C59      1.0000 0.87310  0.87460  0.62823  Biso   1.000  C
  C60      1.0000 0.12690  0.37460  0.87177  Biso   1.000  C
  C61      1.0000 0.13150  0.05440  0.41387  Biso   1.000  C
  C62      1.0000 0.86850  0.55440  0.08613  Biso   1.000  C
  C63      1.0000 0.86850  0.94560  0.58613  Biso   1.000  C
  C64      1.0000 0.13150  0.44560  0.91387  Biso   1.000  C
  H61      1.0000 0.05420  0.04430  0.43300  Biso   1.000  H
  H62      1.0000 0.94580  0.54430  0.06700  Biso   1.000  H
  H63      1.0000 0.94580  0.95570  0.56700  Biso   1.000  H
  H64      1.0000 0.05420  0.45570  0.93300  Biso   1.000  H
  C65      1.0000 0.24870  0.99750  0.42836  Biso   1.000  C
  C66      1.0000 0.75130  0.49750  0.07164  Biso   1.000  C
  C67      1.0000 0.75130  0.00250  0.57164  Biso   1.000  C
  C68      1.0000 0.24870  0.50250  0.92836  Biso   1.000  C
  C69      1.0000 0.36150  0.01880  0.40041  Biso   1.000  C
  C70      1.0000 0.63850  0.51880  0.09959  Biso   1.000  C
  C71      1.0000 0.63850  0.98120  0.59959  Biso   1.000  C
  C72      1.0000 0.36150  0.48120  0.90041  Biso   1.000  C
  H65      1.0000 0.44280  0.98300  0.41020  Biso   1.000  H
  H66      1.0000 0.55720  0.48300  0.08980  Biso   1.000  H
  H67      1.0000 0.55720  0.01700  0.58980  Biso   1.000  H
  H68      1.0000 0.44280  0.51700  0.91020  Biso   1.000  H
  C73      1.0000 0.48430  0.11360  0.33094  Biso   1.000  C
  C74      1.0000 0.51570  0.61360  0.16906  Biso   1.000  C
  C75      1.0000 0.51570  0.88640  0.66906  Biso   1.000  C
  C76      1.0000 0.48430  0.38640  0.83094  Biso   1.000  C
  C77      1.0000 0.00000  0.18150  0.35502  Biso   1.000  C
  C78      1.0000 0.00000  0.68150  0.14498  Biso   1.000  C
  C79      1.0000 0.00000  0.81850  0.64498  Biso   1.000  C
  C80      1.0000 0.00000  0.31850  0.85502  Biso   1.000  C
  C81      1.0000 0.25120  0.91920  0.47440  Biso   1.000  C
  C82      1.0000 0.74880  0.41920  0.02560  Biso   1.000  C
  C83      1.0000 0.74880  0.08080  0.52560  Biso   1.000  C
  C84      1.0000 0.25120  0.58080  0.97440  Biso   1.000  C
  C85      1.0000 0.37730  0.85040  0.47901  Biso   1.000  C
  C86      1.0000 0.62270  0.35040  0.02099  Biso   1.000  C
  C87      1.0000 0.62270  0.14960  0.52099  Biso   1.000  C
  C88      1.0000 0.37730  0.64960  0.97901  Biso   1.000  C
  H69      1.0000 0.38400  0.80680  0.44740  Biso   1.000  H
  H70      1.0000 0.61600  0.30680  0.05260  Biso   1.000  H
  H71      1.0000 0.61600  0.19320  0.55260  Biso   1.000  H
  H72      1.0000 0.38400  0.69320  0.94740  Biso   1.000  H
  H73      1.0000 0.37370  0.80210  0.50910  Biso   1.000  H
  H74      1.0000 0.62630  0.30210  0.99090  Biso   1.000  H
  H75      1.0000 0.62630  0.19790  0.49090  Biso   1.000  H
  H76      1.0000 0.37370  0.69790  0.00910  Biso   1.000  H
  H77      1.0000 0.45550  0.89780  0.48340  Biso   1.000  H
  H78      1.0000 0.54450  0.39780  0.01660  Biso   1.000  H
  H79      1.0000 0.54450  0.10220  0.51660  Biso   1.000  H
  H80      1.0000 0.45550  0.60220  0.98340  Biso   1.000  H
  C89      1.0000 0.13110  0.84280  0.47007  Biso   1.000  C
  C90      1.0000 0.86890  0.34280  0.02993  Biso   1.000  C
  C91      1.0000 0.86890  0.15720  0.52993  Biso   1.000  C
  C92      1.0000 0.13110  0.65720  0.97007  Biso   1.000  C
  H81      1.0000 0.13500  0.79910  0.43840  Biso   1.000  H
  H82      1.0000 0.86500  0.29910  0.06160  Biso   1.000  H
  H83      1.0000 0.86500  0.20090  0.56160  Biso   1.000  H
  H84      1.0000 0.13500  0.70090  0.93840  Biso   1.000  H
  H85      1.0000 0.04860  0.88550  0.46860  Biso   1.000  H
  H86      1.0000 0.95140  0.38550  0.03140  Biso   1.000  H
  H87      1.0000 0.95140  0.11450  0.53140  Biso   1.000  H
  H88      1.0000 0.04860  0.61450  0.96860  Biso   1.000  H
  H89      1.0000 0.13290  0.79480  0.50040  Biso   1.000  H
  H90      1.0000 0.86710  0.29480  0.99960  Biso   1.000  H
  H91      1.0000 0.86710  0.20520  0.49960  Biso   1.000  H
  H92      1.0000 0.13290  0.70520  0.00040  Biso   1.000  H
  C93      1.0000 0.24380  0.98690  0.52450  Biso   1.000  C
  C94      1.0000 0.75620  0.48690  0.97550  Biso   1.000  C
  C95      1.0000 0.75620  0.01310  0.47550  Biso   1.000  C
  C96      1.0000 0.24380  0.51310  0.02450  Biso   1.000  C
  H93      1.0000 0.32070  0.03590  0.52780  Biso   1.000  H
  H94      1.0000 0.67930  0.53590  0.97220  Biso   1.000  H
  H95      1.0000 0.67930  0.96410  0.47220  Biso   1.000  H
  H96      1.0000 0.32070  0.46410  0.02780  Biso   1.000  H
  H97      1.0000 0.24480  0.93830  0.55460  Biso   1.000  H
  H98      1.0000 0.75520  0.43830  0.94540  Biso   1.000  H
  H99      1.0000 0.75520  0.06170  0.44540  Biso   1.000  H
  H100     1.0000 0.24480  0.56170  0.05460  Biso   1.000  H
  H101     1.0000 0.16120  0.02950  0.52290  Biso   1.000  H
  H102     1.0000 0.83880  0.52950  0.97710  Biso   1.000  H
  H103     1.0000 0.83880  0.97050  0.47710  Biso   1.000  H
  H104     1.0000 0.16120  0.47050  0.02290  Biso   1.000  H
  C97      1.0000 0.64590  0.00830  0.23273  Biso   1.000  C
  C98      1.0000 0.35410  0.50830  0.26727  Biso   1.000  C
  C99      1.0000 0.35410  0.99170  0.76727  Biso   1.000  C
  C100     1.0000 0.64590  0.49170  0.73273  Biso   1.000  C
  H105     1.0000 0.56770  0.99640  0.25120  Biso   1.000  H
  H106     1.0000 0.43230  0.49640  0.24880  Biso   1.000  H
  H107     1.0000 0.43230  0.00360  0.74880  Biso   1.000  H
  H108     1.0000 0.56770  0.50360  0.75120  Biso   1.000  H
  C101     1.0000 0.70340  0.92030  0.20816  Biso   1.000  C
  C102     1.0000 0.29660  0.42030  0.29184  Biso   1.000  C
  C103     1.0000 0.29660  0.07970  0.79184  Biso   1.000  C
  C104     1.0000 0.70340  0.57970  0.70816  Biso   1.000  C
  H109     1.0000 0.66470  0.85010  0.21000  Biso   1.000  H
  H110     1.0000 0.33530  0.35010  0.29000  Biso   1.000  H
  H111     1.0000 0.33530  0.14990  0.79000  Biso   1.000  H
  H112     1.0000 0.66470  0.64990  0.71000  Biso   1.000  H
  C105     1.0000 0.81590  0.93610  0.18141  Biso   1.000  C
  C106     1.0000 0.18410  0.43610  0.31859  Biso   1.000  C
  C107     1.0000 0.18410  0.06390  0.81859  Biso   1.000  C
  C108     1.0000 0.81590  0.56390  0.68141  Biso   1.000  C
  H113     1.0000 0.85650  0.87670  0.16490  Biso   1.000  H
  H114     1.0000 0.14350  0.37670  0.33510  Biso   1.000  H
  H115     1.0000 0.14350  0.12330  0.83510  Biso   1.000  H
  H116     1.0000 0.85650  0.62330  0.66490  Biso   1.000  H
  C109     1.0000 0.87120  0.04050  0.17852  Biso   1.000  C
  C110     1.0000 0.12880  0.54050  0.32148  Biso   1.000  C
  C111     1.0000 0.12880  0.95950  0.82148  Biso   1.000  C
  C112     1.0000 0.87120  0.45950  0.67852  Biso   1.000  C
  C113     1.0000 0.98950  0.06620  0.15201  Biso   1.000  C
  C114     1.0000 0.01050  0.56620  0.34799  Biso   1.000  C
  C115     1.0000 0.01050  0.93380  0.84799  Biso   1.000  C
  C116     1.0000 0.98950  0.43380  0.65201  Biso   1.000  C
  H117     1.0000 0.03360  0.01050  0.13410  Biso   1.000  H
  H118     1.0000 0.96640  0.51050  0.36590  Biso   1.000  H
  H119     1.0000 0.96640  0.98950  0.86590  Biso   1.000  H
  H120     1.0000 0.03360  0.48950  0.63410  Biso   1.000  H
  C117     1.0000 0.03920  0.16790  0.15210  Biso   1.000  C
  C118     1.0000 0.96080  0.66790  0.34790  Biso   1.000  C
  C119     1.0000 0.96080  0.83210  0.84790  Biso   1.000  C
  C120     1.0000 0.03920  0.33210  0.65210  Biso   1.000  C
  H121     1.0000 0.11740  0.18240  0.13410  Biso   1.000  H
  H122     1.0000 0.88260  0.68240  0.36590  Biso   1.000  H
  H123     1.0000 0.88260  0.81760  0.86590  Biso   1.000  H
  H124     1.0000 0.11740  0.31760  0.63410  Biso   1.000  H
  C121     1.0000 0.97640  0.25470  0.17887  Biso   1.000  C
  C122     1.0000 0.02360  0.75470  0.32113  Biso   1.000  C
  C123     1.0000 0.02360  0.74530  0.82113  Biso   1.000  C
  C124     1.0000 0.97640  0.24530  0.67887  Biso   1.000  C
  C125     1.0000 0.02600  0.36120  0.18337  Biso   1.000  C
  C126     1.0000 0.97400  0.86120  0.31663  Biso   1.000  C
  C127     1.0000 0.97400  0.63880  0.81663  Biso   1.000  C
  C128     1.0000 0.02600  0.13880  0.68337  Biso   1.000  C
  H125     1.0000 0.10590  0.38050  0.16750  Biso   1.000  H
  H126     1.0000 0.89410  0.88050  0.33250  Biso   1.000  H
  H127     1.0000 0.89410  0.61950  0.83250  Biso   1.000  H
  H128     1.0000 0.10590  0.11950  0.66750  Biso   1.000  H
  C129     1.0000 0.95880  0.43700  0.21068  Biso   1.000  C
  C130     1.0000 0.04120  0.93700  0.28932  Biso   1.000  C
  C131     1.0000 0.04120  0.56300  0.78932  Biso   1.000  C
  C132     1.0000 0.95880  0.06300  0.71068  Biso   1.000  C
  H129     1.0000 0.99210  0.50900  0.21420  Biso   1.000  H
  H130     1.0000 0.00790  0.00900  0.28580  Biso   1.000  H
  H131     1.0000 0.00790  0.49100  0.78580  Biso   1.000  H
  H132     1.0000 0.99210  0.99100  0.71420  Biso   1.000  H
  C133     1.0000 0.84010  0.40720  0.23354  Biso   1.000  C
  C134     1.0000 0.15990  0.90720  0.26646  Biso   1.000  C
  C135     1.0000 0.15990  0.59280  0.76646  Biso   1.000  C
  C136     1.0000 0.84010  0.09280  0.73354  Biso   1.000  C
  H133     1.0000 0.79330  0.46060  0.25200  Biso   1.000  H
  H134     1.0000 0.20670  0.96060  0.24800  Biso   1.000  H
  H135     1.0000 0.20670  0.53940  0.74800  Biso   1.000  H
  H136     1.0000 0.79330  0.03940  0.75200  Biso   1.000  H
  C137     1.0000 0.85910  0.23220  0.20413  Biso   1.000  C
  C138     1.0000 0.14090  0.73220  0.29587  Biso   1.000  C
  C139     1.0000 0.14090  0.76780  0.79587  Biso   1.000  C
  C140     1.0000 0.85910  0.26780  0.70413  Biso   1.000  C
  C141     1.0000 0.80720  0.12490  0.20424  Biso   1.000  C
  C142     1.0000 0.19280  0.62490  0.29576  Biso   1.000  C
  C143     1.0000 0.19280  0.87510  0.79576  Biso   1.000  C
  C144     1.0000 0.80720  0.37510  0.70424  Biso   1.000  C
