data_image0
_cell_length_a       9.8939
_cell_length_b       18.898
_cell_length_c       16.637
_cell_angle_alpha    90
_cell_angle_beta     96.438
_cell_angle_gamma    90

_symmetry_space_group_name_H-M    "P 1"
_symmetry_int_tables_number       1

loop_
  _symmetry_equiv_pos_as_xyz
  'x, y, z'

loop_
  _atom_site_label
  _atom_site_occupancy
  _atom_site_fract_x
  _atom_site_fract_y
  _atom_site_fract_z
  _atom_site_thermal_displace_type
  _atom_site_B_iso_or_equiv
  _atom_site_type_symbol
  O1       1.0000 0.22880  0.88270  0.26980  Biso   1.000  O
  O2       1.0000 0.77120  0.38270  0.23020  Biso   1.000  O
  O3       1.0000 0.77120  0.11730  0.73020  Biso   1.000  O
  O4       1.0000 0.22880  0.61730  0.76980  Biso   1.000  O
  N1       1.0000 0.18420  0.83807  0.31861  Biso   1.000  N
  N2       1.0000 0.81580  0.33807  0.18139  Biso   1.000  N
  N3       1.0000 0.81580  0.16193  0.68139  Biso   1.000  N
  N4       1.0000 0.18420  0.66193  0.81861  Biso   1.000  N
  N5       1.0000 0.06170  0.68198  0.47659  Biso   1.000  N
  N6       1.0000 0.93830  0.18198  0.02341  Biso   1.000  N
  N7       1.0000 0.93830  0.31802  0.52341  Biso   1.000  N
  N8       1.0000 0.06170  0.81802  0.97659  Biso   1.000  N
  N9       1.0000 0.08458  0.51852  0.64279  Biso   1.000  N
  N10      1.0000 0.91542  0.01852  0.85721  Biso   1.000  N
  N11      1.0000 0.91542  0.48148  0.35721  Biso   1.000  N
  N12      1.0000 0.08458  0.98148  0.14279  Biso   1.000  N
  C1       1.0000 0.09050  0.78310  0.28055  Biso   1.000  C
  C2       1.0000 0.90950  0.28310  0.21945  Biso   1.000  C
  C3       1.0000 0.90950  0.21690  0.71945  Biso   1.000  C
  C4       1.0000 0.09050  0.71690  0.78055  Biso   1.000  C
  C5       1.0000 0.07870  0.72235  0.34032  Biso   1.000  C
  C6       1.0000 0.92130  0.22235  0.15968  Biso   1.000  C
  C7       1.0000 0.92130  0.27765  0.65968  Biso   1.000  C
  C8       1.0000 0.07870  0.77765  0.84032  Biso   1.000  C
  H1       1.0000 0.00310  0.69241  0.31963  Biso   1.000  H
  H2       1.0000 0.99690  0.19241  0.18037  Biso   1.000  H
  H3       1.0000 0.99690  0.30759  0.68037  Biso   1.000  H
  H4       1.0000 0.00310  0.80759  0.81963  Biso   1.000  H
  H5       1.0000 0.16079  0.69396  0.34288  Biso   1.000  H
  H6       1.0000 0.83921  0.19396  0.15712  Biso   1.000  H
  H7       1.0000 0.83921  0.30604  0.65712  Biso   1.000  H
  H8       1.0000 0.16079  0.80604  0.84288  Biso   1.000  H
  C9       1.0000 0.05800  0.74535  0.42506  Biso   1.000  C
  C10      1.0000 0.94200  0.24535  0.07494  Biso   1.000  C
  C11      1.0000 0.94200  0.25465  0.57494  Biso   1.000  C
  C12      1.0000 0.05800  0.75465  0.92506  Biso   1.000  C
  H9       1.0000 0.97133  0.77038  0.42539  Biso   1.000  H
  H10      1.0000 0.02867  0.27038  0.07461  Biso   1.000  H
  H11      1.0000 0.02867  0.22962  0.57461  Biso   1.000  H
  H12      1.0000 0.97133  0.72962  0.92539  Biso   1.000  H
  C13      1.0000 0.17580  0.79235  0.45688  Biso   1.000  C
  C14      1.0000 0.82420  0.29235  0.04312  Biso   1.000  C
  C15      1.0000 0.82420  0.20765  0.54312  Biso   1.000  C
  C16      1.0000 0.17580  0.70765  0.95688  Biso   1.000  C
  H13      1.0000 0.25882  0.76472  0.46031  Biso   1.000  H
  H14      1.0000 0.74118  0.26472  0.03969  Biso   1.000  H
  H15      1.0000 0.74118  0.23528  0.53969  Biso   1.000  H
  H16      1.0000 0.25882  0.73528  0.96031  Biso   1.000  H
  H17      1.0000 0.16270  0.80720  0.51129  Biso   1.000  H
  H18      1.0000 0.83730  0.30720  0.98871  Biso   1.000  H
  H19      1.0000 0.83730  0.19280  0.48871  Biso   1.000  H
  H20      1.0000 0.16270  0.69280  0.01129  Biso   1.000  H
  C17      1.0000 0.19420  0.85845  0.40574  Biso   1.000  C
  C18      1.0000 0.80580  0.35845  0.09426  Biso   1.000  C
  C19      1.0000 0.80580  0.14155  0.59426  Biso   1.000  C
  C20      1.0000 0.19420  0.64155  0.90574  Biso   1.000  C
  C21      1.0000 0.15220  0.75447  0.20670  Biso   1.000  C
  C22      1.0000 0.84780  0.25447  0.29330  Biso   1.000  C
  C23      1.0000 0.84780  0.24553  0.79330  Biso   1.000  C
  C24      1.0000 0.15220  0.74553  0.70670  Biso   1.000  C
  H21      1.0000 0.15625  0.79167  0.16775  Biso   1.000  H
  H22      1.0000 0.84375  0.29167  0.33225  Biso   1.000  H
  H23      1.0000 0.84375  0.20833  0.83225  Biso   1.000  H
  H24      1.0000 0.15625  0.70833  0.66775  Biso   1.000  H
  H25      1.0000 0.09679  0.71657  0.18294  Biso   1.000  H
  H26      1.0000 0.90321  0.21657  0.31706  Biso   1.000  H
  H27      1.0000 0.90321  0.28343  0.81706  Biso   1.000  H
  H28      1.0000 0.09679  0.78343  0.68294  Biso   1.000  H
  H29      1.0000 0.24238  0.73721  0.22310  Biso   1.000  H
  H30      1.0000 0.75762  0.23721  0.27690  Biso   1.000  H
  H31      1.0000 0.75762  0.26279  0.77690  Biso   1.000  H
  H32      1.0000 0.24238  0.76279  0.72310  Biso   1.000  H
  C25      1.0000 0.95170  0.81676  0.25480  Biso   1.000  C
  C26      1.0000 0.04830  0.31676  0.24520  Biso   1.000  C
  C27      1.0000 0.04830  0.18324  0.74520  Biso   1.000  C
  C28      1.0000 0.95170  0.68324  0.75480  Biso   1.000  C
  H33      1.0000 0.90710  0.82672  0.30187  Biso   1.000  H
  H34      1.0000 0.09290  0.32672  0.19813  Biso   1.000  H
  H35      1.0000 0.09290  0.17328  0.69813  Biso   1.000  H
  H36      1.0000 0.90710  0.67328  0.80187  Biso   1.000  H
  H37      1.0000 0.89703  0.78470  0.22018  Biso   1.000  H
  H38      1.0000 0.10297  0.28470  0.27982  Biso   1.000  H
  H39      1.0000 0.10297  0.21530  0.77982  Biso   1.000  H
  H40      1.0000 0.89703  0.71530  0.72018  Biso   1.000  H
  H41      1.0000 0.96397  0.85998  0.22615  Biso   1.000  H
  H42      1.0000 0.03603  0.35998  0.27385  Biso   1.000  H
  H43      1.0000 0.03603  0.14002  0.77385  Biso   1.000  H
  H44      1.0000 0.96397  0.64002  0.72615  Biso   1.000  H
  C29      1.0000 0.33550  0.88909  0.42844  Biso   1.000  C
  C30      1.0000 0.66450  0.38909  0.07156  Biso   1.000  C
  C31      1.0000 0.66450  0.11091  0.57156  Biso   1.000  C
  C32      1.0000 0.33550  0.61091  0.92844  Biso   1.000  C
  H45      1.0000 0.40241  0.85705  0.41195  Biso   1.000  H
  H46      1.0000 0.59759  0.35705  0.08805  Biso   1.000  H
  H47      1.0000 0.59759  0.14295  0.58805  Biso   1.000  H
  H48      1.0000 0.40241  0.64295  0.91195  Biso   1.000  H
  H49      1.0000 0.35051  0.89581  0.48594  Biso   1.000  H
  H50      1.0000 0.64949  0.39581  0.01406  Biso   1.000  H
  H51      1.0000 0.64949  0.10419  0.51406  Biso   1.000  H
  H52      1.0000 0.35051  0.60419  0.98594  Biso   1.000  H
  H53      1.0000 0.34262  0.93375  0.40175  Biso   1.000  H
  H54      1.0000 0.65738  0.43375  0.09825  Biso   1.000  H
  H55      1.0000 0.65738  0.06625  0.59825  Biso   1.000  H
  H56      1.0000 0.34262  0.56625  0.90175  Biso   1.000  H
  C33      1.0000 0.08600  0.91439  0.41700  Biso   1.000  C
  C34      1.0000 0.91400  0.41439  0.08300  Biso   1.000  C
  C35      1.0000 0.91400  0.08561  0.58300  Biso   1.000  C
  C36      1.0000 0.08600  0.58561  0.91700  Biso   1.000  C
  H57      1.0000 0.09055  0.95140  0.37787  Biso   1.000  H
  H58      1.0000 0.90945  0.45140  0.12213  Biso   1.000  H
  H59      1.0000 0.90945  0.04860  0.62213  Biso   1.000  H
  H60      1.0000 0.09055  0.54860  0.87787  Biso   1.000  H
  H61      1.0000 0.10204  0.93390  0.47049  Biso   1.000  H
  H62      1.0000 0.89796  0.43390  0.02951  Biso   1.000  H
  H63      1.0000 0.89796  0.06610  0.52951  Biso   1.000  H
  H64      1.0000 0.10204  0.56610  0.97049  Biso   1.000  H
  H65      1.0000 0.99748  0.89295  0.40969  Biso   1.000  H
  H66      1.0000 0.00252  0.39295  0.09031  Biso   1.000  H
  H67      1.0000 0.00252  0.10705  0.59031  Biso   1.000  H
  H68      1.0000 0.99748  0.60705  0.90969  Biso   1.000  H
  C37      1.0000 0.95290  0.65476  0.49201  Biso   1.000  C
  C38      1.0000 0.04710  0.15476  0.00799  Biso   1.000  C
  C39      1.0000 0.04710  0.34524  0.50799  Biso   1.000  C
  C40      1.0000 0.95290  0.84524  0.99201  Biso   1.000  C
  H69      1.0000 0.87039  0.67446  0.47072  Biso   1.000  H
  H70      1.0000 0.12961  0.17446  0.02928  Biso   1.000  H
  H71      1.0000 0.12961  0.32554  0.52928  Biso   1.000  H
  H72      1.0000 0.87039  0.82554  0.97072  Biso   1.000  H
  C41      1.0000 0.95430  0.59097  0.54426  Biso   1.000  C
  C42      1.0000 0.04570  0.09097  0.95574  Biso   1.000  C
  C43      1.0000 0.04570  0.40903  0.45574  Biso   1.000  C
  C44      1.0000 0.95430  0.90903  0.04426  Biso   1.000  C
  C45      1.0000 0.84300  0.54773  0.54727  Biso   1.000  C
  C46      1.0000 0.15700  0.04773  0.95273  Biso   1.000  C
  C47      1.0000 0.15700  0.45227  0.45273  Biso   1.000  C
  C48      1.0000 0.84300  0.95227  0.04727  Biso   1.000  C
  H73      1.0000 0.76213  0.55692  0.51483  Biso   1.000  H
  H74      1.0000 0.23787  0.05692  0.98517  Biso   1.000  H
  H75      1.0000 0.23787  0.44308  0.48517  Biso   1.000  H
  H76      1.0000 0.76213  0.94308  0.01483  Biso   1.000  H
  C49      1.0000 0.85330  0.49057  0.59912  Biso   1.000  C
  C50      1.0000 0.14670  0.99057  0.90088  Biso   1.000  C
  C51      1.0000 0.14670  0.50943  0.40088  Biso   1.000  C
  C52      1.0000 0.85330  0.00943  0.09912  Biso   1.000  C
  H77      1.0000 0.77904  0.46087  0.60211  Biso   1.000  H
  H78      1.0000 0.22096  0.96087  0.89789  Biso   1.000  H
  H79      1.0000 0.22096  0.53913  0.39789  Biso   1.000  H
  H80      1.0000 0.77904  0.03913  0.10211  Biso   1.000  H
  C53      1.0000 0.97400  0.47775  0.64643  Biso   1.000  C
  C54      1.0000 0.02600  0.97775  0.85357  Biso   1.000  C
  C55      1.0000 0.02600  0.52225  0.35357  Biso   1.000  C
  C56      1.0000 0.97400  0.02225  0.14643  Biso   1.000  C
  H81      1.0000 0.97928  0.43968  0.68207  Biso   1.000  H
  H82      1.0000 0.02072  0.93968  0.81793  Biso   1.000  H
  H83      1.0000 0.02072  0.56032  0.31793  Biso   1.000  H
  H84      1.0000 0.97928  0.06032  0.18207  Biso   1.000  H
  C57      1.0000 0.07320  0.57407  0.59229  Biso   1.000  C
  C58      1.0000 0.92680  0.07407  0.90771  Biso   1.000  C
  C59      1.0000 0.92680  0.42593  0.40771  Biso   1.000  C
  C60      1.0000 0.07320  0.92593  0.09229  Biso   1.000  C
  H85      1.0000 0.14900  0.60265  0.58941  Biso   1.000  H
  H86      1.0000 0.85100  0.10265  0.91059  Biso   1.000  H
  H87      1.0000 0.85100  0.39735  0.41059  Biso   1.000  H
  H88      1.0000 0.14900  0.89735  0.08941  Biso   1.000  H
  C61      1.0000 0.41540  0.28209  0.66590  Biso   1.000  C
  C62      1.0000 0.58460  0.78209  0.83410  Biso   1.000  C
  C63      1.0000 0.58460  0.71791  0.33410  Biso   1.000  C
  C64      1.0000 0.41540  0.21791  0.16590  Biso   1.000  C
  F1       1.0000 0.38250  0.27130  0.59000  Biso   1.000  F
  F2       1.0000 0.61750  0.77130  0.91000  Biso   1.000  F
  F3       1.0000 0.61750  0.72870  0.41000  Biso   1.000  F
  F4       1.0000 0.38250  0.22870  0.09000  Biso   1.000  F
  F5       1.0000 0.42200  0.22550  0.70750  Biso   1.000  F
  F6       1.0000 0.57800  0.72550  0.79250  Biso   1.000  F
  F7       1.0000 0.57800  0.77450  0.29250  Biso   1.000  F
  F8       1.0000 0.42200  0.27450  0.20750  Biso   1.000  F
  F9       1.0000 0.54160  0.30460  0.66480  Biso   1.000  F
  F10      1.0000 0.45840  0.80460  0.83520  Biso   1.000  F
  F11      1.0000 0.45840  0.69540  0.33520  Biso   1.000  F
  F12      1.0000 0.54160  0.19540  0.16480  Biso   1.000  F
  C65      1.0000 0.33510  0.34242  0.70030  Biso   1.000  C
  C66      1.0000 0.66490  0.84242  0.79970  Biso   1.000  C
  C67      1.0000 0.66490  0.65758  0.29970  Biso   1.000  C
  C68      1.0000 0.33510  0.15758  0.20030  Biso   1.000  C
  C69      1.0000 0.30400  0.33558  0.78040  Biso   1.000  C
  C70      1.0000 0.69600  0.83558  0.71960  Biso   1.000  C
  C71      1.0000 0.69600  0.66442  0.21960  Biso   1.000  C
  C72      1.0000 0.30400  0.16442  0.28040  Biso   1.000  C
  H89      1.0000 0.33496  0.29577  0.80977  Biso   1.000  H
  H90      1.0000 0.66504  0.79577  0.69023  Biso   1.000  H
  H91      1.0000 0.66504  0.70423  0.19023  Biso   1.000  H
  H92      1.0000 0.33496  0.20423  0.30977  Biso   1.000  H
  C73      1.0000 0.23050  0.38475  0.81690  Biso   1.000  C
  C74      1.0000 0.76950  0.88475  0.68310  Biso   1.000  C
  C75      1.0000 0.76950  0.61525  0.18310  Biso   1.000  C
  C76      1.0000 0.23050  0.11525  0.31690  Biso   1.000  C
  C77      1.0000 0.19980  0.37022  0.90297  Biso   1.000  C
  C78      1.0000 0.80020  0.87022  0.59703  Biso   1.000  C
  C79      1.0000 0.80020  0.62978  0.09703  Biso   1.000  C
  C80      1.0000 0.19980  0.12978  0.40297  Biso   1.000  C
  F13      1.0000 0.21560  0.30651  0.92616  Biso   1.000  F
  F14      1.0000 0.78440  0.80651  0.57384  Biso   1.000  F
  F15      1.0000 0.78440  0.69349  0.07384  Biso   1.000  F
  F16      1.0000 0.21560  0.19349  0.42616  Biso   1.000  F
  F17      1.0000 0.06740  0.38170  0.90869  Biso   1.000  F
  F18      1.0000 0.93260  0.88170  0.59131  Biso   1.000  F
  F19      1.0000 0.93260  0.61830  0.09131  Biso   1.000  F
  F20      1.0000 0.06740  0.11830  0.40869  Biso   1.000  F
  F21      1.0000 0.25400  0.41379  0.95320  Biso   1.000  F
  F22      1.0000 0.74600  0.91379  0.54680  Biso   1.000  F
  F23      1.0000 0.74600  0.58621  0.04680  Biso   1.000  F
  F24      1.0000 0.25400  0.08621  0.45320  Biso   1.000  F
  C81      1.0000 0.66650  0.49880  0.82910  Biso   1.000  C
  C82      1.0000 0.33350  0.99880  0.67090  Biso   1.000  C
  C83      1.0000 0.33350  0.50120  0.17090  Biso   1.000  C
  C84      1.0000 0.66650  0.00120  0.32910  Biso   1.000  C
  C85      1.0000 0.54630  0.51932  0.76669  Biso   1.000  C
  C86      1.0000 0.45370  0.01932  0.73331  Biso   1.000  C
  C87      1.0000 0.45370  0.48068  0.23331  Biso   1.000  C
  C88      1.0000 0.54630  0.98068  0.26669  Biso   1.000  C
  C89      1.0000 0.57100  0.56713  0.70714  Biso   1.000  C
  C90      1.0000 0.42900  0.06713  0.79286  Biso   1.000  C
  C91      1.0000 0.42900  0.43287  0.29286  Biso   1.000  C
  C92      1.0000 0.57100  0.93287  0.20714  Biso   1.000  C
  H93      1.0000 0.65504  0.58945  0.70911  Biso   1.000  H
  H94      1.0000 0.34496  0.08945  0.79089  Biso   1.000  H
  H95      1.0000 0.34496  0.41055  0.29089  Biso   1.000  H
  H96      1.0000 0.65504  0.91055  0.20911  Biso   1.000  H
  C93      1.0000 0.47150  0.58161  0.64525  Biso   1.000  C
  C94      1.0000 0.52850  0.08161  0.85475  Biso   1.000  C
  C95      1.0000 0.52850  0.41839  0.35475  Biso   1.000  C
  C96      1.0000 0.47150  0.91839  0.14525  Biso   1.000  C
  C97      1.0000 0.50060  0.63540  0.58020  Biso   1.000  C
  C98      1.0000 0.49940  0.13540  0.91980  Biso   1.000  C
  C99      1.0000 0.49940  0.36460  0.41980  Biso   1.000  C
  C100     1.0000 0.50060  0.86460  0.08020  Biso   1.000  C
  Cu1      1.0000 0.26326  0.49986  0.70854  Biso   1.000  Cu
  Cu2      1.0000 0.73674  0.99986  0.79146  Biso   1.000  Cu
  Cu3      1.0000 0.73674  0.50014  0.29146  Biso   1.000  Cu
  Cu4      1.0000 0.26326  0.00014  0.20854  Biso   1.000  Cu
  O5       1.0000 0.30330  0.39071  0.65254  Biso   1.000  O
  O6       1.0000 0.69670  0.89071  0.84746  Biso   1.000  O
  O7       1.0000 0.69670  0.60929  0.34746  Biso   1.000  O
  O8       1.0000 0.30330  0.10929  0.15254  Biso   1.000  O
  O9       1.0000 0.18221  0.44317  0.78968  Biso   1.000  O
  O10      1.0000 0.81779  0.94317  0.71032  Biso   1.000  O
  O11      1.0000 0.81779  0.55683  0.21032  Biso   1.000  O
  O12      1.0000 0.18221  0.05683  0.28968  Biso   1.000  O
  O13      1.0000 0.43790  0.48874  0.77625  Biso   1.000  O
  O14      1.0000 0.56210  0.98874  0.72375  Biso   1.000  O
  O15      1.0000 0.56210  0.51126  0.22375  Biso   1.000  O
  O16      1.0000 0.43790  0.01126  0.27625  Biso   1.000  O
  O17      1.0000 0.35413  0.55578  0.63225  Biso   1.000  O
  O18      1.0000 0.64587  0.05578  0.86775  Biso   1.000  O
  O19      1.0000 0.64587  0.44422  0.36775  Biso   1.000  O
  O20      1.0000 0.35413  0.94422  0.13225  Biso   1.000  O
  F25      1.0000 0.62310  0.66329  0.59169  Biso   1.000  F
  F26      1.0000 0.37690  0.16329  0.90831  Biso   1.000  F
  F27      1.0000 0.37690  0.33671  0.40831  Biso   1.000  F
  F28      1.0000 0.62310  0.83671  0.09169  Biso   1.000  F
  F29      1.0000 0.49560  0.60340  0.50977  Biso   1.000  F
  F30      1.0000 0.50440  0.10340  0.99023  Biso   1.000  F
  F31      1.0000 0.50440  0.39660  0.49023  Biso   1.000  F
  F32      1.0000 0.49560  0.89660  0.00977  Biso   1.000  F
  F33      1.0000 0.41430  0.68650  0.57600  Biso   1.000  F
  F34      1.0000 0.58570  0.18650  0.92400  Biso   1.000  F
  F35      1.0000 0.58570  0.31350  0.42400  Biso   1.000  F
  F36      1.0000 0.41430  0.81350  0.07600  Biso   1.000  F
  F37      1.0000 0.77640  0.49650  0.80370  Biso   1.000  F
  F38      1.0000 0.22360  0.99650  0.69630  Biso   1.000  F
  F39      1.0000 0.22360  0.50350  0.19630  Biso   1.000  F
  F40      1.0000 0.77640  0.00350  0.30370  Biso   1.000  F
  F41      1.0000 0.64810  0.44670  0.86960  Biso   1.000  F
  F42      1.0000 0.35190  0.94670  0.63040  Biso   1.000  F
  F43      1.0000 0.35190  0.55330  0.13040  Biso   1.000  F
  F44      1.0000 0.64810  0.05330  0.36960  Biso   1.000  F
  F45      1.0000 0.69100  0.55120  0.87960  Biso   1.000  F
  F46      1.0000 0.30900  0.05120  0.62040  Biso   1.000  F
  F47      1.0000 0.30900  0.44880  0.12040  Biso   1.000  F
  F48      1.0000 0.69100  0.94880  0.37960  Biso   1.000  F
  F49      1.0000 0.70030  0.43320  0.81560  Biso   1.000  F
  F50      1.0000 0.29970  0.93320  0.68440  Biso   1.000  F
  F51      1.0000 0.29970  0.56680  0.18440  Biso   1.000  F
  F52      1.0000 0.70030  0.06680  0.31560  Biso   1.000  F
  F53      1.0000 0.62260  0.50110  0.90230  Biso   1.000  F
  F54      1.0000 0.37740  0.00110  0.59770  Biso   1.000  F
  F55      1.0000 0.37740  0.49890  0.09770  Biso   1.000  F
  F56      1.0000 0.62260  0.99890  0.40230  Biso   1.000  F
  F57      1.0000 0.76640  0.54010  0.83070  Biso   1.000  F
  F58      1.0000 0.23360  0.04010  0.66930  Biso   1.000  F
  F59      1.0000 0.23360  0.45990  0.16930  Biso   1.000  F
  F60      1.0000 0.76640  0.95990  0.33070  Biso   1.000  F
  F61      1.0000 0.32810  0.24300  0.61600  Biso   1.000  F
  F62      1.0000 0.67190  0.74300  0.88400  Biso   1.000  F
  F63      1.0000 0.67190  0.75700  0.38400  Biso   1.000  F
  F64      1.0000 0.32810  0.25700  0.11600  Biso   1.000  F
  F65      1.0000 0.46730  0.23780  0.71960  Biso   1.000  F
  F66      1.0000 0.53270  0.73780  0.78040  Biso   1.000  F
  F67      1.0000 0.53270  0.76220  0.28040  Biso   1.000  F
  F68      1.0000 0.46730  0.26220  0.21960  Biso   1.000  F
  F69      1.0000 0.51640  0.30210  0.63390  Biso   1.000  F
  F70      1.0000 0.48360  0.80210  0.86610  Biso   1.000  F
  F71      1.0000 0.48360  0.69790  0.36610  Biso   1.000  F
  F72      1.0000 0.51640  0.19790  0.13390  Biso   1.000  F
