data_image0
_cell_length_a       11.2788
_cell_length_b       10.1456
_cell_length_c       14.1768
_cell_angle_alpha    90
_cell_angle_beta     112.976
_cell_angle_gamma    90

_symmetry_space_group_name_H-M    "P 1"
_symmetry_int_tables_number       1

loop_
  _symmetry_equiv_pos_as_xyz
  'x, y, z'

loop_
  _atom_site_label
  _atom_site_occupancy
  _atom_site_fract_x
  _atom_site_fract_y
  _atom_site_fract_z
  _atom_site_thermal_displace_type
  _atom_site_B_iso_or_equiv
  _atom_site_type_symbol
  Cu1      1.0000 0.11227  0.58890  0.28822  Biso   1.000  Cu
  Cu2      1.0000 0.38773  0.08890  0.21178  Biso   1.000  Cu
  Cu3      1.0000 0.88773  0.41110  0.71178  Biso   1.000  Cu
  Cu4      1.0000 0.61227  0.91110  0.78822  Biso   1.000  Cu
  S1       1.0000 0.12619  0.15644  0.16209  Biso   1.000  S
  S2       1.0000 0.37381  0.65644  0.33791  Biso   1.000  S
  S3       1.0000 0.87381  0.84356  0.83791  Biso   1.000  S
  S4       1.0000 0.62619  0.34356  0.66209  Biso   1.000  S
  O1       1.0000 0.16700  0.50920  0.41969  Biso   1.000  O
  O2       1.0000 0.33300  0.00920  0.08031  Biso   1.000  O
  O3       1.0000 0.83300  0.49080  0.58031  Biso   1.000  O
  O4       1.0000 0.66700  0.99080  0.91969  Biso   1.000  O
  O5       1.0000 0.12900  0.95260  0.62170  Biso   1.000  O
  O6       1.0000 0.37100  0.45260  0.87830  Biso   1.000  O
  O7       1.0000 0.87100  0.04740  0.37830  Biso   1.000  O
  O8       1.0000 0.62900  0.54740  0.12170  Biso   1.000  O
  H1       1.0000 0.18300  0.96000  0.67500  Biso   1.000  H
  H2       1.0000 0.31700  0.46000  0.82500  Biso   1.000  H
  H3       1.0000 0.81700  0.04000  0.32500  Biso   1.000  H
  H4       1.0000 0.68300  0.54000  0.17500  Biso   1.000  H
  N1       1.0000 0.05780  0.75000  0.33480  Biso   1.000  N
  N2       1.0000 0.44220  0.25000  0.16520  Biso   1.000  N
  N3       1.0000 0.94220  0.25000  0.66520  Biso   1.000  N
  N4       1.0000 0.55780  0.75000  0.83480  Biso   1.000  N
  N5       1.0000 0.03940  0.67800  0.14770  Biso   1.000  N
  N6       1.0000 0.46060  0.17800  0.35230  Biso   1.000  N
  N7       1.0000 0.96060  0.32200  0.85230  Biso   1.000  N
  N8       1.0000 0.53940  0.82200  0.64770  Biso   1.000  N
  N9       1.0000 0.18120  0.50290  0.67510  Biso   1.000  N
  N10      1.0000 0.31880  0.00290  0.82490  Biso   1.000  N
  N11      1.0000 0.81880  0.49710  0.32490  Biso   1.000  N
  N12      1.0000 0.68120  0.99710  0.17510  Biso   1.000  N
  N13      1.0000 0.11740  0.41540  0.22710  Biso   1.000  N
  N14      1.0000 0.38260  0.91540  0.27290  Biso   1.000  N
  N15      1.0000 0.88260  0.58460  0.77290  Biso   1.000  N
  N16      1.0000 0.61740  0.08460  0.72710  Biso   1.000  N
  C1       1.0000 0.19130  0.46940  0.58870  Biso   1.000  C
  C2       1.0000 0.30870  0.96940  0.91130  Biso   1.000  C
  C3       1.0000 0.80870  0.53060  0.41130  Biso   1.000  C
  C4       1.0000 0.69130  0.03060  0.08870  Biso   1.000  C
  C5       1.0000 0.15430  0.55510  0.50030  Biso   1.000  C
  C6       1.0000 0.34570  0.05510  0.99970  Biso   1.000  C
  C7       1.0000 0.84570  0.44490  0.49970  Biso   1.000  C
  C8       1.0000 0.65430  0.94490  0.00030  Biso   1.000  C
  C9       1.0000 0.10490  0.67960  0.50950  Biso   1.000  C
  C10      1.0000 0.39510  0.17960  0.99050  Biso   1.000  C
  C11      1.0000 0.89510  0.32040  0.49050  Biso   1.000  C
  C12      1.0000 0.60490  0.82040  0.00950  Biso   1.000  C
  C13      1.0000 0.09450  0.71360  0.60380  Biso   1.000  C
  C14      1.0000 0.40550  0.21360  0.89620  Biso   1.000  C
  C15      1.0000 0.90550  0.28640  0.39620  Biso   1.000  C
  C16      1.0000 0.59450  0.78640  0.10380  Biso   1.000  C
  C17      1.0000 0.13220  0.62400  0.68140  Biso   1.000  C
  C18      1.0000 0.36780  0.12400  0.81860  Biso   1.000  C
  C19      1.0000 0.86780  0.37600  0.31860  Biso   1.000  C
  C20      1.0000 0.63220  0.87600  0.18140  Biso   1.000  C
  H5       1.0000 0.12385  0.64704  0.74347  Biso   1.000  H
  H6       1.0000 0.37615  0.14704  0.75653  Biso   1.000  H
  H7       1.0000 0.87615  0.35296  0.25653  Biso   1.000  H
  H8       1.0000 0.62385  0.85296  0.24347  Biso   1.000  H
  C21      1.0000 0.04440  0.84660  0.61980  Biso   1.000  C
  C22      1.0000 0.45560  0.34660  0.88020  Biso   1.000  C
  C23      1.0000 0.95560  0.15340  0.38020  Biso   1.000  C
  C24      1.0000 0.54440  0.65340  0.11980  Biso   1.000  C
  H9       1.0000 0.95928  0.86233  0.56404  Biso   1.000  H
  H10      1.0000 0.54072  0.36233  0.93596  Biso   1.000  H
  H11      1.0000 0.04072  0.13767  0.43596  Biso   1.000  H
  H12      1.0000 0.45928  0.63767  0.06404  Biso   1.000  H
  H13      1.0000 0.03241  0.84551  0.68534  Biso   1.000  H
  H14      1.0000 0.46759  0.34551  0.81466  Biso   1.000  H
  H15      1.0000 0.96759  0.15449  0.31466  Biso   1.000  H
  H16      1.0000 0.53241  0.65449  0.18534  Biso   1.000  H
  C25      1.0000 0.24520  0.33620  0.58170  Biso   1.000  C
  C26      1.0000 0.25480  0.83620  0.91830  Biso   1.000  C
  C27      1.0000 0.75480  0.66380  0.41830  Biso   1.000  C
  C28      1.0000 0.74520  0.16380  0.08170  Biso   1.000  C
  H17      1.0000 0.33747  0.34408  0.59711  Biso   1.000  H
  H18      1.0000 0.16253  0.84408  0.90289  Biso   1.000  H
  H19      1.0000 0.66253  0.65592  0.40289  Biso   1.000  H
  H20      1.0000 0.83747  0.15592  0.09711  Biso   1.000  H
  H21      1.0000 0.20099  0.30107  0.51228  Biso   1.000  H
  H22      1.0000 0.29901  0.80107  0.98772  Biso   1.000  H
  H23      1.0000 0.79901  0.69893  0.48772  Biso   1.000  H
  H24      1.0000 0.70099  0.19893  0.01228  Biso   1.000  H
  H25      1.0000 0.23219  0.27634  0.63109  Biso   1.000  H
  H26      1.0000 0.26781  0.77634  0.86891  Biso   1.000  H
  H27      1.0000 0.76781  0.72366  0.36891  Biso   1.000  H
  H28      1.0000 0.73219  0.22366  0.13109  Biso   1.000  H
  C29      1.0000 0.06030  0.77300  0.42520  Biso   1.000  C
  C30      1.0000 0.43970  0.27300  0.07480  Biso   1.000  C
  C31      1.0000 0.93970  0.22700  0.57480  Biso   1.000  C
  C32      1.0000 0.56030  0.72700  0.92520  Biso   1.000  C
  H29      1.0000 0.03092  0.85653  0.43730  Biso   1.000  H
  H30      1.0000 0.46908  0.35653  0.06270  Biso   1.000  H
  H31      1.0000 0.96908  0.14347  0.56270  Biso   1.000  H
  H32      1.0000 0.53092  0.64347  0.93730  Biso   1.000  H
  C33      1.0000 0.99980  0.84860  0.25380  Biso   1.000  C
  C34      1.0000 0.50020  0.34860  0.24620  Biso   1.000  C
  C35      1.0000 0.00020  0.15140  0.74620  Biso   1.000  C
  C36      1.0000 0.49980  0.65140  0.75380  Biso   1.000  C
  H33      1.0000 0.02664  0.93820  0.28160  Biso   1.000  H
  H34      1.0000 0.47336  0.43820  0.21840  Biso   1.000  H
  H35      1.0000 0.97336  0.06180  0.71840  Biso   1.000  H
  H36      1.0000 0.52664  0.56180  0.78160  Biso   1.000  H
  H37      1.0000 0.90471  0.84350  0.22801  Biso   1.000  H
  H38      1.0000 0.59529  0.34350  0.27199  Biso   1.000  H
  H39      1.0000 0.09529  0.15650  0.77199  Biso   1.000  H
  H40      1.0000 0.40471  0.65650  0.72801  Biso   1.000  H
  C37      1.0000 0.04340  0.82210  0.16770  Biso   1.000  C
  C38      1.0000 0.45660  0.32210  0.33230  Biso   1.000  C
  C39      1.0000 0.95660  0.17790  0.83230  Biso   1.000  C
  C40      1.0000 0.54340  0.67790  0.66770  Biso   1.000  C
  H41      1.0000 0.98643  0.86868  0.10504  Biso   1.000  H
  H42      1.0000 0.51357  0.36868  0.39496  Biso   1.000  H
  H43      1.0000 0.01357  0.13132  0.89496  Biso   1.000  H
  H44      1.0000 0.48643  0.63132  0.60504  Biso   1.000  H
  H45      1.0000 0.13225  0.85523  0.18642  Biso   1.000  H
  H46      1.0000 0.36775  0.35523  0.31358  Biso   1.000  H
  H47      1.0000 0.86775  0.14477  0.81358  Biso   1.000  H
  H48      1.0000 0.63225  0.64477  0.68642  Biso   1.000  H
  C41      1.0000 0.11120  0.65090  0.08200  Biso   1.000  C
  C42      1.0000 0.38880  0.15090  0.41800  Biso   1.000  C
  C43      1.0000 0.88880  0.34910  0.91800  Biso   1.000  C
  C44      1.0000 0.61120  0.84910  0.58200  Biso   1.000  C
  H49      1.0000 0.06946  0.69645  0.01631  Biso   1.000  H
  H50      1.0000 0.43054  0.19645  0.48369  Biso   1.000  H
  H51      1.0000 0.93054  0.30355  0.98369  Biso   1.000  H
  H52      1.0000 0.56946  0.80355  0.51631  Biso   1.000  H
  H53      1.0000 0.11177  0.55582  0.07011  Biso   1.000  H
  H54      1.0000 0.38823  0.05582  0.42989  Biso   1.000  H
  H55      1.0000 0.88823  0.44418  0.92989  Biso   1.000  H
  H56      1.0000 0.61177  0.94418  0.57011  Biso   1.000  H
  H57      1.0000 0.19989  0.68258  0.11612  Biso   1.000  H
  H58      1.0000 0.30011  0.18258  0.38388  Biso   1.000  H
  H59      1.0000 0.80011  0.31742  0.88388  Biso   1.000  H
  H60      1.0000 0.69989  0.81742  0.61612  Biso   1.000  H
  C45      1.0000 0.90490  0.63170  0.09540  Biso   1.000  C
  C46      1.0000 0.59510  0.13170  0.40460  Biso   1.000  C
  C47      1.0000 0.09510  0.36830  0.90460  Biso   1.000  C
  C48      1.0000 0.40490  0.86830  0.59540  Biso   1.000  C
  H61      1.0000 0.86558  0.67431  0.02821  Biso   1.000  H
  H62      1.0000 0.63442  0.17431  0.47179  Biso   1.000  H
  H63      1.0000 0.13442  0.32569  0.97179  Biso   1.000  H
  H64      1.0000 0.36558  0.82569  0.52821  Biso   1.000  H
  H65      1.0000 0.85580  0.65424  0.13691  Biso   1.000  H
  H66      1.0000 0.64420  0.15424  0.36309  Biso   1.000  H
  H67      1.0000 0.14420  0.34576  0.86309  Biso   1.000  H
  H68      1.0000 0.35580  0.84576  0.63691  Biso   1.000  H
  H69      1.0000 0.90429  0.53589  0.08635  Biso   1.000  H
  H70      1.0000 0.59571  0.03589  0.41365  Biso   1.000  H
  H71      1.0000 0.09571  0.46411  0.91365  Biso   1.000  H
  H72      1.0000 0.40429  0.96411  0.58635  Biso   1.000  H
  C49      1.0000 0.12040  0.30750  0.20030  Biso   1.000  C
  C50      1.0000 0.37960  0.80750  0.29970  Biso   1.000  C
  C51      1.0000 0.87960  0.69250  0.79970  Biso   1.000  C
  C52      1.0000 0.62040  0.19250  0.70030  Biso   1.000  C
