data_image0
_cell_length_a       12.0129
_cell_length_b       12.0129
_cell_length_c       15.8085
_cell_angle_alpha    90
_cell_angle_beta     90
_cell_angle_gamma    90

_symmetry_space_group_name_H-M    "P 1"
_symmetry_int_tables_number       1

loop_
  _symmetry_equiv_pos_as_xyz
  'x, y, z'

loop_
  _atom_site_label
  _atom_site_occupancy
  _atom_site_fract_x
  _atom_site_fract_y
  _atom_site_fract_z
  _atom_site_thermal_displace_type
  _atom_site_B_iso_or_equiv
  _atom_site_type_symbol
  Cu1      1.0000 0.82407  0.54466  0.12353  Biso   1.000  Cu
  Cu2      1.0000 0.17593  0.45534  0.62353  Biso   1.000  Cu
  Cu3      1.0000 0.45534  0.82407  0.87353  Biso   1.000  Cu
  Cu4      1.0000 0.54466  0.17593  0.37353  Biso   1.000  Cu
  Cl1      1.0000 0.74898  0.68974  0.19757  Biso   1.000  Cl
  Cl2      1.0000 0.25102  0.31026  0.69757  Biso   1.000  Cl
  Cl3      1.0000 0.31026  0.74898  0.94757  Biso   1.000  Cl
  Cl4      1.0000 0.68974  0.25102  0.44757  Biso   1.000  Cl
  Cl5      1.0000 0.88976  0.47471  0.99959  Biso   1.000  Cl
  Cl6      1.0000 0.11024  0.52529  0.49959  Biso   1.000  Cl
  Cl7      1.0000 0.52529  0.88976  0.74959  Biso   1.000  Cl
  Cl8      1.0000 0.47471  0.11024  0.24959  Biso   1.000  Cl
  Si1      1.0000 0.33463  0.67511  0.26768  Biso   1.000  Si
  Si2      1.0000 0.66537  0.32489  0.76768  Biso   1.000  Si
  Si3      1.0000 0.32489  0.33463  0.01768  Biso   1.000  Si
  Si4      1.0000 0.67511  0.66537  0.51768  Biso   1.000  Si
  S1       1.0000 0.92014  0.31793  0.22986  Biso   1.000  S
  S2       1.0000 0.07986  0.68207  0.72986  Biso   1.000  S
  S3       1.0000 0.68207  0.92014  0.97986  Biso   1.000  S
  S4       1.0000 0.31793  0.07986  0.47986  Biso   1.000  S
  O1       1.0000 0.83580  0.40730  0.22510  Biso   1.000  O
  O2       1.0000 0.16420  0.59270  0.72510  Biso   1.000  O
  O3       1.0000 0.59270  0.83580  0.97510  Biso   1.000  O
  O4       1.0000 0.40730  0.16420  0.47510  Biso   1.000  O
  N1       1.0000 0.97860  0.59300  0.16050  Biso   1.000  N
  N2       1.0000 0.02140  0.40700  0.66050  Biso   1.000  N
  N3       1.0000 0.40700  0.97860  0.91050  Biso   1.000  N
  N4       1.0000 0.59300  0.02140  0.41050  Biso   1.000  N
  N5       1.0000 0.48760  0.32860  0.34250  Biso   1.000  N
  N6       1.0000 0.51240  0.67140  0.84250  Biso   1.000  N
  N7       1.0000 0.67140  0.48760  0.09250  Biso   1.000  N
  N8       1.0000 0.32860  0.51240  0.59250  Biso   1.000  N
  C1       1.0000 0.99930  0.59720  0.24400  Biso   1.000  C
  C2       1.0000 0.00070  0.40280  0.74400  Biso   1.000  C
  C3       1.0000 0.40280  0.99930  0.99400  Biso   1.000  C
  C4       1.0000 0.59720  0.00070  0.49400  Biso   1.000  C
  H1       1.0000 0.93970  0.58250  0.28190  Biso   1.000  H
  H2       1.0000 0.06030  0.41750  0.78190  Biso   1.000  H
  H3       1.0000 0.41750  0.93970  0.03190  Biso   1.000  H
  H4       1.0000 0.58250  0.06030  0.53190  Biso   1.000  H
  C5       1.0000 0.06260  0.61670  0.10900  Biso   1.000  C
  C6       1.0000 0.93740  0.38330  0.60900  Biso   1.000  C
  C7       1.0000 0.38330  0.06260  0.85900  Biso   1.000  C
  C8       1.0000 0.61670  0.93740  0.35900  Biso   1.000  C
  H5       1.0000 0.04960  0.61420  0.04980  Biso   1.000  H
  H6       1.0000 0.95040  0.38580  0.54980  Biso   1.000  H
  H7       1.0000 0.38580  0.04960  0.79980  Biso   1.000  H
  H8       1.0000 0.61420  0.95040  0.29980  Biso   1.000  H
  C9       1.0000 0.16780  0.64460  0.13690  Biso   1.000  C
  C10      1.0000 0.83220  0.35540  0.63690  Biso   1.000  C
  C11      1.0000 0.35540  0.16780  0.88690  Biso   1.000  C
  C12      1.0000 0.64460  0.83220  0.38690  Biso   1.000  C
  H9       1.0000 0.22440  0.66260  0.09720  Biso   1.000  H
  H10      1.0000 0.77560  0.33740  0.59720  Biso   1.000  H
  H11      1.0000 0.33740  0.22440  0.84720  Biso   1.000  H
  H12      1.0000 0.66260  0.77560  0.34720  Biso   1.000  H
  C13      1.0000 0.10210  0.62160  0.27760  Biso   1.000  C
  C14      1.0000 0.89790  0.37840  0.77760  Biso   1.000  C
  C15      1.0000 0.37840  0.10210  0.02760  Biso   1.000  C
  C16      1.0000 0.62160  0.89790  0.52760  Biso   1.000  C
  H13      1.0000 0.11230  0.62160  0.33720  Biso   1.000  H
  H14      1.0000 0.88770  0.37840  0.83720  Biso   1.000  H
  H15      1.0000 0.37840  0.11230  0.08720  Biso   1.000  H
  H16      1.0000 0.62160  0.88770  0.58720  Biso   1.000  H
  C17      1.0000 0.19150  0.64640  0.22440  Biso   1.000  C
  C18      1.0000 0.80850  0.35360  0.72440  Biso   1.000  C
  C19      1.0000 0.35360  0.19150  0.97440  Biso   1.000  C
  C20      1.0000 0.64640  0.80850  0.47440  Biso   1.000  C
  C21      1.0000 0.32010  0.75300  0.36760  Biso   1.000  C
  C22      1.0000 0.67990  0.24700  0.86760  Biso   1.000  C
  C23      1.0000 0.24700  0.32010  0.11760  Biso   1.000  C
  C24      1.0000 0.75300  0.67990  0.61760  Biso   1.000  C
  H17      1.0000 0.28470  0.82500  0.35630  Biso   1.000  H
  H18      1.0000 0.71530  0.17500  0.85630  Biso   1.000  H
  H19      1.0000 0.17500  0.28470  0.10630  Biso   1.000  H
  H20      1.0000 0.82500  0.71530  0.60630  Biso   1.000  H
  H21      1.0000 0.39390  0.76520  0.39240  Biso   1.000  H
  H22      1.0000 0.60610  0.23480  0.89240  Biso   1.000  H
  H23      1.0000 0.23480  0.39390  0.14240  Biso   1.000  H
  H24      1.0000 0.76520  0.60610  0.64240  Biso   1.000  H
  H25      1.0000 0.27950  0.71350  0.40950  Biso   1.000  H
  H26      1.0000 0.72050  0.28650  0.90950  Biso   1.000  H
  H27      1.0000 0.28650  0.27950  0.15950  Biso   1.000  H
  H28      1.0000 0.71350  0.72050  0.65950  Biso   1.000  H
  C25      1.0000 0.42120  0.74890  0.18810  Biso   1.000  C
  C26      1.0000 0.57880  0.25110  0.68810  Biso   1.000  C
  C27      1.0000 0.25110  0.42120  0.93810  Biso   1.000  C
  C28      1.0000 0.74890  0.57880  0.43810  Biso   1.000  C
  H29      1.0000 0.44050  0.71360  0.13640  Biso   1.000  H
  H30      1.0000 0.55950  0.28640  0.63640  Biso   1.000  H
  H31      1.0000 0.28640  0.44050  0.88640  Biso   1.000  H
  H32      1.0000 0.71360  0.55950  0.38640  Biso   1.000  H
  C29      1.0000 0.45560  0.85070  0.20440  Biso   1.000  C
  C30      1.0000 0.54440  0.14930  0.70440  Biso   1.000  C
  C31      1.0000 0.14930  0.45560  0.95440  Biso   1.000  C
  C32      1.0000 0.85070  0.54440  0.45440  Biso   1.000  C
  H33      1.0000 0.43610  0.88550  0.25620  Biso   1.000  H
  H34      1.0000 0.56390  0.11450  0.75620  Biso   1.000  H
  H35      1.0000 0.11450  0.43610  0.00620  Biso   1.000  H
  H36      1.0000 0.88550  0.56390  0.50620  Biso   1.000  H
  H37      1.0000 0.50000  0.88930  0.16420  Biso   1.000  H
  H38      1.0000 0.50000  0.11070  0.66420  Biso   1.000  H
  H39      1.0000 0.11070  0.50000  0.91420  Biso   1.000  H
  H40      1.0000 0.88930  0.50000  0.41420  Biso   1.000  H
  C33      1.0000 0.39730  0.53560  0.29500  Biso   1.000  C
  C34      1.0000 0.60270  0.46440  0.79500  Biso   1.000  C
  C35      1.0000 0.46440  0.39730  0.04500  Biso   1.000  C
  C36      1.0000 0.53560  0.60270  0.54500  Biso   1.000  C
  C37      1.0000 0.50890  0.50930  0.28410  Biso   1.000  C
  C38      1.0000 0.49110  0.49070  0.78410  Biso   1.000  C
  C39      1.0000 0.49070  0.50890  0.03410  Biso   1.000  C
  C40      1.0000 0.50930  0.49110  0.53410  Biso   1.000  C
  H41      1.0000 0.55740  0.56220  0.25890  Biso   1.000  H
  H42      1.0000 0.44260  0.43780  0.75890  Biso   1.000  H
  H43      1.0000 0.43780  0.55740  0.00890  Biso   1.000  H
  H44      1.0000 0.56220  0.44260  0.50890  Biso   1.000  H
  C41      1.0000 0.33280  0.45290  0.33030  Biso   1.000  C
  C42      1.0000 0.66720  0.54710  0.83030  Biso   1.000  C
  C43      1.0000 0.54710  0.33280  0.08030  Biso   1.000  C
  C44      1.0000 0.45290  0.66720  0.58030  Biso   1.000  C
  H45      1.0000 0.25550  0.46520  0.33910  Biso   1.000  H
  H46      1.0000 0.74450  0.53480  0.83910  Biso   1.000  H
  H47      1.0000 0.53480  0.25550  0.08910  Biso   1.000  H
  H48      1.0000 0.46520  0.74450  0.58910  Biso   1.000  H
  C45      1.0000 0.38020  0.35200  0.35320  Biso   1.000  C
  C46      1.0000 0.61980  0.64800  0.85320  Biso   1.000  C
  C47      1.0000 0.64800  0.38020  0.10320  Biso   1.000  C
  C48      1.0000 0.35200  0.61980  0.60320  Biso   1.000  C
  H49      1.0000 0.33360  0.29680  0.37780  Biso   1.000  H
  H50      1.0000 0.66640  0.70320  0.87780  Biso   1.000  H
  H51      1.0000 0.70320  0.33360  0.12780  Biso   1.000  H
  H52      1.0000 0.29680  0.66640  0.62780  Biso   1.000  H
  C49      1.0000 0.55040  0.40810  0.30940  Biso   1.000  C
  C50      1.0000 0.44960  0.59190  0.80940  Biso   1.000  C
  C51      1.0000 0.59190  0.55040  0.05940  Biso   1.000  C
  C52      1.0000 0.40810  0.44960  0.55940  Biso   1.000  C
  H53      1.0000 0.62780  0.39450  0.30280  Biso   1.000  H
  H54      1.0000 0.37220  0.60550  0.80280  Biso   1.000  H
  H55      1.0000 0.60550  0.62780  0.05280  Biso   1.000  H
  H56      1.0000 0.39450  0.37220  0.55280  Biso   1.000  H
  C53      1.0000 0.96400  0.31030  0.33760  Biso   1.000  C
  C54      1.0000 0.03600  0.68970  0.83760  Biso   1.000  C
  C55      1.0000 0.68970  0.96400  0.08760  Biso   1.000  C
  C56      1.0000 0.31030  0.03600  0.58760  Biso   1.000  C
  H57      1.0000 0.01260  0.37360  0.35040  Biso   1.000  H
  H58      1.0000 0.98740  0.62640  0.85040  Biso   1.000  H
  H59      1.0000 0.62640  0.01260  0.10040  Biso   1.000  H
  H60      1.0000 0.37360  0.98740  0.60040  Biso   1.000  H
  H61      1.0000 0.00480  0.24070  0.34680  Biso   1.000  H
  H62      1.0000 0.99520  0.75930  0.84680  Biso   1.000  H
  H63      1.0000 0.75930  0.00480  0.09680  Biso   1.000  H
  H64      1.0000 0.24070  0.99520  0.59680  Biso   1.000  H
  H65      1.0000 0.89870  0.31240  0.37470  Biso   1.000  H
  H66      1.0000 0.10130  0.68760  0.87470  Biso   1.000  H
  H67      1.0000 0.68760  0.89870  0.12470  Biso   1.000  H
  H68      1.0000 0.31240  0.10130  0.62470  Biso   1.000  H
  C57      1.0000 0.83690  0.19070  0.23430  Biso   1.000  C
  C58      1.0000 0.16310  0.80930  0.73430  Biso   1.000  C
  C59      1.0000 0.80930  0.83690  0.98430  Biso   1.000  C
  C60      1.0000 0.19070  0.16310  0.48430  Biso   1.000  C
  H69      1.0000 0.80340  0.17680  0.17880  Biso   1.000  H
  H70      1.0000 0.19660  0.82320  0.67880  Biso   1.000  H
  H71      1.0000 0.82320  0.80340  0.92880  Biso   1.000  H
  H72      1.0000 0.17680  0.19660  0.42880  Biso   1.000  H
  H73      1.0000 0.77800  0.19940  0.27670  Biso   1.000  H
  H74      1.0000 0.22200  0.80060  0.77670  Biso   1.000  H
  H75      1.0000 0.80060  0.77800  0.02670  Biso   1.000  H
  H76      1.0000 0.19940  0.22200  0.52670  Biso   1.000  H
  H77      1.0000 0.88480  0.12790  0.24990  Biso   1.000  H
  H78      1.0000 0.11520  0.87210  0.74990  Biso   1.000  H
  H79      1.0000 0.87210  0.88480  0.99990  Biso   1.000  H
  H80      1.0000 0.12790  0.11520  0.49990  Biso   1.000  H
  H81      1.0000 0.27410  0.71020  0.40710  Biso   1.000  H
  H82      1.0000 0.72590  0.28980  0.90710  Biso   1.000  H
  H83      1.0000 0.28980  0.27410  0.15710  Biso   1.000  H
  H84      1.0000 0.71020  0.72590  0.65710  Biso   1.000  H
  H85      1.0000 0.33780  0.82850  0.35580  Biso   1.000  H
  H86      1.0000 0.66220  0.17150  0.85580  Biso   1.000  H
  H87      1.0000 0.17150  0.33780  0.10580  Biso   1.000  H
  H88      1.0000 0.82850  0.66220  0.60580  Biso   1.000  H
  C61      1.0000 0.29500  0.74700  0.44850  Biso   1.000  C
  C62      1.0000 0.70500  0.25300  0.94850  Biso   1.000  C
  C63      1.0000 0.25300  0.29500  0.19850  Biso   1.000  C
  C64      1.0000 0.74700  0.70500  0.69850  Biso   1.000  C
  H89      1.0000 0.31070  0.80800  0.48480  Biso   1.000  H
  H90      1.0000 0.68930  0.19200  0.98480  Biso   1.000  H
  H91      1.0000 0.19200  0.31070  0.23480  Biso   1.000  H
  H92      1.0000 0.80800  0.68930  0.73480  Biso   1.000  H
  H93      1.0000 0.26200  0.68130  0.47070  Biso   1.000  H
  H94      1.0000 0.73800  0.31870  0.97070  Biso   1.000  H
  H95      1.0000 0.31870  0.26200  0.22070  Biso   1.000  H
  H96      1.0000 0.68130  0.73800  0.72070  Biso   1.000  H
  C65      1.0000 0.35400  0.85150  0.39300  Biso   1.000  C
  C66      1.0000 0.64600  0.14850  0.89300  Biso   1.000  C
  C67      1.0000 0.14850  0.35400  0.14300  Biso   1.000  C
  C68      1.0000 0.85150  0.64600  0.64300  Biso   1.000  C
  H97      1.0000 0.34650  0.87180  0.45120  Biso   1.000  H
  H98      1.0000 0.65350  0.12820  0.95120  Biso   1.000  H
  H99      1.0000 0.12820  0.34650  0.20120  Biso   1.000  H
  H100     1.0000 0.87180  0.65350  0.70120  Biso   1.000  H
  H101     1.0000 0.38580  0.90230  0.35420  Biso   1.000  H
  H102     1.0000 0.61420  0.09770  0.85420  Biso   1.000  H
  H103     1.0000 0.09770  0.38580  0.10420  Biso   1.000  H
  H104     1.0000 0.90230  0.61420  0.60420  Biso   1.000  H
  H105     1.0000 0.49530  0.76320  0.21180  Biso   1.000  H
  H106     1.0000 0.50470  0.23680  0.71180  Biso   1.000  H
  H107     1.0000 0.23680  0.49530  0.96180  Biso   1.000  H
  H108     1.0000 0.76320  0.50470  0.46180  Biso   1.000  H
  H109     1.0000 0.38580  0.81980  0.17330  Biso   1.000  H
  H110     1.0000 0.61420  0.18020  0.67330  Biso   1.000  H
  H111     1.0000 0.18020  0.38580  0.92330  Biso   1.000  H
  H112     1.0000 0.81980  0.61420  0.42330  Biso   1.000  H
  H113     1.0000 0.42830  0.70270  0.13730  Biso   1.000  H
  H114     1.0000 0.57170  0.29730  0.63730  Biso   1.000  H
  H115     1.0000 0.29730  0.42830  0.88730  Biso   1.000  H
  H116     1.0000 0.70270  0.57170  0.38730  Biso   1.000  H
  S5       1.0000 0.10540  0.95500  0.25790  Biso   1.000  S
  S6       1.0000 0.89460  0.04500  0.75790  Biso   1.000  S
  S7       1.0000 0.04500  0.10540  0.00790  Biso   1.000  S
  S8       1.0000 0.95500  0.89460  0.50790  Biso   1.000  S
  O5       1.0000 0.07180  0.05430  0.29960  Biso   1.000  O
  O6       1.0000 0.92820  0.94570  0.79960  Biso   1.000  O
  O7       1.0000 0.94570  0.07180  0.04960  Biso   1.000  O
  O8       1.0000 0.05430  0.92820  0.54960  Biso   1.000  O
  C69      1.0000 0.99250  0.90430  0.20550  Biso   1.000  C
  C70      1.0000 0.00750  0.09570  0.70550  Biso   1.000  C
  C71      1.0000 0.09570  0.99250  0.95550  Biso   1.000  C
  C72      1.0000 0.90430  0.00750  0.45550  Biso   1.000  C
  H117     1.0000 0.93480  0.88370  0.24630  Biso   1.000  H
  H118     1.0000 0.06520  0.11630  0.74630  Biso   1.000  H
  H119     1.0000 0.11630  0.93480  0.99630  Biso   1.000  H
  H120     1.0000 0.88370  0.06520  0.49630  Biso   1.000  H
  H121     1.0000 0.01430  0.83860  0.17270  Biso   1.000  H
  H122     1.0000 0.98570  0.16140  0.67270  Biso   1.000  H
  H123     1.0000 0.16140  0.01430  0.92270  Biso   1.000  H
  H124     1.0000 0.83860  0.98570  0.42270  Biso   1.000  H
  H125     1.0000 0.96350  0.96160  0.16720  Biso   1.000  H
  H126     1.0000 0.03650  0.03840  0.66720  Biso   1.000  H
  H127     1.0000 0.03840  0.96350  0.91720  Biso   1.000  H
  H128     1.0000 0.96160  0.03650  0.41720  Biso   1.000  H
  C73      1.0000 0.19830  0.98190  0.18060  Biso   1.000  C
  C74      1.0000 0.80170  0.01810  0.68060  Biso   1.000  C
  C75      1.0000 0.01810  0.19830  0.93060  Biso   1.000  C
  C76      1.0000 0.98190  0.80170  0.43060  Biso   1.000  C
  H129     1.0000 0.26650  0.01220  0.20560  Biso   1.000  H
  H130     1.0000 0.73350  0.98780  0.70560  Biso   1.000  H
  H131     1.0000 0.98780  0.26650  0.95560  Biso   1.000  H
  H132     1.0000 0.01220  0.73350  0.45560  Biso   1.000  H
  H133     1.0000 0.16670  0.03620  0.14110  Biso   1.000  H
  H134     1.0000 0.83330  0.96380  0.64110  Biso   1.000  H
  H135     1.0000 0.96380  0.16670  0.89110  Biso   1.000  H
  H136     1.0000 0.03620  0.83330  0.39110  Biso   1.000  H
  H137     1.0000 0.21560  0.91290  0.15030  Biso   1.000  H
  H138     1.0000 0.78440  0.08710  0.65030  Biso   1.000  H
  H139     1.0000 0.08710  0.21560  0.90030  Biso   1.000  H
  H140     1.0000 0.91290  0.78440  0.40030  Biso   1.000  H
