data_image0
_cell_length_a       11.9782
_cell_length_b       11.9782
_cell_length_c       15.7892
_cell_angle_alpha    90
_cell_angle_beta     90
_cell_angle_gamma    90

_symmetry_space_group_name_H-M    "P 1"
_symmetry_int_tables_number       1

loop_
  _symmetry_equiv_pos_as_xyz
  'x, y, z'

loop_
  _atom_site_label
  _atom_site_occupancy
  _atom_site_fract_x
  _atom_site_fract_y
  _atom_site_fract_z
  _atom_site_thermal_displace_type
  _atom_site_B_iso_or_equiv
  _atom_site_type_symbol
  Cu1      1.0000 0.95583  0.32388  0.18000  Biso   1.000  Cu
  Cu2      1.0000 0.67612  0.95583  0.43000  Biso   1.000  Cu
  Cu3      1.0000 0.04417  0.67612  0.68000  Biso   1.000  Cu
  Cu4      1.0000 0.32388  0.04417  0.93000  Biso   1.000  Cu
  Cl1      1.0000 0.81041  0.24852  0.10650  Biso   1.000  Cl
  Cl2      1.0000 0.75148  0.81041  0.35650  Biso   1.000  Cl
  Cl3      1.0000 0.18959  0.75148  0.60650  Biso   1.000  Cl
  Cl4      1.0000 0.24852  0.18959  0.85650  Biso   1.000  Cl
  Cl5      1.0000 0.02760  0.39003  0.30350  Biso   1.000  Cl
  Cl6      1.0000 0.60997  0.02760  0.55350  Biso   1.000  Cl
  Cl7      1.0000 0.97240  0.60997  0.80350  Biso   1.000  Cl
  Cl8      1.0000 0.39003  0.97240  0.05350  Biso   1.000  Cl
  Si1      1.0000 0.82324  0.83513  0.03580  Biso   1.000  Si
  Si2      1.0000 0.16487  0.82324  0.28580  Biso   1.000  Si
  Si3      1.0000 0.17676  0.16487  0.53580  Biso   1.000  Si
  Si4      1.0000 0.83513  0.17676  0.78580  Biso   1.000  Si
  S1       1.0000 0.18160  0.41970  0.07260  Biso   1.000  S
  S2       1.0000 0.58030  0.18160  0.32260  Biso   1.000  S
  S3       1.0000 0.81840  0.58030  0.57260  Biso   1.000  S
  S4       1.0000 0.41970  0.81840  0.82260  Biso   1.000  S
  O1       1.0000 0.09410  0.33430  0.07640  Biso   1.000  O
  O2       1.0000 0.66570  0.09410  0.32640  Biso   1.000  O
  O3       1.0000 0.90590  0.66570  0.57640  Biso   1.000  O
  O4       1.0000 0.33430  0.90590  0.82640  Biso   1.000  O
  N1       1.0000 0.90870  0.47810  0.14200  Biso   1.000  N
  N2       1.0000 0.52190  0.90870  0.39200  Biso   1.000  N
  N3       1.0000 0.09130  0.52190  0.64200  Biso   1.000  N
  N4       1.0000 0.47810  0.09130  0.89200  Biso   1.000  N
  N5       1.0000 0.17020  0.98590  0.96020  Biso   1.000  N
  N6       1.0000 0.01410  0.17020  0.21020  Biso   1.000  N
  N7       1.0000 0.82980  0.01410  0.46020  Biso   1.000  N
  N8       1.0000 0.98590  0.82980  0.71020  Biso   1.000  N
  C1       1.0000 0.88250  0.56280  0.19570  Biso   1.000  C
  C2       1.0000 0.43720  0.88250  0.44570  Biso   1.000  C
  C3       1.0000 0.11750  0.43720  0.69570  Biso   1.000  C
  C4       1.0000 0.56280  0.11750  0.94570  Biso   1.000  C
  H1       1.0000 0.88280  0.54930  0.25500  Biso   1.000  H
  H2       1.0000 0.45070  0.88280  0.50500  Biso   1.000  H
  H3       1.0000 0.11720  0.45070  0.75500  Biso   1.000  H
  H4       1.0000 0.54930  0.11720  0.00500  Biso   1.000  H
  C5       1.0000 0.90250  0.49790  0.05920  Biso   1.000  C
  C6       1.0000 0.50210  0.90250  0.30920  Biso   1.000  C
  C7       1.0000 0.09750  0.50210  0.55920  Biso   1.000  C
  C8       1.0000 0.49790  0.09750  0.80920  Biso   1.000  C
  H5       1.0000 0.91590  0.43800  0.02110  Biso   1.000  H
  H6       1.0000 0.56200  0.91590  0.27110  Biso   1.000  H
  H7       1.0000 0.08410  0.56200  0.52110  Biso   1.000  H
  H8       1.0000 0.43800  0.08410  0.77110  Biso   1.000  H
  C9       1.0000 0.85550  0.66720  0.16630  Biso   1.000  C
  C10      1.0000 0.33280  0.85550  0.41630  Biso   1.000  C
  C11      1.0000 0.14450  0.33280  0.66630  Biso   1.000  C
  C12      1.0000 0.66720  0.14450  0.91630  Biso   1.000  C
  H9       1.0000 0.83800  0.72410  0.20600  Biso   1.000  H
  H10      1.0000 0.27590  0.83800  0.45600  Biso   1.000  H
  H11      1.0000 0.16200  0.27590  0.70600  Biso   1.000  H
  H12      1.0000 0.72410  0.16200  0.95600  Biso   1.000  H
  C13      1.0000 0.87800  0.59990  0.02680  Biso   1.000  C
  C14      1.0000 0.40010  0.87800  0.27680  Biso   1.000  C
  C15      1.0000 0.12200  0.40010  0.52680  Biso   1.000  C
  C16      1.0000 0.59990  0.12200  0.77680  Biso   1.000  C
  H13      1.0000 0.87750  0.61000  0.96710  Biso   1.000  H
  H14      1.0000 0.39000  0.87750  0.21710  Biso   1.000  H
  H15      1.0000 0.12250  0.39000  0.46710  Biso   1.000  H
  H16      1.0000 0.61000  0.12250  0.71710  Biso   1.000  H
  C17      1.0000 0.85310  0.69240  0.08030  Biso   1.000  C
  C18      1.0000 0.30760  0.85310  0.33030  Biso   1.000  C
  C19      1.0000 0.14690  0.30760  0.58030  Biso   1.000  C
  C20      1.0000 0.69240  0.14690  0.83030  Biso   1.000  C
  C21      1.0000 0.96260  0.89780  0.00840  Biso   1.000  C
  C22      1.0000 0.10220  0.96260  0.25840  Biso   1.000  C
  C23      1.0000 0.03740  0.10220  0.50840  Biso   1.000  C
  C24      1.0000 0.89780  0.03740  0.75840  Biso   1.000  C
  C25      1.0000 0.98860  0.00970  0.01950  Biso   1.000  C
  C26      1.0000 0.99030  0.98860  0.26950  Biso   1.000  C
  C27      1.0000 0.01140  0.99030  0.51950  Biso   1.000  C
  C28      1.0000 0.00970  0.01140  0.76950  Biso   1.000  C
  H17      1.0000 0.93520  0.05870  0.04380  Biso   1.000  H
  H18      1.0000 0.94130  0.93520  0.29380  Biso   1.000  H
  H19      1.0000 0.06480  0.94130  0.54380  Biso   1.000  H
  H20      1.0000 0.05870  0.06480  0.79380  Biso   1.000  H
  C29      1.0000 0.04710  0.83040  0.97250  Biso   1.000  C
  C30      1.0000 0.16960  0.04710  0.22250  Biso   1.000  C
  C31      1.0000 0.95290  0.16960  0.47250  Biso   1.000  C
  C32      1.0000 0.83040  0.95290  0.72250  Biso   1.000  C
  H21      1.0000 0.03560  0.75270  0.96420  Biso   1.000  H
  H22      1.0000 0.24730  0.03560  0.21420  Biso   1.000  H
  H23      1.0000 0.96440  0.24730  0.46420  Biso   1.000  H
  H24      1.0000 0.75270  0.96440  0.71420  Biso   1.000  H
  C33      1.0000 0.14690  0.87980  0.94960  Biso   1.000  C
  C34      1.0000 0.12020  0.14690  0.19960  Biso   1.000  C
  C35      1.0000 0.85310  0.12020  0.44960  Biso   1.000  C
  C36      1.0000 0.87980  0.85310  0.69960  Biso   1.000  C
  H25      1.0000 0.20250  0.83380  0.92460  Biso   1.000  H
  H26      1.0000 0.16620  0.20250  0.17460  Biso   1.000  H
  H27      1.0000 0.79750  0.16620  0.42460  Biso   1.000  H
  H28      1.0000 0.83380  0.79750  0.67460  Biso   1.000  H
  C37      1.0000 0.09110  0.04980  0.99560  Biso   1.000  C
  C38      1.0000 0.95020  0.09110  0.24560  Biso   1.000  C
  C39      1.0000 0.90890  0.95020  0.49560  Biso   1.000  C
  C40      1.0000 0.04980  0.90890  0.74560  Biso   1.000  C
  H29      1.0000 0.10680  0.12670  0.00450  Biso   1.000  H
  H30      1.0000 0.87330  0.10680  0.25450  Biso   1.000  H
  H31      1.0000 0.89320  0.87330  0.50450  Biso   1.000  H
  H32      1.0000 0.12670  0.89320  0.75450  Biso   1.000  H
  C41      1.0000 0.18650  0.46190  0.96350  Biso   1.000  C
  C42      1.0000 0.53810  0.18650  0.21350  Biso   1.000  C
  C43      1.0000 0.81350  0.53810  0.46350  Biso   1.000  C
  C44      1.0000 0.46190  0.81350  0.71350  Biso   1.000  C
  H33      1.0000 0.12270  0.51040  0.95110  Biso   1.000  H
  H34      1.0000 0.48960  0.12270  0.20110  Biso   1.000  H
  H35      1.0000 0.87730  0.48960  0.45110  Biso   1.000  H
  H36      1.0000 0.51040  0.87730  0.70110  Biso   1.000  H
  H37      1.0000 0.18330  0.39560  0.92710  Biso   1.000  H
  H38      1.0000 0.60440  0.18330  0.17710  Biso   1.000  H
  H39      1.0000 0.81670  0.60440  0.42710  Biso   1.000  H
  H40      1.0000 0.39560  0.81670  0.67710  Biso   1.000  H
  H41      1.0000 0.25610  0.50250  0.95280  Biso   1.000  H
  H42      1.0000 0.49750  0.25610  0.20280  Biso   1.000  H
  H43      1.0000 0.74390  0.49750  0.45280  Biso   1.000  H
  H44      1.0000 0.50250  0.74390  0.70280  Biso   1.000  H
  C45      1.0000 0.30940  0.34290  0.07250  Biso   1.000  C
  C46      1.0000 0.65710  0.30940  0.32250  Biso   1.000  C
  C47      1.0000 0.69060  0.65710  0.57250  Biso   1.000  C
  C48      1.0000 0.34290  0.69060  0.82250  Biso   1.000  C
  H45      1.0000 0.31920  0.30610  0.12740  Biso   1.000  H
  H46      1.0000 0.69390  0.31920  0.37740  Biso   1.000  H
  H47      1.0000 0.68080  0.69390  0.62740  Biso   1.000  H
  H48      1.0000 0.30610  0.68080  0.87740  Biso   1.000  H
  H49      1.0000 0.37190  0.39400  0.06250  Biso   1.000  H
  H50      1.0000 0.60600  0.37190  0.31250  Biso   1.000  H
  H51      1.0000 0.62810  0.60600  0.56250  Biso   1.000  H
  H52      1.0000 0.39400  0.62810  0.81250  Biso   1.000  H
  H53      1.0000 0.30730  0.28650  0.02760  Biso   1.000  H
  H54      1.0000 0.71350  0.30730  0.27760  Biso   1.000  H
  H55      1.0000 0.69270  0.71350  0.52760  Biso   1.000  H
  H56      1.0000 0.28650  0.69270  0.77760  Biso   1.000  H
  C49      1.0000 0.75990  0.81270  0.93200  Biso   1.000  C
  C50      1.0000 0.18730  0.75990  0.18200  Biso   1.000  C
  C51      1.0000 0.24010  0.18730  0.43200  Biso   1.000  C
  C52      1.0000 0.81270  0.24010  0.68200  Biso   1.000  C
  H57      1.0000 0.80280  0.77820  0.88870  Biso   1.000  H
  H58      1.0000 0.22180  0.80280  0.13870  Biso   1.000  H
  H59      1.0000 0.19720  0.22180  0.38870  Biso   1.000  H
  H60      1.0000 0.77820  0.19720  0.63870  Biso   1.000  H
  C53      1.0000 0.65610  0.84300  0.91500  Biso   1.000  C
  C54      1.0000 0.15700  0.65610  0.16500  Biso   1.000  C
  C55      1.0000 0.34390  0.15700  0.41500  Biso   1.000  C
  C56      1.0000 0.84300  0.34390  0.66500  Biso   1.000  C
  H61      1.0000 0.61210  0.87770  0.95790  Biso   1.000  H
  H62      1.0000 0.12230  0.61210  0.20790  Biso   1.000  H
  H63      1.0000 0.38790  0.12230  0.45790  Biso   1.000  H
  H64      1.0000 0.87770  0.38790  0.70790  Biso   1.000  H
  H65      1.0000 0.62550  0.83020  0.86060  Biso   1.000  H
  H66      1.0000 0.16980  0.62550  0.11060  Biso   1.000  H
  H67      1.0000 0.37450  0.16980  0.36060  Biso   1.000  H
  H68      1.0000 0.83020  0.37450  0.61060  Biso   1.000  H
  C57      1.0000 0.73990  0.92350  0.11640  Biso   1.000  C
  C58      1.0000 0.07650  0.73990  0.36640  Biso   1.000  C
  C59      1.0000 0.26010  0.07650  0.61640  Biso   1.000  C
  C60      1.0000 0.92350  0.26010  0.86640  Biso   1.000  C
  H69      1.0000 0.66080  0.90270  0.11380  Biso   1.000  H
  H70      1.0000 0.09730  0.66080  0.36380  Biso   1.000  H
  H71      1.0000 0.33920  0.09730  0.61380  Biso   1.000  H
  H72      1.0000 0.90270  0.33920  0.86380  Biso   1.000  H
  H73      1.0000 0.74810  0.00280  0.10260  Biso   1.000  H
  H74      1.0000 0.99720  0.74810  0.35260  Biso   1.000  H
  H75      1.0000 0.25190  0.99720  0.60260  Biso   1.000  H
  H76      1.0000 0.00280  0.25190  0.85260  Biso   1.000  H
  H77      1.0000 0.76850  0.90960  0.17360  Biso   1.000  H
  H78      1.0000 0.09040  0.76850  0.42360  Biso   1.000  H
  H79      1.0000 0.23150  0.09040  0.67360  Biso   1.000  H
  H80      1.0000 0.90960  0.23150  0.92360  Biso   1.000  H
  S5       1.0000 0.39680  0.54500  0.29480  Biso   1.000  S
  S6       1.0000 0.45500  0.39680  0.54480  Biso   1.000  S
  S7       1.0000 0.60320  0.45500  0.79480  Biso   1.000  S
  S8       1.0000 0.54500  0.60320  0.04480  Biso   1.000  S
  O5       1.0000 0.42950  0.45140  0.25320  Biso   1.000  O
  O6       1.0000 0.54860  0.42950  0.50320  Biso   1.000  O
  O7       1.0000 0.57050  0.54860  0.75320  Biso   1.000  O
  O8       1.0000 0.45140  0.57050  0.00320  Biso   1.000  O
  C61      1.0000 0.50730  0.59270  0.34750  Biso   1.000  C
  C62      1.0000 0.40730  0.50730  0.59750  Biso   1.000  C
  C63      1.0000 0.49270  0.40730  0.84750  Biso   1.000  C
  C64      1.0000 0.59270  0.49270  0.09750  Biso   1.000  C
  H81      1.0000 0.56580  0.61410  0.30730  Biso   1.000  H
  H82      1.0000 0.38590  0.56580  0.55730  Biso   1.000  H
  H83      1.0000 0.43420  0.38590  0.80730  Biso   1.000  H
  H84      1.0000 0.61410  0.43420  0.05730  Biso   1.000  H
  H85      1.0000 0.53570  0.53410  0.38520  Biso   1.000  H
  H86      1.0000 0.46590  0.53570  0.63520  Biso   1.000  H
  H87      1.0000 0.46430  0.46590  0.88520  Biso   1.000  H
  H88      1.0000 0.53410  0.46430  0.13520  Biso   1.000  H
  H89      1.0000 0.48560  0.65790  0.38120  Biso   1.000  H
  H90      1.0000 0.34210  0.48560  0.63120  Biso   1.000  H
  H91      1.0000 0.51440  0.34210  0.88120  Biso   1.000  H
  H92      1.0000 0.65790  0.51440  0.13120  Biso   1.000  H
  C65      1.0000 0.30580  0.51500  0.37250  Biso   1.000  C
  C66      1.0000 0.48500  0.30580  0.62250  Biso   1.000  C
  C67      1.0000 0.69420  0.48500  0.87250  Biso   1.000  C
  C68      1.0000 0.51500  0.69420  0.12250  Biso   1.000  C
  H93      1.0000 0.23720  0.48440  0.34790  Biso   1.000  H
  H94      1.0000 0.51560  0.23720  0.59790  Biso   1.000  H
  H95      1.0000 0.76280  0.51560  0.84790  Biso   1.000  H
  H96      1.0000 0.48440  0.76280  0.09790  Biso   1.000  H
  H97      1.0000 0.28820  0.58320  0.40420  Biso   1.000  H
  H98      1.0000 0.41680  0.28820  0.65420  Biso   1.000  H
  H99      1.0000 0.71180  0.41680  0.90420  Biso   1.000  H
  H100     1.0000 0.58320  0.71180  0.15420  Biso   1.000  H
  H101     1.0000 0.33890  0.45990  0.41090  Biso   1.000  H
  H102     1.0000 0.54010  0.33890  0.66090  Biso   1.000  H
  H103     1.0000 0.66110  0.54010  0.91090  Biso   1.000  H
  H104     1.0000 0.45990  0.66110  0.16090  Biso   1.000  H
  C69      1.0000 0.72900  0.82800  0.92000  Biso   1.000  C
  C70      1.0000 0.17200  0.72900  0.17000  Biso   1.000  C
  C71      1.0000 0.27100  0.17200  0.42000  Biso   1.000  C
  C72      1.0000 0.82800  0.27100  0.67000  Biso   1.000  C
  H105     1.0000 0.75810  0.76760  0.88410  Biso   1.000  H
  H106     1.0000 0.23240  0.75810  0.13410  Biso   1.000  H
  H107     1.0000 0.24190  0.23240  0.38410  Biso   1.000  H
  H108     1.0000 0.76760  0.24190  0.63410  Biso   1.000  H
  H109     1.0000 0.73540  0.89900  0.88990  Biso   1.000  H
  H110     1.0000 0.10100  0.73540  0.13990  Biso   1.000  H
  H111     1.0000 0.26460  0.10100  0.38990  Biso   1.000  H
  H112     1.0000 0.89900  0.26460  0.63990  Biso   1.000  H
  H113     1.0000 0.65020  0.81310  0.93300  Biso   1.000  H
  H114     1.0000 0.18690  0.65020  0.18300  Biso   1.000  H
  H115     1.0000 0.34980  0.18690  0.43300  Biso   1.000  H
  H116     1.0000 0.81310  0.34980  0.68300  Biso   1.000  H
  C73      1.0000 0.66210  0.95400  0.10100  Biso   1.000  C
  C74      1.0000 0.04600  0.66210  0.35100  Biso   1.000  C
  C75      1.0000 0.33790  0.04600  0.60100  Biso   1.000  C
  C76      1.0000 0.95400  0.33790  0.85100  Biso   1.000  C
  H117     1.0000 0.61860  0.93410  0.05260  Biso   1.000  H
  H118     1.0000 0.06590  0.61860  0.30260  Biso   1.000  H
  H119     1.0000 0.38140  0.06590  0.55260  Biso   1.000  H
  H120     1.0000 0.93410  0.38140  0.80260  Biso   1.000  H
  H121     1.0000 0.63120  0.00050  0.14330  Biso   1.000  H
  H122     1.0000 0.99950  0.63120  0.39330  Biso   1.000  H
  H123     1.0000 0.36880  0.99950  0.64330  Biso   1.000  H
  H124     1.0000 0.00050  0.36880  0.89330  Biso   1.000  H
  C77      1.0000 0.76540  0.91600  0.10800  Biso   1.000  C
  C78      1.0000 0.08400  0.76540  0.35800  Biso   1.000  C
  C79      1.0000 0.23460  0.08400  0.60800  Biso   1.000  C
  C80      1.0000 0.91600  0.23460  0.85800  Biso   1.000  C
  H125     1.0000 0.80780  0.93700  0.15660  Biso   1.000  H
  H126     1.0000 0.06300  0.80780  0.40660  Biso   1.000  H
  H127     1.0000 0.19220  0.06300  0.65660  Biso   1.000  H
  H128     1.0000 0.93700  0.19220  0.90660  Biso   1.000  H
  C81      1.0000 0.71700  0.83000  0.95270  Biso   1.000  C
  C82      1.0000 0.17000  0.71700  0.20270  Biso   1.000  C
  C83      1.0000 0.28300  0.17000  0.45270  Biso   1.000  C
  C84      1.0000 0.83000  0.28300  0.70270  Biso   1.000  C
  C85      1.0000 0.75630  0.80700  0.87650  Biso   1.000  C
  C86      1.0000 0.19300  0.75630  0.12650  Biso   1.000  C
  C87      1.0000 0.24370  0.19300  0.37650  Biso   1.000  C
  C88      1.0000 0.80700  0.24370  0.62650  Biso   1.000  C
  H129     1.0000 0.70690  0.80300  0.82950  Biso   1.000  H
  H130     1.0000 0.19700  0.70690  0.07950  Biso   1.000  H
  H131     1.0000 0.29310  0.19700  0.32950  Biso   1.000  H
  H132     1.0000 0.80300  0.29310  0.57950  Biso   1.000  H
  H133     1.0000 0.83400  0.79510  0.86870  Biso   1.000  H
  H134     1.0000 0.20490  0.83400  0.11870  Biso   1.000  H
  H135     1.0000 0.16600  0.20490  0.36870  Biso   1.000  H
  H136     1.0000 0.79510  0.16600  0.61870  Biso   1.000  H
  H137     1.0000 0.63980  0.84290  0.96350  Biso   1.000  H
  H138     1.0000 0.15710  0.63980  0.21350  Biso   1.000  H
  H139     1.0000 0.36020  0.15710  0.46350  Biso   1.000  H
  H140     1.0000 0.84290  0.36020  0.71350  Biso   1.000  H
