data_image0
_cell_length_a       11.87
_cell_length_b       14.995
_cell_length_c       17.229
_cell_angle_alpha    90
_cell_angle_beta     90
_cell_angle_gamma    90

_symmetry_space_group_name_H-M    "P 1"
_symmetry_int_tables_number       1

loop_
  _symmetry_equiv_pos_as_xyz
  'x, y, z'

loop_
  _atom_site_label
  _atom_site_occupancy
  _atom_site_fract_x
  _atom_site_fract_y
  _atom_site_fract_z
  _atom_site_thermal_displace_type
  _atom_site_B_iso_or_equiv
  _atom_site_type_symbol
  C1       1.0000 0.86210  0.91340  0.26540  Biso   1.000  C
  C2       1.0000 0.63790  0.08660  0.76540  Biso   1.000  C
  C3       1.0000 0.13790  0.41340  0.23460  Biso   1.000  C
  C4       1.0000 0.36210  0.58660  0.73460  Biso   1.000  C
  Gd1      1.0000 0.76429  0.04804  0.12722  Biso   1.000  Gd
  Gd2      1.0000 0.73571  0.95196  0.62722  Biso   1.000  Gd
  Gd3      1.0000 0.23571  0.54804  0.37278  Biso   1.000  Gd
  Gd4      1.0000 0.26429  0.45196  0.87278  Biso   1.000  Gd
  Cu1      1.0000 0.89750  0.09871  0.29865  Biso   1.000  Cu
  Cu2      1.0000 0.60250  0.90129  0.79865  Biso   1.000  Cu
  Cu3      1.0000 0.10250  0.59871  0.20135  Biso   1.000  Cu
  Cu4      1.0000 0.39750  0.40129  0.70135  Biso   1.000  Cu
  O1       1.0000 0.77900  0.06330  0.98390  Biso   1.000  O
  O2       1.0000 0.72100  0.93670  0.48390  Biso   1.000  O
  O3       1.0000 0.22100  0.56330  0.51610  Biso   1.000  O
  O4       1.0000 0.27900  0.43670  0.01610  Biso   1.000  O
  O5       1.0000 0.59200  0.07350  0.20420  Biso   1.000  O
  O6       1.0000 0.90800  0.92650  0.70420  Biso   1.000  O
  O7       1.0000 0.40800  0.57350  0.29580  Biso   1.000  O
  O8       1.0000 0.09200  0.42650  0.79580  Biso   1.000  O
  O9       1.0000 0.72360  0.93330  0.02150  Biso   1.000  O
  O10      1.0000 0.77640  0.06670  0.52150  Biso   1.000  O
  O11      1.0000 0.27640  0.43330  0.47850  Biso   1.000  O
  O12      1.0000 0.22360  0.56670  0.97850  Biso   1.000  O
  O13      1.0000 0.56680  0.05420  0.08270  Biso   1.000  O
  O14      1.0000 0.93320  0.94580  0.58270  Biso   1.000  O
  O15      1.0000 0.43320  0.55420  0.41730  Biso   1.000  O
  O16      1.0000 0.06680  0.44580  0.91730  Biso   1.000  O
  O17      1.0000 0.85300  0.99920  0.23890  Biso   1.000  O
  O18      1.0000 0.64700  0.00080  0.73890  Biso   1.000  O
  O19      1.0000 0.14700  0.49920  0.26110  Biso   1.000  O
  O20      1.0000 0.35300  0.50080  0.76110  Biso   1.000  O
  N1       1.0000 0.52400  0.07220  0.14820  Biso   1.000  N
  N2       1.0000 0.97600  0.92780  0.64820  Biso   1.000  N
  N3       1.0000 0.47600  0.57220  0.35180  Biso   1.000  N
  N4       1.0000 0.02400  0.42780  0.85180  Biso   1.000  N
  N5       1.0000 0.75060  0.98530  0.96640  Biso   1.000  N
  N6       1.0000 0.74940  0.01470  0.46640  Biso   1.000  N
  N7       1.0000 0.24940  0.48530  0.53360  Biso   1.000  N
  N8       1.0000 0.25060  0.51470  0.03360  Biso   1.000  N
  O21      1.0000 0.75240  0.95880  0.89810  Biso   1.000  O
  O22      1.0000 0.74760  0.04120  0.39810  Biso   1.000  O
  O23      1.0000 0.24760  0.45880  0.60190  Biso   1.000  O
  O24      1.0000 0.25240  0.54120  0.10190  Biso   1.000  O
  O25      1.0000 0.94960  0.10810  0.09510  Biso   1.000  O
  O26      1.0000 0.55040  0.89190  0.59510  Biso   1.000  O
  O27      1.0000 0.05040  0.60810  0.40490  Biso   1.000  O
  O28      1.0000 0.44960  0.39190  0.90490  Biso   1.000  O
  O29      1.0000 0.93790  0.96730  0.08590  Biso   1.000  O
  O30      1.0000 0.56210  0.03270  0.58590  Biso   1.000  O
  O31      1.0000 0.06210  0.46730  0.41410  Biso   1.000  O
  O32      1.0000 0.43790  0.53270  0.91410  Biso   1.000  O
  O33      1.0000 0.71920  0.89020  0.17660  Biso   1.000  O
  O34      1.0000 0.78080  0.10980  0.67660  Biso   1.000  O
  O35      1.0000 0.28080  0.39020  0.32340  Biso   1.000  O
  O36      1.0000 0.21920  0.60980  0.82340  Biso   1.000  O
  N9       1.0000 0.00560  0.03590  0.36070  Biso   1.000  N
  N10      1.0000 0.49440  0.96410  0.86070  Biso   1.000  N
  N11      1.0000 0.99440  0.53590  0.13930  Biso   1.000  N
  N12      1.0000 0.50560  0.46410  0.63930  Biso   1.000  N
  C5       1.0000 0.00690  0.94970  0.36710  Biso   1.000  C
  C6       1.0000 0.49310  0.05030  0.86710  Biso   1.000  C
  C7       1.0000 0.99310  0.44970  0.13290  Biso   1.000  C
  C8       1.0000 0.50690  0.55030  0.63290  Biso   1.000  C
  H1       1.0000 0.05890  0.92570  0.40170  Biso   1.000  H
  H2       1.0000 0.44110  0.07430  0.90170  Biso   1.000  H
  H3       1.0000 0.94110  0.42570  0.09830  Biso   1.000  H
  H4       1.0000 0.55890  0.57430  0.59830  Biso   1.000  H
  O37      1.0000 0.71160  0.21290  0.10090  Biso   1.000  O
  O38      1.0000 0.78840  0.78710  0.60090  Biso   1.000  O
  O39      1.0000 0.28840  0.71290  0.39910  Biso   1.000  O
  O40      1.0000 0.21160  0.28710  0.89910  Biso   1.000  O
  C9       1.0000 0.73900  0.28130  0.15620  Biso   1.000  C
  C10      1.0000 0.76100  0.71870  0.65620  Biso   1.000  C
  C11      1.0000 0.26100  0.78130  0.34380  Biso   1.000  C
  C12      1.0000 0.23900  0.21870  0.84380  Biso   1.000  C
  C13      1.0000 0.93590  0.88680  0.32610  Biso   1.000  C
  C14      1.0000 0.56410  0.11320  0.82610  Biso   1.000  C
  C15      1.0000 0.06410  0.38680  0.17390  Biso   1.000  C
  C16      1.0000 0.43590  0.61320  0.67390  Biso   1.000  C
  N13      1.0000 0.93600  0.20180  0.35710  Biso   1.000  N
  N14      1.0000 0.56400  0.79820  0.85710  Biso   1.000  N
  N15      1.0000 0.06400  0.70180  0.14290  Biso   1.000  N
  N16      1.0000 0.43600  0.29820  0.64290  Biso   1.000  N
  C17      1.0000 0.79490  0.24660  0.22040  Biso   1.000  C
  C18      1.0000 0.70510  0.75340  0.72040  Biso   1.000  C
  C19      1.0000 0.20510  0.74660  0.27960  Biso   1.000  C
  C20      1.0000 0.29490  0.25340  0.77960  Biso   1.000  C
  O41      1.0000 0.81120  0.15740  0.22210  Biso   1.000  O
  O42      1.0000 0.68880  0.84260  0.72210  Biso   1.000  O
  O43      1.0000 0.18880  0.65740  0.27790  Biso   1.000  O
  O44      1.0000 0.31120  0.34260  0.77790  Biso   1.000  O
  O45      1.0000 0.09540  0.03570  0.05880  Biso   1.000  O
  O46      1.0000 0.40460  0.96430  0.55880  Biso   1.000  O
  O47      1.0000 0.90460  0.53570  0.44120  Biso   1.000  O
  O48      1.0000 0.59540  0.46430  0.94120  Biso   1.000  O
  N17      1.0000 0.00100  0.03850  0.07840  Biso   1.000  N
  N18      1.0000 0.49900  0.96150  0.57840  Biso   1.000  N
  N19      1.0000 0.99900  0.53850  0.42160  Biso   1.000  N
  N20      1.0000 0.50100  0.46150  0.92160  Biso   1.000  N
  C21      1.0000 0.07610  0.09520  0.40210  Biso   1.000  C
  C22      1.0000 0.42390  0.90480  0.90210  Biso   1.000  C
  C23      1.0000 0.92390  0.59520  0.09790  Biso   1.000  C
  C24      1.0000 0.57610  0.40480  0.59790  Biso   1.000  C
  H5       1.0000 0.13150  0.11720  0.36450  Biso   1.000  H
  H6       1.0000 0.36850  0.88280  0.86450  Biso   1.000  H
  H7       1.0000 0.86850  0.61720  0.13550  Biso   1.000  H
  H8       1.0000 0.63150  0.38280  0.63550  Biso   1.000  H
  C25      1.0000 0.94230  0.79600  0.34370  Biso   1.000  C
  C26      1.0000 0.55770  0.20400  0.84370  Biso   1.000  C
  C27      1.0000 0.05770  0.29600  0.15630  Biso   1.000  C
  C28      1.0000 0.44230  0.70400  0.65630  Biso   1.000  C
  H9       1.0000 0.99450  0.77630  0.38020  Biso   1.000  H
  H10      1.0000 0.50550  0.22370  0.88020  Biso   1.000  H
  H11      1.0000 0.00550  0.27630  0.11980  Biso   1.000  H
  H12      1.0000 0.49450  0.72370  0.61980  Biso   1.000  H
  C29      1.0000 0.21600  0.13330  0.50470  Biso   1.000  C
  C30      1.0000 0.28400  0.86670  0.00470  Biso   1.000  C
  C31      1.0000 0.78400  0.63330  0.99530  Biso   1.000  C
  C32      1.0000 0.71600  0.36670  0.49530  Biso   1.000  C
  H13      1.0000 0.27350  0.15060  0.46730  Biso   1.000  H
  H14      1.0000 0.22650  0.84940  0.96730  Biso   1.000  H
  H15      1.0000 0.72650  0.65060  0.03270  Biso   1.000  H
  H16      1.0000 0.77350  0.34940  0.53270  Biso   1.000  H
  H17      1.0000 0.25410  0.11010  0.55040  Biso   1.000  H
  H18      1.0000 0.24590  0.88990  0.05040  Biso   1.000  H
  H19      1.0000 0.74590  0.61010  0.94960  Biso   1.000  H
  H20      1.0000 0.75410  0.38990  0.44960  Biso   1.000  H
  C33      1.0000 0.74000  0.42510  0.21000  Biso   1.000  C
  C34      1.0000 0.76000  0.57490  0.71000  Biso   1.000  C
  C35      1.0000 0.26000  0.92510  0.29000  Biso   1.000  C
  C36      1.0000 0.24000  0.07490  0.79000  Biso   1.000  C
  H21      1.0000 0.72010  0.48490  0.20720  Biso   1.000  H
  H22      1.0000 0.77990  0.51510  0.70720  Biso   1.000  H
  H23      1.0000 0.27990  0.98490  0.29280  Biso   1.000  H
  H24      1.0000 0.22010  0.01510  0.79280  Biso   1.000  H
  C37      1.0000 0.79950  0.39550  0.27130  Biso   1.000  C
  C38      1.0000 0.70050  0.60450  0.77130  Biso   1.000  C
  C39      1.0000 0.20050  0.89550  0.22870  Biso   1.000  C
  C40      1.0000 0.29950  0.10450  0.72870  Biso   1.000  C
  H25      1.0000 0.81900  0.43580  0.31010  Biso   1.000  H
  H26      1.0000 0.68100  0.56420  0.81010  Biso   1.000  H
  H27      1.0000 0.18100  0.93580  0.18990  Biso   1.000  H
  H28      1.0000 0.31900  0.06420  0.68990  Biso   1.000  H
  C41      1.0000 0.14260  0.06330  0.47080  Biso   1.000  C
  C42      1.0000 0.35740  0.93670  0.97080  Biso   1.000  C
  C43      1.0000 0.85740  0.56330  0.02920  Biso   1.000  C
  C44      1.0000 0.64260  0.43670  0.52920  Biso   1.000  C
  H29      1.0000 0.09080  0.04250  0.51040  Biso   1.000  H
  H30      1.0000 0.40920  0.95750  0.01040  Biso   1.000  H
  H31      1.0000 0.90920  0.54250  0.98960  Biso   1.000  H
  H32      1.0000 0.59080  0.45750  0.48960  Biso   1.000  H
  H33      1.0000 0.18880  0.01310  0.45510  Biso   1.000  H
  H34      1.0000 0.31120  0.98690  0.95510  Biso   1.000  H
  H35      1.0000 0.81120  0.51310  0.04490  Biso   1.000  H
  H36      1.0000 0.68880  0.48690  0.54490  Biso   1.000  H
  C45      1.0000 0.14200  0.21800  0.52770  Biso   1.000  C
  C46      1.0000 0.35800  0.78200  0.02770  Biso   1.000  C
  C47      1.0000 0.85800  0.71800  0.97230  Biso   1.000  C
  C48      1.0000 0.64200  0.28200  0.47230  Biso   1.000  C
  H37      1.0000 0.09020  0.20160  0.56880  Biso   1.000  H
  H38      1.0000 0.40980  0.79840  0.06880  Biso   1.000  H
  H39      1.0000 0.90980  0.70160  0.93120  Biso   1.000  H
  H40      1.0000 0.59020  0.29840  0.43120  Biso   1.000  H
  H41      1.0000 0.19100  0.26470  0.54740  Biso   1.000  H
  H42      1.0000 0.30900  0.73530  0.04740  Biso   1.000  H
  H43      1.0000 0.80900  0.76470  0.95260  Biso   1.000  H
  H44      1.0000 0.69100  0.23530  0.45260  Biso   1.000  H
  C49      1.0000 0.90080  0.28220  0.34430  Biso   1.000  C
  C50      1.0000 0.59920  0.71780  0.84430  Biso   1.000  C
  C51      1.0000 0.09920  0.78220  0.15570  Biso   1.000  C
  C52      1.0000 0.40080  0.21780  0.65570  Biso   1.000  C
  H45      1.0000 0.92070  0.32660  0.37940  Biso   1.000  H
  H46      1.0000 0.57930  0.67340  0.87940  Biso   1.000  H
  H47      1.0000 0.07930  0.82660  0.12060  Biso   1.000  H
  H48      1.0000 0.42070  0.17340  0.62060  Biso   1.000  H
  C53      1.0000 0.83310  0.30620  0.27900  Biso   1.000  C
  C54      1.0000 0.66690  0.69380  0.77900  Biso   1.000  C
  C55      1.0000 0.16690  0.80620  0.22100  Biso   1.000  C
  C56      1.0000 0.33310  0.19380  0.72100  Biso   1.000  C
  C57      1.0000 0.79180  0.85290  0.23150  Biso   1.000  C
  C58      1.0000 0.70820  0.14710  0.73150  Biso   1.000  C
  C59      1.0000 0.20820  0.35290  0.26850  Biso   1.000  C
  C60      1.0000 0.29180  0.64710  0.76850  Biso   1.000  C
  C61      1.0000 0.00660  0.17700  0.42710  Biso   1.000  C
  C62      1.0000 0.49340  0.82300  0.92710  Biso   1.000  C
  C63      1.0000 0.99340  0.67700  0.07290  Biso   1.000  C
  C64      1.0000 0.50660  0.32300  0.57290  Biso   1.000  C
  H49      1.0000 0.95500  0.15770  0.46820  Biso   1.000  H
  H50      1.0000 0.54500  0.84230  0.96820  Biso   1.000  H
  H51      1.0000 0.04500  0.65770  0.03180  Biso   1.000  H
  H52      1.0000 0.45500  0.34230  0.53180  Biso   1.000  H
  C65      1.0000 0.68400  0.24510  0.02420  Biso   1.000  C
  C66      1.0000 0.81600  0.75490  0.52420  Biso   1.000  C
  C67      1.0000 0.31600  0.74510  0.47580  Biso   1.000  C
  C68      1.0000 0.18400  0.25490  0.97580  Biso   1.000  C
  H53      1.0000 0.62900  0.29280  0.02800  Biso   1.000  H
  H54      1.0000 0.87100  0.70720  0.52800  Biso   1.000  H
  H55      1.0000 0.37100  0.79280  0.47200  Biso   1.000  H
  H56      1.0000 0.12900  0.20720  0.97200  Biso   1.000  H
  H57      1.0000 0.65100  0.19720  0.99390  Biso   1.000  H
  H58      1.0000 0.84900  0.80280  0.49390  Biso   1.000  H
  H59      1.0000 0.34900  0.69720  0.50610  Biso   1.000  H
  H60      1.0000 0.15100  0.30280  0.00610  Biso   1.000  H
  C69      1.0000 0.61600  0.84100  0.16020  Biso   1.000  C
  C70      1.0000 0.88400  0.15900  0.66020  Biso   1.000  C
  C71      1.0000 0.38400  0.34100  0.33980  Biso   1.000  C
  C72      1.0000 0.11600  0.65900  0.83980  Biso   1.000  C
  H61      1.0000 0.63600  0.78030  0.14610  Biso   1.000  H
  H62      1.0000 0.86400  0.21970  0.64610  Biso   1.000  H
  H63      1.0000 0.36400  0.28030  0.35390  Biso   1.000  H
  H64      1.0000 0.13600  0.71970  0.85390  Biso   1.000  H
  H65      1.0000 0.57890  0.86800  0.11610  Biso   1.000  H
  H66      1.0000 0.92110  0.13200  0.61610  Biso   1.000  H
  H67      1.0000 0.42110  0.36800  0.38390  Biso   1.000  H
  H68      1.0000 0.07890  0.63200  0.88390  Biso   1.000  H
  C73      1.0000 0.87310  0.73570  0.30820  Biso   1.000  C
  C74      1.0000 0.62690  0.26430  0.80820  Biso   1.000  C
  C75      1.0000 0.12690  0.23570  0.19180  Biso   1.000  C
  C76      1.0000 0.37310  0.76430  0.69180  Biso   1.000  C
  H69      1.0000 0.87680  0.67590  0.32220  Biso   1.000  H
  H70      1.0000 0.62320  0.32410  0.82220  Biso   1.000  H
  H71      1.0000 0.12320  0.17590  0.17780  Biso   1.000  H
  H72      1.0000 0.37680  0.82410  0.67780  Biso   1.000  H
  C77      1.0000 0.79800  0.76250  0.25190  Biso   1.000  C
  C78      1.0000 0.70200  0.23750  0.75190  Biso   1.000  C
  C79      1.0000 0.20200  0.26250  0.24810  Biso   1.000  C
  C80      1.0000 0.29800  0.73750  0.74810  Biso   1.000  C
  H73      1.0000 0.75150  0.72100  0.22760  Biso   1.000  H
  H74      1.0000 0.74850  0.27900  0.72760  Biso   1.000  H
  H75      1.0000 0.24850  0.22100  0.27240  Biso   1.000  H
  H76      1.0000 0.25150  0.77900  0.77240  Biso   1.000  H
  C81      1.0000 0.07680  0.25280  0.45940  Biso   1.000  C
  C82      1.0000 0.42320  0.74720  0.95940  Biso   1.000  C
  C83      1.0000 0.92320  0.75280  0.04060  Biso   1.000  C
  C84      1.0000 0.57680  0.24720  0.54060  Biso   1.000  C
  H77      1.0000 0.12810  0.27480  0.42000  Biso   1.000  H
  H78      1.0000 0.37190  0.72520  0.92000  Biso   1.000  H
  H79      1.0000 0.87190  0.77480  0.08000  Biso   1.000  H
  H80      1.0000 0.62810  0.22520  0.58000  Biso   1.000  H
  H81      1.0000 0.02830  0.30140  0.47550  Biso   1.000  H
  H82      1.0000 0.47170  0.69860  0.97550  Biso   1.000  H
  H83      1.0000 0.97170  0.80140  0.02450  Biso   1.000  H
  H84      1.0000 0.52830  0.19860  0.52450  Biso   1.000  H
  O49      1.0000 0.42750  0.08730  0.15640  Biso   1.000  O
  O50      1.0000 0.07250  0.91270  0.65640  Biso   1.000  O
  O51      1.0000 0.57250  0.58730  0.34360  Biso   1.000  O
  O52      1.0000 0.92750  0.41270  0.84360  Biso   1.000  O
  C85      1.0000 0.70890  0.36770  0.15090  Biso   1.000  C
  C86      1.0000 0.79110  0.63230  0.65090  Biso   1.000  C
  C87      1.0000 0.29110  0.86770  0.34910  Biso   1.000  C
  C88      1.0000 0.20890  0.13230  0.84910  Biso   1.000  C
  H85      1.0000 0.66770  0.38830  0.10850  Biso   1.000  H
  H86      1.0000 0.83230  0.61170  0.60850  Biso   1.000  H
  H87      1.0000 0.33230  0.88830  0.39150  Biso   1.000  H
  H88      1.0000 0.16770  0.11170  0.89150  Biso   1.000  H
  C89      1.0000 0.53600  0.83870  0.22780  Biso   1.000  C
  C90      1.0000 0.96400  0.16130  0.72780  Biso   1.000  C
  C91      1.0000 0.46400  0.33870  0.27220  Biso   1.000  C
  C92      1.0000 0.03600  0.66130  0.77220  Biso   1.000  C
  H89      1.0000 0.57060  0.80730  0.27020  Biso   1.000  H
  H90      1.0000 0.92940  0.19270  0.77020  Biso   1.000  H
  H91      1.0000 0.42940  0.30730  0.22980  Biso   1.000  H
  H92      1.0000 0.07060  0.69270  0.72980  Biso   1.000  H
  H93      1.0000 0.46830  0.80880  0.21270  Biso   1.000  H
  H94      1.0000 0.03170  0.19120  0.71270  Biso   1.000  H
  H95      1.0000 0.53170  0.30880  0.28730  Biso   1.000  H
  H96      1.0000 0.96830  0.69120  0.78730  Biso   1.000  H
  H97      1.0000 0.51910  0.89860  0.24350  Biso   1.000  H
  H98      1.0000 0.98090  0.10140  0.74350  Biso   1.000  H
  H99      1.0000 0.48090  0.39860  0.25650  Biso   1.000  H
  H100     1.0000 0.01910  0.60140  0.75650  Biso   1.000  H
  C93      1.0000 0.79500  0.28110  0.98170  Biso   1.000  C
  C94      1.0000 0.70500  0.71890  0.48170  Biso   1.000  C
  C95      1.0000 0.20500  0.78110  0.51830  Biso   1.000  C
  C96      1.0000 0.29500  0.21890  0.01830  Biso   1.000  C
  H101     1.0000 0.82340  0.33230  0.00900  Biso   1.000  H
  H102     1.0000 0.67660  0.66770  0.50900  Biso   1.000  H
  H103     1.0000 0.17660  0.83230  0.49100  Biso   1.000  H
  H104     1.0000 0.32340  0.16770  0.99100  Biso   1.000  H
  H105     1.0000 0.77750  0.29740  0.92930  Biso   1.000  H
  H106     1.0000 0.72250  0.70260  0.42930  Biso   1.000  H
  H107     1.0000 0.22250  0.79740  0.57070  Biso   1.000  H
  H108     1.0000 0.27750  0.20260  0.07070  Biso   1.000  H
  H109     1.0000 0.85160  0.23510  0.98160  Biso   1.000  H
  H110     1.0000 0.64840  0.76490  0.48160  Biso   1.000  H
  H111     1.0000 0.14840  0.73510  0.51840  Biso   1.000  H
  H112     1.0000 0.35160  0.26490  0.01840  Biso   1.000  H
  O53      1.0000 0.40100  0.11430  0.32900  Biso   1.000  O
  O54      1.0000 0.09900  0.88570  0.82900  Biso   1.000  O
  O55      1.0000 0.59900  0.61430  0.17100  Biso   1.000  O
  O56      1.0000 0.90100  0.38570  0.67100  Biso   1.000  O
  H113     1.0000 0.40840  0.09190  0.28580  Biso   1.000  H
  H114     1.0000 0.09160  0.90810  0.78580  Biso   1.000  H
  H115     1.0000 0.59160  0.59190  0.21420  Biso   1.000  H
  H116     1.0000 0.90840  0.40810  0.71420  Biso   1.000  H
  C97      1.0000 0.48400  0.08000  0.37950  Biso   1.000  C
  C98      1.0000 0.01600  0.92000  0.87950  Biso   1.000  C
  C99      1.0000 0.51600  0.58000  0.12050  Biso   1.000  C
  C100     1.0000 0.98400  0.42000  0.62050  Biso   1.000  C
  H117     1.0000 0.53400  0.12660  0.39500  Biso   1.000  H
  H118     1.0000 0.96600  0.87340  0.89500  Biso   1.000  H
  H119     1.0000 0.46600  0.62660  0.10500  Biso   1.000  H
  H120     1.0000 0.03400  0.37340  0.60500  Biso   1.000  H
  H121     1.0000 0.52560  0.03390  0.35330  Biso   1.000  H
  H122     1.0000 0.97440  0.96610  0.85330  Biso   1.000  H
  H123     1.0000 0.47440  0.53390  0.14670  Biso   1.000  H
  H124     1.0000 0.02560  0.46610  0.64670  Biso   1.000  H
  H125     1.0000 0.44800  0.05490  0.42460  Biso   1.000  H
  H126     1.0000 0.05200  0.94510  0.92460  Biso   1.000  H
  H127     1.0000 0.55200  0.55490  0.07540  Biso   1.000  H
  H128     1.0000 0.94800  0.44510  0.57540  Biso   1.000  H
