data_image0
_cell_length_a       11.8
_cell_length_b       14.935
_cell_length_c       17.186
_cell_angle_alpha    90
_cell_angle_beta     90
_cell_angle_gamma    90

_symmetry_space_group_name_H-M    "P 1"
_symmetry_int_tables_number       1

loop_
  _symmetry_equiv_pos_as_xyz
  'x, y, z'

loop_
  _atom_site_label
  _atom_site_occupancy
  _atom_site_fract_x
  _atom_site_fract_y
  _atom_site_fract_z
  _atom_site_thermal_displace_type
  _atom_site_B_iso_or_equiv
  _atom_site_type_symbol
  C1       1.0000 0.53840  0.66020  0.22840  Biso   1.000  C
  C2       1.0000 0.96160  0.33980  0.72840  Biso   1.000  C
  C3       1.0000 0.46160  0.16020  0.27160  Biso   1.000  C
  C4       1.0000 0.03840  0.83980  0.77160  Biso   1.000  C
  H1       1.0000 0.53860  0.60220  0.25250  Biso   1.000  H
  H2       1.0000 0.96140  0.39780  0.75250  Biso   1.000  H
  H3       1.0000 0.46140  0.10220  0.24750  Biso   1.000  H
  H4       1.0000 0.03860  0.89780  0.74750  Biso   1.000  H
  H5       1.0000 0.46300  0.67450  0.21150  Biso   1.000  H
  H6       1.0000 0.03700  0.32550  0.71150  Biso   1.000  H
  H7       1.0000 0.53700  0.17450  0.28850  Biso   1.000  H
  H8       1.0000 0.96300  0.82550  0.78850  Biso   1.000  H
  H9       1.0000 0.56370  0.70430  0.26510  Biso   1.000  H
  H10      1.0000 0.93630  0.29570  0.76510  Biso   1.000  H
  H11      1.0000 0.43630  0.20430  0.23490  Biso   1.000  H
  H12      1.0000 0.06370  0.79570  0.73490  Biso   1.000  H
  C5       1.0000 0.61550  0.65940  0.16050  Biso   1.000  C
  C6       1.0000 0.88450  0.34060  0.66050  Biso   1.000  C
  C7       1.0000 0.38450  0.15940  0.33950  Biso   1.000  C
  C8       1.0000 0.11550  0.84060  0.83950  Biso   1.000  C
  H13      1.0000 0.57750  0.63130  0.11680  Biso   1.000  H
  H14      1.0000 0.92250  0.36870  0.61680  Biso   1.000  H
  H15      1.0000 0.42250  0.13130  0.38320  Biso   1.000  H
  H16      1.0000 0.07750  0.86870  0.88320  Biso   1.000  H
  H17      1.0000 0.63330  0.72060  0.14590  Biso   1.000  H
  H18      1.0000 0.86670  0.27940  0.64590  Biso   1.000  H
  H19      1.0000 0.36670  0.22060  0.35410  Biso   1.000  H
  H20      1.0000 0.13330  0.77940  0.85410  Biso   1.000  H
  C9       1.0000 0.79130  0.64810  0.23060  Biso   1.000  C
  C10      1.0000 0.70870  0.35190  0.73060  Biso   1.000  C
  C11      1.0000 0.20870  0.14810  0.26940  Biso   1.000  C
  C12      1.0000 0.29130  0.85190  0.76940  Biso   1.000  C
  C13      1.0000 0.79640  0.73490  0.25090  Biso   1.000  C
  C14      1.0000 0.70360  0.26510  0.75090  Biso   1.000  C
  C15      1.0000 0.20360  0.23490  0.24910  Biso   1.000  C
  C16      1.0000 0.29640  0.76510  0.74910  Biso   1.000  C
  H21      1.0000 0.74840  0.77600  0.22710  Biso   1.000  H
  H22      1.0000 0.75160  0.22400  0.72710  Biso   1.000  H
  H23      1.0000 0.25160  0.27600  0.27290  Biso   1.000  H
  H24      1.0000 0.24840  0.72400  0.77290  Biso   1.000  H
  C17      1.0000 0.87290  0.76370  0.30710  Biso   1.000  C
  C18      1.0000 0.62710  0.23630  0.80710  Biso   1.000  C
  C19      1.0000 0.12710  0.26370  0.19290  Biso   1.000  C
  C20      1.0000 0.37290  0.73630  0.69290  Biso   1.000  C
  H25      1.0000 0.87800  0.82430  0.31940  Biso   1.000  H
  H26      1.0000 0.62200  0.17570  0.81940  Biso   1.000  H
  H27      1.0000 0.12200  0.32430  0.18060  Biso   1.000  H
  H28      1.0000 0.37800  0.67570  0.68060  Biso   1.000  H
  C21      1.0000 0.93980  0.70400  0.34370  Biso   1.000  C
  C22      1.0000 0.56020  0.29600  0.84370  Biso   1.000  C
  C23      1.0000 0.06020  0.20400  0.15630  Biso   1.000  C
  C24      1.0000 0.43980  0.79600  0.65630  Biso   1.000  C
  H29      1.0000 0.98950  0.72410  0.38190  Biso   1.000  H
  H30      1.0000 0.51050  0.27590  0.88190  Biso   1.000  H
  H31      1.0000 0.01050  0.22410  0.11810  Biso   1.000  H
  H32      1.0000 0.48950  0.77590  0.61810  Biso   1.000  H
  C25      1.0000 0.93680  0.61080  0.32590  Biso   1.000  C
  C26      1.0000 0.56320  0.38920  0.82590  Biso   1.000  C
  C27      1.0000 0.06320  0.11080  0.17410  Biso   1.000  C
  C28      1.0000 0.43680  0.88920  0.67410  Biso   1.000  C
  C29      1.0000 0.86160  0.58320  0.26590  Biso   1.000  C
  C30      1.0000 0.63840  0.41680  0.76590  Biso   1.000  C
  C31      1.0000 0.13840  0.08320  0.23410  Biso   1.000  C
  C32      1.0000 0.36160  0.91680  0.73410  Biso   1.000  C
  C33      1.0000 0.00730  0.55060  0.36760  Biso   1.000  C
  C34      1.0000 0.49270  0.44940  0.86760  Biso   1.000  C
  C35      1.0000 0.99270  0.05060  0.13240  Biso   1.000  C
  C36      1.0000 0.50730  0.94940  0.63240  Biso   1.000  C
  H33      1.0000 0.06020  0.57450  0.40190  Biso   1.000  H
  H34      1.0000 0.43980  0.42550  0.90190  Biso   1.000  H
  H35      1.0000 0.93980  0.07450  0.09810  Biso   1.000  H
  H36      1.0000 0.56020  0.92550  0.59810  Biso   1.000  H
  C37      1.0000 0.07790  0.40300  0.40260  Biso   1.000  C
  C38      1.0000 0.42210  0.59700  0.90260  Biso   1.000  C
  C39      1.0000 0.92210  0.90300  0.09740  Biso   1.000  C
  C40      1.0000 0.57790  0.09700  0.59740  Biso   1.000  C
  H37      1.0000 0.13340  0.38140  0.36450  Biso   1.000  H
  H38      1.0000 0.36660  0.61860  0.86450  Biso   1.000  H
  H39      1.0000 0.86660  0.88140  0.13550  Biso   1.000  H
  H40      1.0000 0.63340  0.11860  0.63550  Biso   1.000  H
  C41      1.0000 0.14430  0.43800  0.47110  Biso   1.000  C
  C42      1.0000 0.35570  0.56200  0.97110  Biso   1.000  C
  C43      1.0000 0.85570  0.93800  0.02890  Biso   1.000  C
  C44      1.0000 0.64430  0.06200  0.52890  Biso   1.000  C
  H41      1.0000 0.19270  0.48690  0.45460  Biso   1.000  H
  H42      1.0000 0.30730  0.51310  0.95460  Biso   1.000  H
  H43      1.0000 0.80730  0.98690  0.04540  Biso   1.000  H
  H44      1.0000 0.69270  0.01310  0.54540  Biso   1.000  H
  H45      1.0000 0.09270  0.46050  0.51040  Biso   1.000  H
  H46      1.0000 0.40730  0.53950  0.01040  Biso   1.000  H
  H47      1.0000 0.90730  0.96050  0.98960  Biso   1.000  H
  H48      1.0000 0.59270  0.03950  0.48960  Biso   1.000  H
  C45      1.0000 0.21470  0.36440  0.50420  Biso   1.000  C
  C46      1.0000 0.28530  0.63560  0.00420  Biso   1.000  C
  C47      1.0000 0.78530  0.86440  0.99580  Biso   1.000  C
  C48      1.0000 0.71470  0.13560  0.49580  Biso   1.000  C
  H49      1.0000 0.27120  0.34700  0.46610  Biso   1.000  H
  H50      1.0000 0.22880  0.65300  0.96610  Biso   1.000  H
  H51      1.0000 0.72880  0.84700  0.03390  Biso   1.000  H
  H52      1.0000 0.77120  0.15300  0.53390  Biso   1.000  H
  H53      1.0000 0.25440  0.38670  0.54970  Biso   1.000  H
  H54      1.0000 0.24560  0.61330  0.04970  Biso   1.000  H
  H55      1.0000 0.74560  0.88670  0.95030  Biso   1.000  H
  H56      1.0000 0.75440  0.11330  0.45030  Biso   1.000  H
  C49      1.0000 0.14780  0.28370  0.52680  Biso   1.000  C
  C50      1.0000 0.35220  0.71630  0.02680  Biso   1.000  C
  C51      1.0000 0.85220  0.78370  0.97320  Biso   1.000  C
  C52      1.0000 0.64780  0.21630  0.47320  Biso   1.000  C
  H57      1.0000 0.09830  0.29890  0.56990  Biso   1.000  H
  H58      1.0000 0.40170  0.70110  0.06990  Biso   1.000  H
  H59      1.0000 0.90170  0.79890  0.93010  Biso   1.000  H
  H60      1.0000 0.59830  0.20110  0.43010  Biso   1.000  H
  H61      1.0000 0.19910  0.23710  0.54430  Biso   1.000  H
  H62      1.0000 0.30090  0.76290  0.04430  Biso   1.000  H
  H63      1.0000 0.80090  0.73710  0.95570  Biso   1.000  H
  H64      1.0000 0.69910  0.26290  0.45570  Biso   1.000  H
  C53      1.0000 0.07690  0.24840  0.45990  Biso   1.000  C
  C54      1.0000 0.42310  0.75160  0.95990  Biso   1.000  C
  C55      1.0000 0.92310  0.74840  0.04010  Biso   1.000  C
  C56      1.0000 0.57690  0.25160  0.54010  Biso   1.000  C
  H65      1.0000 0.12630  0.22410  0.42000  Biso   1.000  H
  H66      1.0000 0.37370  0.77590  0.92000  Biso   1.000  H
  H67      1.0000 0.87370  0.72410  0.08000  Biso   1.000  H
  H68      1.0000 0.62630  0.27590  0.58000  Biso   1.000  H
  H69      1.0000 0.02820  0.20050  0.47830  Biso   1.000  H
  H70      1.0000 0.47180  0.79950  0.97830  Biso   1.000  H
  H71      1.0000 0.97180  0.70050  0.02170  Biso   1.000  H
  H72      1.0000 0.52820  0.29950  0.52170  Biso   1.000  H
  C57      1.0000 0.00550  0.32230  0.42590  Biso   1.000  C
  C58      1.0000 0.49450  0.67770  0.92590  Biso   1.000  C
  C59      1.0000 0.99450  0.82230  0.07410  Biso   1.000  C
  C60      1.0000 0.50550  0.17770  0.57410  Biso   1.000  C
  H73      1.0000 0.95320  0.34230  0.46670  Biso   1.000  H
  H74      1.0000 0.54680  0.65770  0.96670  Biso   1.000  H
  H75      1.0000 0.04680  0.84230  0.03330  Biso   1.000  H
  H76      1.0000 0.45320  0.15770  0.53330  Biso   1.000  H
  C61      1.0000 0.90140  0.22010  0.34220  Biso   1.000  C
  C62      1.0000 0.59860  0.77990  0.84220  Biso   1.000  C
  C63      1.0000 0.09860  0.72010  0.15780  Biso   1.000  C
  C64      1.0000 0.40140  0.27990  0.65780  Biso   1.000  C
  H77      1.0000 0.92290  0.17500  0.37660  Biso   1.000  H
  H78      1.0000 0.57710  0.82500  0.87660  Biso   1.000  H
  H79      1.0000 0.07710  0.67500  0.12340  Biso   1.000  H
  H80      1.0000 0.42290  0.32500  0.62340  Biso   1.000  H
  C65      1.0000 0.83140  0.19340  0.27720  Biso   1.000  C
  C66      1.0000 0.66860  0.80660  0.77720  Biso   1.000  C
  C67      1.0000 0.16860  0.69340  0.22280  Biso   1.000  C
  C68      1.0000 0.33140  0.30660  0.72280  Biso   1.000  C
  C69      1.0000 0.80200  0.10490  0.27040  Biso   1.000  C
  C70      1.0000 0.69800  0.89510  0.77040  Biso   1.000  C
  C71      1.0000 0.19800  0.60490  0.22960  Biso   1.000  C
  C72      1.0000 0.30200  0.39510  0.72960  Biso   1.000  C
  H81      1.0000 0.82450  0.06510  0.30900  Biso   1.000  H
  H82      1.0000 0.67550  0.93490  0.80900  Biso   1.000  H
  H83      1.0000 0.17550  0.56510  0.19100  Biso   1.000  H
  H84      1.0000 0.32450  0.43490  0.69100  Biso   1.000  H
  C73      1.0000 0.74070  0.07330  0.20900  Biso   1.000  C
  C74      1.0000 0.75930  0.92670  0.70900  Biso   1.000  C
  C75      1.0000 0.25930  0.57330  0.29100  Biso   1.000  C
  C76      1.0000 0.24070  0.42670  0.79100  Biso   1.000  C
  H85      1.0000 0.72040  0.01320  0.20620  Biso   1.000  H
  H86      1.0000 0.77960  0.98680  0.70620  Biso   1.000  H
  H87      1.0000 0.27960  0.51320  0.29380  Biso   1.000  H
  H88      1.0000 0.22040  0.48680  0.79380  Biso   1.000  H
  C77      1.0000 0.70940  0.13290  0.15080  Biso   1.000  C
  C78      1.0000 0.79060  0.86710  0.65080  Biso   1.000  C
  C79      1.0000 0.29060  0.63290  0.34920  Biso   1.000  C
  C80      1.0000 0.20940  0.36710  0.84920  Biso   1.000  C
  H89      1.0000 0.66860  0.11260  0.10800  Biso   1.000  H
  H90      1.0000 0.83140  0.88740  0.60800  Biso   1.000  H
  H91      1.0000 0.33140  0.61260  0.39200  Biso   1.000  H
  H92      1.0000 0.16860  0.38740  0.89200  Biso   1.000  H
  C81      1.0000 0.73790  0.21910  0.15620  Biso   1.000  C
  C82      1.0000 0.76210  0.78090  0.65620  Biso   1.000  C
  C83      1.0000 0.26210  0.71910  0.34380  Biso   1.000  C
  C84      1.0000 0.23790  0.28090  0.84380  Biso   1.000  C
  C85      1.0000 0.79530  0.25350  0.22210  Biso   1.000  C
  C86      1.0000 0.70470  0.74650  0.72210  Biso   1.000  C
  C87      1.0000 0.20470  0.75350  0.27790  Biso   1.000  C
  C88      1.0000 0.29530  0.24650  0.77790  Biso   1.000  C
  C89      1.0000 0.68590  0.25370  0.02260  Biso   1.000  C
  C90      1.0000 0.81410  0.74630  0.52260  Biso   1.000  C
  C91      1.0000 0.31410  0.75370  0.47740  Biso   1.000  C
  C92      1.0000 0.18590  0.24630  0.97740  Biso   1.000  C
  H93      1.0000 0.65530  0.30310  0.99260  Biso   1.000  H
  H94      1.0000 0.84470  0.69690  0.49260  Biso   1.000  H
  H95      1.0000 0.34470  0.80310  0.50740  Biso   1.000  H
  H96      1.0000 0.15530  0.19690  0.00740  Biso   1.000  H
  H97      1.0000 0.62860  0.20720  0.02530  Biso   1.000  H
  H98      1.0000 0.87140  0.79280  0.52530  Biso   1.000  H
  H99      1.0000 0.37140  0.70720  0.47470  Biso   1.000  H
  H100     1.0000 0.12860  0.29280  0.97470  Biso   1.000  H
  C93      1.0000 0.79110  0.21730  0.98250  Biso   1.000  C
  C94      1.0000 0.70890  0.78270  0.48250  Biso   1.000  C
  C95      1.0000 0.20890  0.71730  0.51750  Biso   1.000  C
  C96      1.0000 0.29110  0.28270  0.01750  Biso   1.000  C
  H101     1.0000 0.84860  0.26270  0.98140  Biso   1.000  H
  H102     1.0000 0.65140  0.73730  0.48140  Biso   1.000  H
  H103     1.0000 0.15140  0.76270  0.51860  Biso   1.000  H
  H104     1.0000 0.34860  0.23730  0.01860  Biso   1.000  H
  H105     1.0000 0.77250  0.20010  0.93020  Biso   1.000  H
  H106     1.0000 0.72750  0.79990  0.43020  Biso   1.000  H
  H107     1.0000 0.22750  0.70010  0.56980  Biso   1.000  H
  H108     1.0000 0.27250  0.29990  0.06980  Biso   1.000  H
  H109     1.0000 0.81860  0.16610  0.01050  Biso   1.000  H
  H110     1.0000 0.68140  0.83390  0.51050  Biso   1.000  H
  H111     1.0000 0.18140  0.66610  0.48950  Biso   1.000  H
  H112     1.0000 0.31860  0.33390  0.98950  Biso   1.000  H
  Cu1      1.0000 0.89759  0.40132  0.29842  Biso   1.000  Cu
  Cu2      1.0000 0.60241  0.59868  0.79842  Biso   1.000  Cu
  Cu3      1.0000 0.10241  0.90132  0.20158  Biso   1.000  Cu
  Cu4      1.0000 0.39759  0.09868  0.70158  Biso   1.000  Cu
  Gd1      1.0000 0.76513  0.45202  0.12680  Biso   1.000  Gd
  Gd2      1.0000 0.73487  0.54798  0.62680  Biso   1.000  Gd
  Gd3      1.0000 0.23487  0.95202  0.37320  Biso   1.000  Gd
  Gd4      1.0000 0.26513  0.04798  0.87320  Biso   1.000  Gd
  N1       1.0000 0.00250  0.46640  0.36090  Biso   1.000  N
  N2       1.0000 0.49750  0.53360  0.86090  Biso   1.000  N
  N3       1.0000 0.99750  0.96640  0.13910  Biso   1.000  N
  N4       1.0000 0.50250  0.03360  0.63910  Biso   1.000  N
  N5       1.0000 0.93660  0.29830  0.35740  Biso   1.000  N
  N6       1.0000 0.56340  0.70170  0.85740  Biso   1.000  N
  N7       1.0000 0.06340  0.79830  0.14260  Biso   1.000  N
  N8       1.0000 0.43660  0.20170  0.64260  Biso   1.000  N
  N9       1.0000 0.75000  0.51600  0.96680  Biso   1.000  N
  N10      1.0000 0.75000  0.48400  0.46680  Biso   1.000  N
  N11      1.0000 0.25000  0.01600  0.53320  Biso   1.000  N
  N12      1.0000 0.25000  0.98400  0.03320  Biso   1.000  N
  N13      1.0000 0.99860  0.46290  0.07930  Biso   1.000  N
  N14      1.0000 0.50140  0.53710  0.57930  Biso   1.000  N
  N15      1.0000 0.00140  0.96290  0.42070  Biso   1.000  N
  N16      1.0000 0.49860  0.03710  0.92070  Biso   1.000  N
  N17      1.0000 0.52370  0.42700  0.14820  Biso   1.000  N
  N18      1.0000 0.97630  0.57300  0.64820  Biso   1.000  N
  N19      1.0000 0.47630  0.92700  0.35180  Biso   1.000  N
  N20      1.0000 0.02370  0.07300  0.85180  Biso   1.000  N
  O1       1.0000 0.72000  0.61160  0.17690  Biso   1.000  O
  O2       1.0000 0.78000  0.38840  0.67690  Biso   1.000  O
  O3       1.0000 0.28000  0.11160  0.32310  Biso   1.000  O
  O4       1.0000 0.22000  0.88840  0.82310  Biso   1.000  O
  O5       1.0000 0.71310  0.28440  0.10090  Biso   1.000  O
  O6       1.0000 0.78690  0.71560  0.60090  Biso   1.000  O
  O7       1.0000 0.28690  0.78440  0.39910  Biso   1.000  O
  O8       1.0000 0.21310  0.21560  0.89910  Biso   1.000  O
  O9       1.0000 0.85420  0.50210  0.23870  Biso   1.000  O
  O10      1.0000 0.64580  0.49790  0.73870  Biso   1.000  O
  O11      1.0000 0.14580  0.00210  0.26130  Biso   1.000  O
  O12      1.0000 0.35420  0.99790  0.76130  Biso   1.000  O
  O13      1.0000 0.81260  0.34140  0.22150  Biso   1.000  O
  O14      1.0000 0.68740  0.65860  0.72150  Biso   1.000  O
  O15      1.0000 0.18740  0.84140  0.27850  Biso   1.000  O
  O16      1.0000 0.31260  0.15860  0.77850  Biso   1.000  O
  O17      1.0000 0.56640  0.44390  0.08210  Biso   1.000  O
  O18      1.0000 0.93360  0.55610  0.58210  Biso   1.000  O
  O19      1.0000 0.43360  0.94390  0.41790  Biso   1.000  O
  O20      1.0000 0.06640  0.05610  0.91790  Biso   1.000  O
  O21      1.0000 0.59300  0.42650  0.20370  Biso   1.000  O
  O22      1.0000 0.90700  0.57350  0.70370  Biso   1.000  O
  O23      1.0000 0.40700  0.92650  0.29630  Biso   1.000  O
  O24      1.0000 0.09300  0.07350  0.79630  Biso   1.000  O
  O25      1.0000 0.42640  0.41350  0.15670  Biso   1.000  O
  O26      1.0000 0.07360  0.58650  0.65670  Biso   1.000  O
  O27      1.0000 0.57360  0.91350  0.34330  Biso   1.000  O
  O28      1.0000 0.92640  0.08650  0.84330  Biso   1.000  O
  O29      1.0000 0.72330  0.56660  0.02110  Biso   1.000  O
  O30      1.0000 0.77670  0.43340  0.52110  Biso   1.000  O
  O31      1.0000 0.27670  0.06660  0.47890  Biso   1.000  O
  O32      1.0000 0.22330  0.93340  0.97890  Biso   1.000  O
  O33      1.0000 0.77770  0.43720  0.98410  Biso   1.000  O
  O34      1.0000 0.72230  0.56280  0.48410  Biso   1.000  O
  O35      1.0000 0.22230  0.93720  0.51590  Biso   1.000  O
  O36      1.0000 0.27770  0.06280  0.01590  Biso   1.000  O
  O37      1.0000 0.75150  0.54140  0.89960  Biso   1.000  O
  O38      1.0000 0.74850  0.45860  0.39960  Biso   1.000  O
  O39      1.0000 0.24850  0.04140  0.60040  Biso   1.000  O
  O40      1.0000 0.25150  0.95860  0.10040  Biso   1.000  O
  O41      1.0000 0.94010  0.53210  0.08440  Biso   1.000  O
  O42      1.0000 0.55990  0.46790  0.58440  Biso   1.000  O
  O43      1.0000 0.05990  0.03210  0.41560  Biso   1.000  O
  O44      1.0000 0.44010  0.96790  0.91560  Biso   1.000  O
  O45      1.0000 0.95150  0.39060  0.09390  Biso   1.000  O
  O46      1.0000 0.54850  0.60940  0.59390  Biso   1.000  O
  O47      1.0000 0.04850  0.89060  0.40610  Biso   1.000  O
  O48      1.0000 0.45150  0.10940  0.90610  Biso   1.000  O
  O49      1.0000 0.09660  0.46520  0.05860  Biso   1.000  O
  O50      1.0000 0.40340  0.53480  0.55860  Biso   1.000  O
  O51      1.0000 0.90340  0.96520  0.44140  Biso   1.000  O
  O52      1.0000 0.59660  0.03480  0.94140  Biso   1.000  O
  C97      1.0000 0.48140  0.41970  0.37870  Biso   1.000  C
  C98      1.0000 0.01860  0.58030  0.87870  Biso   1.000  C
  C99      1.0000 0.51860  0.91970  0.12130  Biso   1.000  C
  C100     1.0000 0.98140  0.08030  0.62130  Biso   1.000  C
  H113     1.0000 0.49620  0.48100  0.36540  Biso   1.000  H
  H114     1.0000 0.00380  0.51900  0.86540  Biso   1.000  H
  H115     1.0000 0.50380  0.98100  0.13460  Biso   1.000  H
  H116     1.0000 0.99620  0.01900  0.63460  Biso   1.000  H
  H117     1.0000 0.55010  0.38560  0.37440  Biso   1.000  H
  H118     1.0000 0.94990  0.61440  0.87440  Biso   1.000  H
  H119     1.0000 0.44990  0.88560  0.12560  Biso   1.000  H
  H120     1.0000 0.05010  0.11440  0.62560  Biso   1.000  H
  H121     1.0000 0.45350  0.41640  0.43110  Biso   1.000  H
  H122     1.0000 0.04650  0.58360  0.93110  Biso   1.000  H
  H123     1.0000 0.54650  0.91640  0.06890  Biso   1.000  H
  H124     1.0000 0.95350  0.08360  0.56890  Biso   1.000  H
  O53      1.0000 0.40080  0.38490  0.32820  Biso   1.000  O
  O54      1.0000 0.09920  0.61510  0.82820  Biso   1.000  O
  O55      1.0000 0.59920  0.88490  0.17180  Biso   1.000  O
  O56      1.0000 0.90080  0.11510  0.67180  Biso   1.000  O
  H125     1.0000 0.43200  0.36880  0.28790  Biso   1.000  H
  H126     1.0000 0.06800  0.63120  0.78790  Biso   1.000  H
  H127     1.0000 0.56800  0.86880  0.21210  Biso   1.000  H
  H128     1.0000 0.93200  0.13120  0.71210  Biso   1.000  H
