data_image0
_cell_length_a       6.859
_cell_length_b       20.085
_cell_length_c       11.86
_cell_angle_alpha    90
_cell_angle_beta     93.56
_cell_angle_gamma    90

_symmetry_space_group_name_H-M    "P 1"
_symmetry_int_tables_number       1

loop_
  _symmetry_equiv_pos_as_xyz
  'x, y, z'

loop_
  _atom_site_label
  _atom_site_occupancy
  _atom_site_fract_x
  _atom_site_fract_y
  _atom_site_fract_z
  _atom_site_thermal_displace_type
  _atom_site_B_iso_or_equiv
  _atom_site_type_symbol
  Cu1      1.0000 0.06220  0.92850  0.81940  Biso   1.000  Cu
  Cu2      1.0000 0.93780  0.42850  0.68060  Biso   1.000  Cu
  Cu3      1.0000 0.93780  0.07150  0.18060  Biso   1.000  Cu
  Cu4      1.0000 0.06220  0.57150  0.31940  Biso   1.000  Cu
  N1       1.0000 0.17600  0.00280  0.90240  Biso   1.000  N
  N2       1.0000 0.82400  0.50280  0.59760  Biso   1.000  N
  N3       1.0000 0.82400  0.99720  0.09760  Biso   1.000  N
  N4       1.0000 0.17600  0.49720  0.40240  Biso   1.000  N
  N5       1.0000 0.24990  0.95930  0.70300  Biso   1.000  N
  N6       1.0000 0.75010  0.45930  0.79700  Biso   1.000  N
  N7       1.0000 0.75010  0.04070  0.29700  Biso   1.000  N
  N8       1.0000 0.24990  0.54070  0.20300  Biso   1.000  N
  N9       1.0000 0.90130  0.63420  0.22170  Biso   1.000  N
  N10      1.0000 0.09870  0.13420  0.27830  Biso   1.000  N
  N11      1.0000 0.09870  0.36580  0.77830  Biso   1.000  N
  N12      1.0000 0.90130  0.86580  0.72170  Biso   1.000  N
  N13      1.0000 0.25780  0.84850  0.90870  Biso   1.000  N
  N14      1.0000 0.74220  0.34850  0.59130  Biso   1.000  N
  N15      1.0000 0.74220  0.15150  0.09130  Biso   1.000  N
  N16      1.0000 0.25780  0.65150  0.40870  Biso   1.000  N
  O1       1.0000 0.13440  0.06840  0.05950  Biso   1.000  O
  O2       1.0000 0.86560  0.56840  0.44050  Biso   1.000  O
  O3       1.0000 0.86560  0.93160  0.94050  Biso   1.000  O
  O4       1.0000 0.13440  0.43160  0.55950  Biso   1.000  O
  C1       1.0000 0.09010  0.02120  0.99010  Biso   1.000  C
  C2       1.0000 0.90990  0.52120  0.50990  Biso   1.000  C
  C3       1.0000 0.90990  0.97880  0.00990  Biso   1.000  C
  C4       1.0000 0.09010  0.47880  0.49010  Biso   1.000  C
  C5       1.0000 0.34390  0.03630  0.85730  Biso   1.000  C
  C6       1.0000 0.65610  0.53630  0.64270  Biso   1.000  C
  C7       1.0000 0.65610  0.96370  0.14270  Biso   1.000  C
  C8       1.0000 0.34390  0.46370  0.35730  Biso   1.000  C
  C9       1.0000 0.41900  0.98960  0.76810  Biso   1.000  C
  C10      1.0000 0.58100  0.48960  0.73190  Biso   1.000  C
  C11      1.0000 0.58100  0.01040  0.23190  Biso   1.000  C
  C12      1.0000 0.41900  0.51040  0.26810  Biso   1.000  C
  C13      1.0000 0.89330  0.69900  0.24500  Biso   1.000  C
  C14      1.0000 0.10670  0.19900  0.25500  Biso   1.000  C
  C15      1.0000 0.10670  0.30100  0.75500  Biso   1.000  C
  C16      1.0000 0.89330  0.80100  0.74500  Biso   1.000  C
  C17      1.0000 0.77530  0.74250  0.18200  Biso   1.000  C
  C18      1.0000 0.22470  0.24250  0.31800  Biso   1.000  C
  C19      1.0000 0.22470  0.25750  0.81800  Biso   1.000  C
  C20      1.0000 0.77530  0.75750  0.68200  Biso   1.000  C
  C21      1.0000 0.65290  0.71830  0.09370  Biso   1.000  C
  C22      1.0000 0.34710  0.21830  0.40630  Biso   1.000  C
  C23      1.0000 0.34710  0.28170  0.90630  Biso   1.000  C
  C24      1.0000 0.65290  0.78170  0.59370  Biso   1.000  C
  C25      1.0000 0.66390  0.65140  0.06940  Biso   1.000  C
  C26      1.0000 0.33610  0.15140  0.43060  Biso   1.000  C
  C27      1.0000 0.33610  0.34860  0.93060  Biso   1.000  C
  C28      1.0000 0.66390  0.84860  0.56940  Biso   1.000  C
  C29      1.0000 0.78810  0.61120  0.13400  Biso   1.000  C
  C30      1.0000 0.21190  0.11120  0.36600  Biso   1.000  C
  C31      1.0000 0.21190  0.38880  0.86600  Biso   1.000  C
  C32      1.0000 0.78810  0.88880  0.63400  Biso   1.000  C
  C33      1.0000 0.51530  0.76400  0.02940  Biso   1.000  C
  C34      1.0000 0.48470  0.26400  0.47060  Biso   1.000  C
  C35      1.0000 0.48470  0.23600  0.97060  Biso   1.000  C
  C36      1.0000 0.51530  0.73600  0.52940  Biso   1.000  C
  C37      1.0000 0.39760  0.80730  0.08400  Biso   1.000  C
  C38      1.0000 0.60240  0.30730  0.41600  Biso   1.000  C
  C39      1.0000 0.60240  0.19270  0.91600  Biso   1.000  C
  C40      1.0000 0.39760  0.69270  0.58400  Biso   1.000  C
  C41      1.0000 0.26920  0.84760  0.02160  Biso   1.000  C
  C42      1.0000 0.73080  0.34760  0.47840  Biso   1.000  C
  C43      1.0000 0.73080  0.15240  0.97840  Biso   1.000  C
  C44      1.0000 0.26920  0.65240  0.52160  Biso   1.000  C
  C45      1.0000 0.62730  0.30700  0.64390  Biso   1.000  C
  C46      1.0000 0.37270  0.80700  0.85610  Biso   1.000  C
  C47      1.0000 0.37270  0.69300  0.35610  Biso   1.000  C
  C48      1.0000 0.62730  0.19300  0.14390  Biso   1.000  C
  C49      1.0000 0.50130  0.76340  0.91280  Biso   1.000  C
  C50      1.0000 0.49870  0.26340  0.58720  Biso   1.000  C
  C51      1.0000 0.49870  0.23660  0.08720  Biso   1.000  C
  C52      1.0000 0.50130  0.73660  0.41280  Biso   1.000  C
  Cl1      1.0000 0.87680  0.38750  0.11450  Biso   1.000  Cl
  Cl2      1.0000 0.12320  0.88750  0.38550  Biso   1.000  Cl
  Cl3      1.0000 0.12320  0.61250  0.88550  Biso   1.000  Cl
  Cl4      1.0000 0.87680  0.11250  0.61450  Biso   1.000  Cl
  O5       1.0000 0.83050  0.35420  0.00680  Biso   1.000  O
  O6       1.0000 0.16950  0.85420  0.49320  Biso   1.000  O
  O7       1.0000 0.16950  0.64580  0.99320  Biso   1.000  O
  O8       1.0000 0.83050  0.14580  0.50680  Biso   1.000  O
  O9       1.0000 0.89310  0.44830  0.07850  Biso   1.000  O
  O10      1.0000 0.10690  0.94830  0.42150  Biso   1.000  O
  O11      1.0000 0.10690  0.55170  0.92150  Biso   1.000  O
  O12      1.0000 0.89310  0.05170  0.57850  Biso   1.000  O
  O13      1.0000 0.72890  0.37240  0.17960  Biso   1.000  O
  O14      1.0000 0.27110  0.87240  0.32040  Biso   1.000  O
  O15      1.0000 0.27110  0.62760  0.82040  Biso   1.000  O
  O16      1.0000 0.72890  0.12760  0.67960  Biso   1.000  O
  O17      1.0000 0.04480  0.36360  0.14870  Biso   1.000  O
  O18      1.0000 0.95520  0.86360  0.35130  Biso   1.000  O
  O19      1.0000 0.95520  0.63640  0.85130  Biso   1.000  O
  O20      1.0000 0.04480  0.13640  0.64870  Biso   1.000  O
