data_image0
_cell_length_a       11.486
_cell_length_b       11.706
_cell_length_c       12.291
_cell_angle_alpha    77.42
_cell_angle_beta     67.59
_cell_angle_gamma    77.96

_symmetry_space_group_name_H-M    "P 1"
_symmetry_int_tables_number       1

loop_
  _symmetry_equiv_pos_as_xyz
  'x, y, z'

loop_
  _atom_site_label
  _atom_site_occupancy
  _atom_site_fract_x
  _atom_site_fract_y
  _atom_site_fract_z
  _atom_site_thermal_displace_type
  _atom_site_B_iso_or_equiv
  _atom_site_type_symbol
  Cl1      1.0000 0.28340  0.75460  0.18980  Biso   1.000  Cl
  Cl2      1.0000 0.71660  0.24540  0.81020  Biso   1.000  Cl
  O1       1.0000 0.18490  0.83200  0.22550  Biso   1.000  O
  O2       1.0000 0.81510  0.16800  0.77450  Biso   1.000  O
  O3       1.0000 0.39810  0.79750  0.15940  Biso   1.000  O
  O4       1.0000 0.60190  0.20250  0.84060  Biso   1.000  O
  O5       1.0000 0.29280  0.71260  0.08650  Biso   1.000  O
  O6       1.0000 0.70720  0.28740  0.91350  Biso   1.000  O
  O7       1.0000 0.30430  0.66000  0.26930  Biso   1.000  O
  O8       1.0000 0.69570  0.34000  0.73070  Biso   1.000  O
  N1       1.0000 0.52710  0.14160  0.15710  Biso   1.000  N
  N2       1.0000 0.47290  0.85840  0.84290  Biso   1.000  N
  N3       1.0000 0.47050  0.01830  0.36900  Biso   1.000  N
  N4       1.0000 0.52950  0.98170  0.63100  Biso   1.000  N
  N5       1.0000 0.39150  0.32570  0.35380  Biso   1.000  N
  N6       1.0000 0.60850  0.67430  0.64620  Biso   1.000  N
  N7       1.0000 0.34010  0.34400  0.45530  Biso   1.000  N
  N8       1.0000 0.65990  0.65600  0.54470  Biso   1.000  N
  N9       1.0000 0.28880  0.35650  0.55240  Biso   1.000  N
  N10      1.0000 0.71120  0.64350  0.44760  Biso   1.000  N
  N11      1.0000 0.56230  0.51800  0.30410  Biso   1.000  N
  N12      1.0000 0.43770  0.48200  0.69590  Biso   1.000  N
  N13      1.0000 0.56890  0.54130  0.08520  Biso   1.000  N
  N14      1.0000 0.43110  0.45870  0.91480  Biso   1.000  N
  N15      1.0000 0.12880  0.33980  0.27100  Biso   1.000  N
  N16      1.0000 0.87120  0.66020  0.72900  Biso   1.000  N
  N17      1.0000 0.02580  0.48790  0.13210  Biso   1.000  N
  N18      1.0000 0.97420  0.51210  0.86790  Biso   1.000  N
  N19      1.0000 0.13740  0.14940  0.13420  Biso   1.000  N
  N20      1.0000 0.86260  0.85060  0.86580  Biso   1.000  N
  N21      1.0000 0.19500  0.11330  0.03970  Biso   1.000  N
  N22      1.0000 0.80500  0.88670  0.96030  Biso   1.000  N
  N23      1.0000 0.25330  0.07910  0.95250  Biso   1.000  N
  N24      1.0000 0.74670  0.92090  0.04750  Biso   1.000  N
  N25      1.0000 0.94050  0.97850  0.19670  Biso   1.000  N
  N26      1.0000 0.05950  0.02150  0.80330  Biso   1.000  N
  N27      1.0000 0.93730  0.95140  0.41440  Biso   1.000  N
  N28      1.0000 0.06270  0.04860  0.58560  Biso   1.000  N
  N29      1.0000 0.68540  0.26260  0.22590  Biso   1.000  N
  N30      1.0000 0.31460  0.73740  0.77410  Biso   1.000  N
  N31      1.0000 0.77770  0.25700  0.25010  Biso   1.000  N
  N32      1.0000 0.22230  0.74300  0.74990  Biso   1.000  N
  N33      1.0000 0.86950  0.25510  0.27060  Biso   1.000  N
  N34      1.0000 0.13050  0.74490  0.72940  Biso   1.000  N
  O9       1.0000 0.42580  0.87240  0.53470  Biso   1.000  O
  O10      1.0000 0.57420  0.12760  0.46530  Biso   1.000  O
  O11      1.0000 0.58810  0.60430  0.88710  Biso   1.000  O
  O12      1.0000 0.41190  0.39570  0.11290  Biso   1.000  O
  O13      1.0000 0.96580  0.65270  0.01060  Biso   1.000  O
  O14      1.0000 0.03420  0.34730  0.98940  Biso   1.000  O
  O15      1.0000 0.90760  0.90100  0.61500  Biso   1.000  O
  O16      1.0000 0.09240  0.09900  0.38500  Biso   1.000  O
  C1       1.0000 0.42150  0.07200  0.19290  Biso   1.000  C
  C2       1.0000 0.57850  0.92800  0.80710  Biso   1.000  C
  C3       1.0000 0.42870  0.97300  0.29090  Biso   1.000  C
  C4       1.0000 0.57130  0.02700  0.70910  Biso   1.000  C
  C5       1.0000 0.47040  0.96700  0.47270  Biso   1.000  C
  C6       1.0000 0.52960  0.03300  0.52730  Biso   1.000  C
  C7       1.0000 0.67340  0.56580  0.21100  Biso   1.000  C
  C8       1.0000 0.32660  0.43420  0.78900  Biso   1.000  C
  C9       1.0000 0.64760  0.61640  0.09790  Biso   1.000  C
  C10      1.0000 0.35240  0.38360  0.90210  Biso   1.000  C
  C11      1.0000 0.54640  0.54340  0.98980  Biso   1.000  C
  C12      1.0000 0.45360  0.45660  0.01020  Biso   1.000  C
  C13      1.0000 0.04840  0.44340  0.32070  Biso   1.000  C
  C14      1.0000 0.95160  0.55660  0.67930  Biso   1.000  C
  C15      1.0000 0.03470  0.54260  0.22350  Biso   1.000  C
  C16      1.0000 0.96530  0.45740  0.77650  Biso   1.000  C
  C17      1.0000 0.99700  0.54200  0.04060  Biso   1.000  C
  C18      1.0000 0.00300  0.45800  0.95940  Biso   1.000  C
  C19      1.0000 0.83010  0.93010  0.29010  Biso   1.000  C
  C20      1.0000 0.16990  0.06990  0.70990  Biso   1.000  C
  C21      1.0000 0.86140  0.87340  0.40120  Biso   1.000  C
  C22      1.0000 0.13860  0.12660  0.59880  Biso   1.000  C
  C23      1.0000 0.95510  0.95660  0.51000  Biso   1.000  C
  C24      1.0000 0.04490  0.04340  0.49000  Biso   1.000  C
  Cu1      1.0000 0.55300  0.15800  0.30580  Biso   1.000  Cu
  Cu2      1.0000 0.44700  0.84200  0.69420  Biso   1.000  Cu
  Cu3      1.0000 0.47980  0.44200  0.22550  Biso   1.000  Cu
  Cu4      1.0000 0.52020  0.55800  0.77450  Biso   1.000  Cu
  Cu5      1.0000 0.07190  0.31940  0.14090  Biso   1.000  Cu
  Cu6      1.0000 0.92810  0.68060  0.85910  Biso   1.000  Cu
  Cu7      1.0000 0.02950  0.04850  0.27300  Biso   1.000  Cu
  Cu8      1.0000 0.97050  0.95150  0.72700  Biso   1.000  Cu
  O17      1.0000 0.08840  0.83620  0.00580  Biso   1.000  O
  O18      1.0000 0.91160  0.16380  0.99420  Biso   1.000  O
  O19      1.0000 0.42250  0.33890  0.50750  Biso   1.000  O
  O20      1.0000 0.57750  0.66110  0.49250  Biso   1.000  O
