data_image0
_cell_length_a       8.721
_cell_length_b       8.679
_cell_length_c       16.741
_cell_angle_alpha    90
_cell_angle_beta     98.59
_cell_angle_gamma    90

_symmetry_space_group_name_H-M    "P 1"
_symmetry_int_tables_number       1

loop_
  _symmetry_equiv_pos_as_xyz
  'x, y, z'

loop_
  _atom_site_label
  _atom_site_occupancy
  _atom_site_fract_x
  _atom_site_fract_y
  _atom_site_fract_z
  _atom_site_thermal_displace_type
  _atom_site_B_iso_or_equiv
  _atom_site_type_symbol
  Cu1      1.0000 0.13530  0.56380  0.64780  Biso   1.000  Cu
  Cu2      1.0000 0.86470  0.06380  0.85220  Biso   1.000  Cu
  Cu3      1.0000 0.86470  0.43620  0.35220  Biso   1.000  Cu
  Cu4      1.0000 0.13530  0.93620  0.14780  Biso   1.000  Cu
  N1       1.0000 0.17300  0.58690  0.53800  Biso   1.000  N
  N2       1.0000 0.82700  0.08690  0.96200  Biso   1.000  N
  N3       1.0000 0.82700  0.41310  0.46200  Biso   1.000  N
  N4       1.0000 0.17300  0.91310  0.03800  Biso   1.000  N
  N5       1.0000 0.35880  0.63440  0.67270  Biso   1.000  N
  N6       1.0000 0.64120  0.13440  0.82730  Biso   1.000  N
  N7       1.0000 0.64120  0.36560  0.32730  Biso   1.000  N
  N8       1.0000 0.35880  0.86560  0.17270  Biso   1.000  N
  N9       1.0000 0.10300  0.49560  0.75890  Biso   1.000  N
  N10      1.0000 0.89700  0.99560  0.74110  Biso   1.000  N
  N11      1.0000 0.89700  0.50440  0.24110  Biso   1.000  N
  N12      1.0000 0.10300  0.00440  0.25890  Biso   1.000  N
  N13      1.0000 0.98310  0.31350  0.83510  Biso   1.000  N
  N14      1.0000 0.01690  0.81350  0.66490  Biso   1.000  N
  N15      1.0000 0.01690  0.68650  0.16490  Biso   1.000  N
  N16      1.0000 0.98310  0.18650  0.33510  Biso   1.000  N
  O1       1.0000 0.06690  0.52680  0.40650  Biso   1.000  O
  O2       1.0000 0.93310  0.02680  0.09350  Biso   1.000  O
  O3       1.0000 0.93310  0.47320  0.59350  Biso   1.000  O
  O4       1.0000 0.06690  0.97320  0.90650  Biso   1.000  O
  C1       1.0000 0.06880  0.53180  0.48270  Biso   1.000  C
  C2       1.0000 0.93120  0.03180  0.01730  Biso   1.000  C
  C3       1.0000 0.93120  0.46820  0.51730  Biso   1.000  C
  C4       1.0000 0.06880  0.96820  0.98270  Biso   1.000  C
  C5       1.0000 0.32350  0.64610  0.52690  Biso   1.000  C
  C6       1.0000 0.67650  0.14610  0.97310  Biso   1.000  C
  C7       1.0000 0.67650  0.35390  0.47310  Biso   1.000  C
  C8       1.0000 0.32350  0.85390  0.02690  Biso   1.000  C
  C9       1.0000 0.42700  0.63640  0.59930  Biso   1.000  C
  C10      1.0000 0.57300  0.13640  0.90070  Biso   1.000  C
  C11      1.0000 0.57300  0.36360  0.40070  Biso   1.000  C
  C12      1.0000 0.42700  0.86360  0.09930  Biso   1.000  C
  C13      1.0000 0.58330  0.70800  0.60400  Biso   1.000  C
  C14      1.0000 0.41670  0.20800  0.89600  Biso   1.000  C
  C15      1.0000 0.41670  0.29200  0.39600  Biso   1.000  C
  C16      1.0000 0.58330  0.79200  0.10400  Biso   1.000  C
  C17      1.0000 0.00860  0.37950  0.76650  Biso   1.000  C
  C18      1.0000 0.99140  0.87950  0.73350  Biso   1.000  C
  C19      1.0000 0.99140  0.62050  0.23350  Biso   1.000  C
  C20      1.0000 0.00860  0.12050  0.26650  Biso   1.000  C
  C21      1.0000 0.05800  0.37810  0.90270  Biso   1.000  C
  C22      1.0000 0.94200  0.87810  0.59730  Biso   1.000  C
  C23      1.0000 0.94200  0.62190  0.09730  Biso   1.000  C
  C24      1.0000 0.05800  0.12190  0.40270  Biso   1.000  C
  C25      1.0000 0.15550  0.50040  0.90100  Biso   1.000  C
  C26      1.0000 0.84450  0.00040  0.59900  Biso   1.000  C
  C27      1.0000 0.84450  0.49960  0.09900  Biso   1.000  C
  C28      1.0000 0.15550  0.99960  0.40100  Biso   1.000  C
  C29      1.0000 0.17690  0.55650  0.82750  Biso   1.000  C
  C30      1.0000 0.82310  0.05650  0.67250  Biso   1.000  C
  C31      1.0000 0.82310  0.44350  0.17250  Biso   1.000  C
  C32      1.0000 0.17690  0.94350  0.32750  Biso   1.000  C
  H1       1.0000 0.35730  0.74200  0.68850  Biso   1.000  H
  H2       1.0000 0.64270  0.24200  0.81150  Biso   1.000  H
  H3       1.0000 0.64270  0.25800  0.31150  Biso   1.000  H
  H4       1.0000 0.35730  0.75800  0.18850  Biso   1.000  H
  H5       1.0000 0.40100  0.56600  0.71730  Biso   1.000  H
  H6       1.0000 0.59900  0.06600  0.78270  Biso   1.000  H
  H7       1.0000 0.59900  0.43400  0.28270  Biso   1.000  H
  H8       1.0000 0.40100  0.93400  0.21730  Biso   1.000  H
  H9       1.0000 0.31250  0.75160  0.50970  Biso   1.000  H
  H10      1.0000 0.68750  0.25160  0.99030  Biso   1.000  H
  H11      1.0000 0.68750  0.24840  0.49030  Biso   1.000  H
  H12      1.0000 0.31250  0.74840  0.00970  Biso   1.000  H
  H13      1.0000 0.36360  0.58640  0.48640  Biso   1.000  H
  H14      1.0000 0.63640  0.08640  0.01360  Biso   1.000  H
  H15      1.0000 0.63640  0.41360  0.51360  Biso   1.000  H
  H16      1.0000 0.36360  0.91360  0.98640  Biso   1.000  H
  H17      1.0000 0.61610  0.70270  0.55180  Biso   1.000  H
  H18      1.0000 0.38390  0.20270  0.94820  Biso   1.000  H
  H19      1.0000 0.38390  0.29730  0.44820  Biso   1.000  H
  H20      1.0000 0.61610  0.79730  0.05180  Biso   1.000  H
  H21      1.0000 0.65530  0.65240  0.64250  Biso   1.000  H
  H22      1.0000 0.34470  0.15240  0.85750  Biso   1.000  H
  H23      1.0000 0.34470  0.34760  0.35750  Biso   1.000  H
  H24      1.0000 0.65530  0.84760  0.14250  Biso   1.000  H
  H25      1.0000 0.57980  0.81370  0.62050  Biso   1.000  H
  H26      1.0000 0.42020  0.31370  0.87950  Biso   1.000  H
  H27      1.0000 0.42020  0.18630  0.37950  Biso   1.000  H
  H28      1.0000 0.57980  0.68630  0.12050  Biso   1.000  H
  H29      1.0000 0.94690  0.33640  0.71680  Biso   1.000  H
  H30      1.0000 0.05310  0.83640  0.78320  Biso   1.000  H
  H31      1.0000 0.05310  0.66360  0.28320  Biso   1.000  H
  H32      1.0000 0.94690  0.16360  0.21680  Biso   1.000  H
  H33      1.0000 0.04420  0.32810  0.95570  Biso   1.000  H
  H34      1.0000 0.95580  0.82810  0.54430  Biso   1.000  H
  H35      1.0000 0.95580  0.67190  0.04430  Biso   1.000  H
  H36      1.0000 0.04420  0.17190  0.45570  Biso   1.000  H
  H37      1.0000 0.20490  0.54540  0.95200  Biso   1.000  H
  H38      1.0000 0.79510  0.04540  0.54800  Biso   1.000  H
  H39      1.0000 0.79510  0.45460  0.04800  Biso   1.000  H
  H40      1.0000 0.20490  0.95460  0.45200  Biso   1.000  H
  H41      1.0000 0.23260  0.65100  0.82560  Biso   1.000  H
  H42      1.0000 0.76740  0.15100  0.67440  Biso   1.000  H
  H43      1.0000 0.76740  0.34900  0.17440  Biso   1.000  H
  H44      1.0000 0.23260  0.84900  0.32560  Biso   1.000  H
  Cl1      1.0000 0.33490  0.14720  0.64440  Biso   1.000  Cl
  Cl2      1.0000 0.66510  0.64720  0.85560  Biso   1.000  Cl
  Cl3      1.0000 0.66510  0.85280  0.35560  Biso   1.000  Cl
  Cl4      1.0000 0.33490  0.35280  0.14440  Biso   1.000  Cl
  O5       1.0000 0.35800  0.02160  0.69860  Biso   1.000  O
  O6       1.0000 0.64200  0.52160  0.80140  Biso   1.000  O
  O7       1.0000 0.64200  0.97840  0.30140  Biso   1.000  O
  O8       1.0000 0.35800  0.47840  0.19860  Biso   1.000  O
  O9       1.0000 0.45480  0.24840  0.65990  Biso   1.000  O
  O10      1.0000 0.54520  0.74840  0.84010  Biso   1.000  O
  O11      1.0000 0.54520  0.75160  0.34010  Biso   1.000  O
  O12      1.0000 0.45480  0.25160  0.15990  Biso   1.000  O
  O13      1.0000 0.30320  0.09630  0.57180  Biso   1.000  O
  O14      1.0000 0.69680  0.59630  0.92820  Biso   1.000  O
  O15      1.0000 0.69680  0.90370  0.42820  Biso   1.000  O
  O16      1.0000 0.30320  0.40370  0.07180  Biso   1.000  O
  O17      1.0000 0.21890  0.23210  0.65150  Biso   1.000  O
  O18      1.0000 0.78110  0.73210  0.84850  Biso   1.000  O
  O19      1.0000 0.78110  0.76790  0.34850  Biso   1.000  O
  O20      1.0000 0.21890  0.26790  0.15150  Biso   1.000  O
