data_image0
_cell_length_a       8.966
_cell_length_b       10.949
_cell_length_c       11.62
_cell_angle_alpha    100.988
_cell_angle_beta     98.286
_cell_angle_gamma    102.071

_symmetry_space_group_name_H-M    "P 1"
_symmetry_int_tables_number       1

loop_
  _symmetry_equiv_pos_as_xyz
  'x, y, z'

loop_
  _atom_site_label
  _atom_site_occupancy
  _atom_site_fract_x
  _atom_site_fract_y
  _atom_site_fract_z
  _atom_site_thermal_displace_type
  _atom_site_B_iso_or_equiv
  _atom_site_type_symbol
  Cu1      1.0000 0.50000  0.50000  0.50000  Biso   1.000  Cu
  O1       1.0000 0.20040  0.48870  0.88240  Biso   1.000  O
  O2       1.0000 0.79960  0.51130  0.11760  Biso   1.000  O
  O3       1.0000 0.42070  0.11740  0.74860  Biso   1.000  O
  O4       1.0000 0.57930  0.88260  0.25140  Biso   1.000  O
  N1       1.0000 0.65270  0.46640  0.62950  Biso   1.000  N
  N2       1.0000 0.34730  0.53360  0.37050  Biso   1.000  N
  N3       1.0000 0.95640  0.36080  0.87540  Biso   1.000  N
  N4       1.0000 0.04360  0.63920  0.12460  Biso   1.000  N
  H1       1.0000 0.90970  0.30220  0.90640  Biso   1.000  H
  H2       1.0000 0.09030  0.69780  0.09360  Biso   1.000  H
  N5       1.0000 0.16990  0.33640  0.99010  Biso   1.000  N
  N6       1.0000 0.83010  0.66360  0.00990  Biso   1.000  N
  H3       1.0000 0.10480  0.27700  0.00850  Biso   1.000  H
  H4       1.0000 0.89520  0.72300  0.99150  Biso   1.000  H
  N7       1.0000 0.37800  0.15500  0.93990  Biso   1.000  N
  N8       1.0000 0.62200  0.84500  0.06010  Biso   1.000  N
  H5       1.0000 0.34290  0.12070  0.99450  Biso   1.000  H
  H6       1.0000 0.65710  0.87930  0.00550  Biso   1.000  H
  N9       1.0000 0.36410  0.95050  0.84100  Biso   1.000  N
  N10      1.0000 0.63590  0.04950  0.15900  Biso   1.000  N
  H7       1.0000 0.31840  0.92930  0.89560  Biso   1.000  H
  H8       1.0000 0.68160  0.07070  0.10440  Biso   1.000  H
  N11      1.0000 0.46590  0.64690  0.61480  Biso   1.000  N
  N12      1.0000 0.53410  0.35310  0.38520  Biso   1.000  N
  C1       1.0000 0.60570  0.36580  0.67950  Biso   1.000  C
  C2       1.0000 0.39430  0.63420  0.32050  Biso   1.000  C
  H9       1.0000 0.50320  0.31790  0.65810  Biso   1.000  H
  H10      1.0000 0.49680  0.68210  0.34190  Biso   1.000  H
  C3       1.0000 0.70680  0.33560  0.75980  Biso   1.000  C
  C4       1.0000 0.29320  0.66440  0.24020  Biso   1.000  C
  H11      1.0000 0.67240  0.26700  0.79370  Biso   1.000  H
  H12      1.0000 0.32760  0.73300  0.20630  Biso   1.000  H
  C5       1.0000 0.85940  0.40280  0.79330  Biso   1.000  C
  C6       1.0000 0.14060  0.59720  0.20670  Biso   1.000  C
  C7       1.0000 0.90700  0.50780  0.74390  Biso   1.000  C
  C8       1.0000 0.09300  0.49220  0.25610  Biso   1.000  C
  H13      1.0000 0.00900  0.55690  0.76490  Biso   1.000  H
  H14      1.0000 0.99100  0.44310  0.23510  Biso   1.000  H
  C9       1.0000 0.79900  0.53680  0.66300  Biso   1.000  C
  C10      1.0000 0.20100  0.46320  0.33700  Biso   1.000  C
  H15      1.0000 0.82900  0.60760  0.63090  Biso   1.000  H
  H16      1.0000 0.17100  0.39240  0.36910  Biso   1.000  H
  C11      1.0000 0.11750  0.40290  0.91430  Biso   1.000  C
  C12      1.0000 0.88250  0.59710  0.08570  Biso   1.000  C
  C13      1.0000 0.33340  0.36060  0.04170  Biso   1.000  C
  C14      1.0000 0.66660  0.63940  0.95830  Biso   1.000  C
  H17      1.0000 0.34300  0.33090  0.11530  Biso   1.000  H
  H18      1.0000 0.65700  0.66910  0.88470  Biso   1.000  H
  H19      1.0000 0.37810  0.45240  0.06170  Biso   1.000  H
  H20      1.0000 0.62190  0.54760  0.93830  Biso   1.000  H
  C15      1.0000 0.42570  0.29590  0.96000  Biso   1.000  C
  C16      1.0000 0.57430  0.70410  0.04000  Biso   1.000  C
  H21      1.0000 0.41050  0.32020  0.88390  Biso   1.000  H
  H22      1.0000 0.58950  0.67980  0.11610  Biso   1.000  H
  H23      1.0000 0.53550  0.32530  0.99530  Biso   1.000  H
  H24      1.0000 0.46450  0.67470  0.00470  Biso   1.000  H
  C17      1.0000 0.39300  0.08010  0.83510  Biso   1.000  C
  C18      1.0000 0.60700  0.91990  0.16490  Biso   1.000  C
  C19      1.0000 0.40040  0.85090  0.76410  Biso   1.000  C
  C20      1.0000 0.59960  0.14910  0.23590  Biso   1.000  C
  C21      1.0000 0.49800  0.87260  0.68550  Biso   1.000  C
  C22      1.0000 0.50200  0.12740  0.31450  Biso   1.000  C
  H25      1.0000 0.54360  0.95580  0.68160  Biso   1.000  H
  H26      1.0000 0.45640  0.04420  0.31840  Biso   1.000  H
  C23      1.0000 0.52600  0.76850  0.61220  Biso   1.000  C
  C24      1.0000 0.47400  0.23150  0.38780  Biso   1.000  C
  H27      1.0000 0.59110  0.78380  0.55810  Biso   1.000  H
  H28      1.0000 0.40890  0.21620  0.44190  Biso   1.000  H
  C25      1.0000 0.37300  0.62860  0.69480  Biso   1.000  C
  C26      1.0000 0.62700  0.37140  0.30520  Biso   1.000  C
  H29      1.0000 0.32860  0.54500  0.69840  Biso   1.000  H
  H30      1.0000 0.67140  0.45500  0.30160  Biso   1.000  H
  C27      1.0000 0.34110  0.72800  0.77090  Biso   1.000  C
  C28      1.0000 0.65890  0.27200  0.22910  Biso   1.000  C
  H31      1.0000 0.27950  0.71150  0.82670  Biso   1.000  H
  H32      1.0000 0.72050  0.28850  0.17330  Biso   1.000  H
  Cl1      1.0000 0.20320  0.90080  0.05940  Biso   1.000  Cl
  Cl2      1.0000 0.79680  0.09920  0.94060  Biso   1.000  Cl
  O5       1.0000 0.23470  0.32530  0.55460  Biso   1.000  O
  O6       1.0000 0.76530  0.67470  0.44540  Biso   1.000  O
  C29      1.0000 0.94800  0.10900  0.64700  Biso   1.000  C
  C30      1.0000 0.05200  0.89100  0.35300  Biso   1.000  C
  N13      1.0000 0.99200  0.13700  0.57500  Biso   1.000  N
  N14      1.0000 0.00800  0.86300  0.42500  Biso   1.000  N
  C31      1.0000 0.17100  0.25130  0.60480  Biso   1.000  C
  C32      1.0000 0.82900  0.74870  0.39520  Biso   1.000  C
  C33      1.0000 0.92000  0.22300  0.48200  Biso   1.000  C
  C34      1.0000 0.08000  0.77700  0.51800  Biso   1.000  C
  O7       1.0000 0.07500  0.14300  0.17400  Biso   1.000  O
  O8       1.0000 0.92500  0.85700  0.82600  Biso   1.000  O
  H33      1.0000 0.10690  0.06250  0.14940  Biso   1.000  H
  H34      1.0000 0.89310  0.93750  0.85060  Biso   1.000  H
  H35      1.0000 0.02670  0.18610  0.13690  Biso   1.000  H
  H36      1.0000 0.97330  0.81390  0.86310  Biso   1.000  H
  O9       1.0000 0.24800  0.24700  0.50200  Biso   1.000  O
  O10      1.0000 0.75200  0.75300  0.49800  Biso   1.000  O
  C35      1.0000 0.00000  0.00000  0.50000  Biso   1.000  C
  N15      1.0000 0.01800  0.20150  0.58400  Biso   1.000  N
  N16      1.0000 0.98200  0.79850  0.41600  Biso   1.000  N
