data_image0
_cell_length_a       24.55
_cell_length_b       15.285
_cell_length_c       14.484
_cell_angle_alpha    90
_cell_angle_beta     122.935
_cell_angle_gamma    90

_symmetry_space_group_name_H-M    "P 1"
_symmetry_int_tables_number       1

loop_
  _symmetry_equiv_pos_as_xyz
  'x, y, z'

loop_
  _atom_site_label
  _atom_site_occupancy
  _atom_site_fract_x
  _atom_site_fract_y
  _atom_site_fract_z
  _atom_site_thermal_displace_type
  _atom_site_B_iso_or_equiv
  _atom_site_type_symbol
  Cu1      1.0000 0.50000  0.77769  0.75000  Biso   1.000  Cu
  Cu2      1.0000 0.00000  0.27769  0.75000  Biso   1.000  Cu
  Cu3      1.0000 0.50000  0.22231  0.25000  Biso   1.000  Cu
  Cu4      1.0000 0.00000  0.72231  0.25000  Biso   1.000  Cu
  O1       1.0000 0.31440  0.47850  0.84370  Biso   1.000  O
  O2       1.0000 0.68560  0.47850  0.65630  Biso   1.000  O
  O3       1.0000 0.81440  0.97850  0.84370  Biso   1.000  O
  O4       1.0000 0.18560  0.97850  0.65630  Biso   1.000  O
  O5       1.0000 0.68560  0.52150  0.15630  Biso   1.000  O
  O6       1.0000 0.31440  0.52150  0.34370  Biso   1.000  O
  O7       1.0000 0.18560  0.02150  0.15630  Biso   1.000  O
  O8       1.0000 0.81440  0.02150  0.34370  Biso   1.000  O
  O9       1.0000 0.36628  0.12030  0.89180  Biso   1.000  O
  O10      1.0000 0.63372  0.12030  0.60820  Biso   1.000  O
  O11      1.0000 0.86628  0.62030  0.89180  Biso   1.000  O
  O12      1.0000 0.13372  0.62030  0.60820  Biso   1.000  O
  O13      1.0000 0.63372  0.87970  0.10820  Biso   1.000  O
  O14      1.0000 0.36628  0.87970  0.39180  Biso   1.000  O
  O15      1.0000 0.13372  0.37970  0.10820  Biso   1.000  O
  O16      1.0000 0.86628  0.37970  0.39180  Biso   1.000  O
  O17      1.0000 0.54540  0.76520  0.96000  Biso   1.000  O
  O18      1.0000 0.45460  0.76520  0.54000  Biso   1.000  O
  O19      1.0000 0.04540  0.26520  0.96000  Biso   1.000  O
  O20      1.0000 0.95460  0.26520  0.54000  Biso   1.000  O
  O21      1.0000 0.45460  0.23480  0.04000  Biso   1.000  O
  O22      1.0000 0.54540  0.23480  0.46000  Biso   1.000  O
  O23      1.0000 0.95460  0.73480  0.04000  Biso   1.000  O
  O24      1.0000 0.04540  0.73480  0.46000  Biso   1.000  O
  H1       1.0000 0.53220  0.73100  0.99460  Biso   1.000  H
  H2       1.0000 0.46780  0.73100  0.50540  Biso   1.000  H
  H3       1.0000 0.03220  0.23100  0.99460  Biso   1.000  H
  H4       1.0000 0.96780  0.23100  0.50540  Biso   1.000  H
  H5       1.0000 0.46780  0.26900  0.00540  Biso   1.000  H
  H6       1.0000 0.53220  0.26900  0.49460  Biso   1.000  H
  H7       1.0000 0.96780  0.76900  0.00540  Biso   1.000  H
  H8       1.0000 0.03220  0.76900  0.49460  Biso   1.000  H
  H9       1.0000 0.56400  0.81030  0.01260  Biso   1.000  H
  H10      1.0000 0.43600  0.81030  0.48740  Biso   1.000  H
  H11      1.0000 0.06400  0.31030  0.01260  Biso   1.000  H
  H12      1.0000 0.93600  0.31030  0.48740  Biso   1.000  H
  H13      1.0000 0.43600  0.18970  0.98740  Biso   1.000  H
  H14      1.0000 0.56400  0.18970  0.51260  Biso   1.000  H
  H15      1.0000 0.93600  0.68970  0.98740  Biso   1.000  H
  H16      1.0000 0.06400  0.68970  0.51260  Biso   1.000  H
  N1       1.0000 0.43420  0.68550  0.72520  Biso   1.000  N
  N2       1.0000 0.56580  0.68550  0.77480  Biso   1.000  N
  N3       1.0000 0.93420  0.18550  0.72520  Biso   1.000  N
  N4       1.0000 0.06580  0.18550  0.77480  Biso   1.000  N
  N5       1.0000 0.56580  0.31450  0.27480  Biso   1.000  N
  N6       1.0000 0.43420  0.31450  0.22520  Biso   1.000  N
  N7       1.0000 0.06580  0.81450  0.27480  Biso   1.000  N
  N8       1.0000 0.93420  0.81450  0.22520  Biso   1.000  N
  N9       1.0000 0.30410  0.48540  0.67730  Biso   1.000  N
  N10      1.0000 0.69590  0.48540  0.82270  Biso   1.000  N
  N11      1.0000 0.80410  0.98540  0.67730  Biso   1.000  N
  N12      1.0000 0.19590  0.98540  0.82270  Biso   1.000  N
  N13      1.0000 0.69590  0.51460  0.32270  Biso   1.000  N
  N14      1.0000 0.30410  0.51460  0.17730  Biso   1.000  N
  N15      1.0000 0.19590  0.01460  0.32270  Biso   1.000  N
  N16      1.0000 0.80410  0.01460  0.17730  Biso   1.000  N
  H17      1.0000 0.28370  0.46250  0.61270  Biso   1.000  H
  H18      1.0000 0.71630  0.46250  0.88730  Biso   1.000  H
  H19      1.0000 0.78370  0.96250  0.61270  Biso   1.000  H
  H20      1.0000 0.21630  0.96250  0.88730  Biso   1.000  H
  H21      1.0000 0.71630  0.53750  0.38730  Biso   1.000  H
  H22      1.0000 0.28370  0.53750  0.11270  Biso   1.000  H
  H23      1.0000 0.21630  0.03750  0.38730  Biso   1.000  H
  H24      1.0000 0.78370  0.03750  0.11270  Biso   1.000  H
  N17      1.0000 0.25010  0.38210  0.70950  Biso   1.000  N
  N18      1.0000 0.74990  0.38210  0.79050  Biso   1.000  N
  N19      1.0000 0.75010  0.88210  0.70950  Biso   1.000  N
  N20      1.0000 0.24990  0.88210  0.79050  Biso   1.000  N
  N21      1.0000 0.74990  0.61790  0.29050  Biso   1.000  N
  N22      1.0000 0.25010  0.61790  0.20950  Biso   1.000  N
  N23      1.0000 0.24990  0.11790  0.29050  Biso   1.000  N
  N24      1.0000 0.75010  0.11790  0.20950  Biso   1.000  N
  H25      1.0000 0.23330  0.36810  0.64170  Biso   1.000  H
  H26      1.0000 0.76670  0.36810  0.85830  Biso   1.000  H
  H27      1.0000 0.73330  0.86810  0.64170  Biso   1.000  H
  H28      1.0000 0.26670  0.86810  0.85830  Biso   1.000  H
  H29      1.0000 0.76670  0.63190  0.35830  Biso   1.000  H
  H30      1.0000 0.23330  0.63190  0.14170  Biso   1.000  H
  H31      1.0000 0.26670  0.13190  0.35830  Biso   1.000  H
  H32      1.0000 0.73330  0.13190  0.14170  Biso   1.000  H
  N25      1.0000 0.27820  0.19380  0.75890  Biso   1.000  N
  N26      1.0000 0.72180  0.19380  0.74110  Biso   1.000  N
  N27      1.0000 0.77820  0.69380  0.75890  Biso   1.000  N
  N28      1.0000 0.22180  0.69380  0.74110  Biso   1.000  N
  N29      1.0000 0.72180  0.80620  0.24110  Biso   1.000  N
  N30      1.0000 0.27820  0.80620  0.25890  Biso   1.000  N
  N31      1.0000 0.22180  0.30620  0.24110  Biso   1.000  N
  N32      1.0000 0.77820  0.30620  0.25890  Biso   1.000  N
  H33      1.0000 0.24850  0.19740  0.69000  Biso   1.000  H
  H34      1.0000 0.75150  0.19740  0.81000  Biso   1.000  H
  H35      1.0000 0.74850  0.69740  0.69000  Biso   1.000  H
  H36      1.0000 0.25150  0.69740  0.81000  Biso   1.000  H
  H37      1.0000 0.75150  0.80260  0.31000  Biso   1.000  H
  H38      1.0000 0.24850  0.80260  0.19000  Biso   1.000  H
  H39      1.0000 0.25150  0.30260  0.31000  Biso   1.000  H
  H40      1.0000 0.74850  0.30260  0.19000  Biso   1.000  H
  N33      1.0000 0.31900  0.08100  0.71040  Biso   1.000  N
  N34      1.0000 0.68100  0.08100  0.78960  Biso   1.000  N
  N35      1.0000 0.81900  0.58100  0.71040  Biso   1.000  N
  N36      1.0000 0.18100  0.58100  0.78960  Biso   1.000  N
  N37      1.0000 0.68100  0.91900  0.28960  Biso   1.000  N
  N38      1.0000 0.31900  0.91900  0.21040  Biso   1.000  N
  N39      1.0000 0.18100  0.41900  0.28960  Biso   1.000  N
  N40      1.0000 0.81900  0.41900  0.21040  Biso   1.000  N
  H41      1.0000 0.28780  0.09320  0.64440  Biso   1.000  H
  H42      1.0000 0.71220  0.09320  0.85560  Biso   1.000  H
  H43      1.0000 0.78780  0.59320  0.64440  Biso   1.000  H
  H44      1.0000 0.21220  0.59320  0.85560  Biso   1.000  H
  H45      1.0000 0.71220  0.90680  0.35560  Biso   1.000  H
  H46      1.0000 0.28780  0.90680  0.14440  Biso   1.000  H
  H47      1.0000 0.21220  0.40680  0.35560  Biso   1.000  H
  H48      1.0000 0.78780  0.40680  0.14440  Biso   1.000  H
  N41      1.0000 0.43830  0.87330  0.73390  Biso   1.000  N
  N42      1.0000 0.56170  0.87330  0.76610  Biso   1.000  N
  N43      1.0000 0.93830  0.37330  0.73390  Biso   1.000  N
  N44      1.0000 0.06170  0.37330  0.76610  Biso   1.000  N
  N45      1.0000 0.56170  0.12670  0.26610  Biso   1.000  N
  N46      1.0000 0.43830  0.12670  0.23390  Biso   1.000  N
  N47      1.0000 0.06170  0.62670  0.26610  Biso   1.000  N
  N48      1.0000 0.93830  0.62670  0.23390  Biso   1.000  N
  C1       1.0000 0.41220  0.62580  0.64410  Biso   1.000  C
  C2       1.0000 0.58780  0.62580  0.85590  Biso   1.000  C
  C3       1.0000 0.91220  0.12580  0.64410  Biso   1.000  C
  C4       1.0000 0.08780  0.12580  0.85590  Biso   1.000  C
  C5       1.0000 0.58780  0.37420  0.35590  Biso   1.000  C
  C6       1.0000 0.41220  0.37420  0.14410  Biso   1.000  C
  C7       1.0000 0.08780  0.87420  0.35590  Biso   1.000  C
  C8       1.0000 0.91220  0.87420  0.14410  Biso   1.000  C
  H49      1.0000 0.42750  0.62820  0.59780  Biso   1.000  H
  H50      1.0000 0.57250  0.62820  0.90220  Biso   1.000  H
  H51      1.0000 0.92750  0.12820  0.59780  Biso   1.000  H
  H52      1.0000 0.07250  0.12820  0.90220  Biso   1.000  H
  H53      1.0000 0.57250  0.37180  0.40220  Biso   1.000  H
  H54      1.0000 0.42750  0.37180  0.09780  Biso   1.000  H
  H55      1.0000 0.07250  0.87180  0.40220  Biso   1.000  H
  H56      1.0000 0.92750  0.87180  0.09780  Biso   1.000  H
  C9       1.0000 0.36850  0.56150  0.62650  Biso   1.000  C
  C10      1.0000 0.63150  0.56150  0.87350  Biso   1.000  C
  C11      1.0000 0.86850  0.06150  0.62650  Biso   1.000  C
  C12      1.0000 0.13150  0.06150  0.87350  Biso   1.000  C
  C13      1.0000 0.63150  0.43850  0.37350  Biso   1.000  C
  C14      1.0000 0.36850  0.43850  0.12650  Biso   1.000  C
  C15      1.0000 0.13150  0.93850  0.37350  Biso   1.000  C
  C16      1.0000 0.86850  0.93850  0.12650  Biso   1.000  C
  H57      1.0000 0.35380  0.52330  0.56750  Biso   1.000  H
  H58      1.0000 0.64620  0.52330  0.93250  Biso   1.000  H
  H59      1.0000 0.85380  0.02330  0.56750  Biso   1.000  H
  H60      1.0000 0.14620  0.02330  0.93250  Biso   1.000  H
  H61      1.0000 0.64620  0.47670  0.43250  Biso   1.000  H
  H62      1.0000 0.35380  0.47670  0.06750  Biso   1.000  H
  H63      1.0000 0.14620  0.97670  0.43250  Biso   1.000  H
  H64      1.0000 0.85380  0.97670  0.06750  Biso   1.000  H
  C17      1.0000 0.34610  0.55290  0.69560  Biso   1.000  C
  C18      1.0000 0.65390  0.55290  0.80440  Biso   1.000  C
  C19      1.0000 0.84610  0.05290  0.69560  Biso   1.000  C
  C20      1.0000 0.15390  0.05290  0.80440  Biso   1.000  C
  C21      1.0000 0.65390  0.44710  0.30440  Biso   1.000  C
  C22      1.0000 0.34610  0.44710  0.19560  Biso   1.000  C
  C23      1.0000 0.15390  0.94710  0.30440  Biso   1.000  C
  C24      1.0000 0.84610  0.94710  0.19560  Biso   1.000  C
  C25      1.0000 0.36740  0.61490  0.77810  Biso   1.000  C
  C26      1.0000 0.63260  0.61490  0.72190  Biso   1.000  C
  C27      1.0000 0.86740  0.11490  0.77810  Biso   1.000  C
  C28      1.0000 0.13260  0.11490  0.72190  Biso   1.000  C
  C29      1.0000 0.63260  0.38510  0.22190  Biso   1.000  C
  C30      1.0000 0.36740  0.38510  0.27810  Biso   1.000  C
  C31      1.0000 0.13260  0.88510  0.22190  Biso   1.000  C
  C32      1.0000 0.86740  0.88510  0.27810  Biso   1.000  C
  H65      1.0000 0.35280  0.61350  0.82540  Biso   1.000  H
  H66      1.0000 0.64720  0.61350  0.67460  Biso   1.000  H
  H67      1.0000 0.85280  0.11350  0.82540  Biso   1.000  H
  H68      1.0000 0.14720  0.11350  0.67460  Biso   1.000  H
  H69      1.0000 0.64720  0.38650  0.17460  Biso   1.000  H
  H70      1.0000 0.35280  0.38650  0.32540  Biso   1.000  H
  H71      1.0000 0.14720  0.88650  0.17460  Biso   1.000  H
  H72      1.0000 0.85280  0.88650  0.32540  Biso   1.000  H
  C33      1.0000 0.41010  0.67830  0.78960  Biso   1.000  C
  C34      1.0000 0.58990  0.67830  0.71040  Biso   1.000  C
  C35      1.0000 0.91010  0.17830  0.78960  Biso   1.000  C
  C36      1.0000 0.08990  0.17830  0.71040  Biso   1.000  C
  C37      1.0000 0.58990  0.32170  0.21040  Biso   1.000  C
  C38      1.0000 0.41010  0.32170  0.28960  Biso   1.000  C
  C39      1.0000 0.08990  0.82170  0.21040  Biso   1.000  C
  C40      1.0000 0.91010  0.82170  0.28960  Biso   1.000  C
  H73      1.0000 0.42360  0.71910  0.84560  Biso   1.000  H
  H74      1.0000 0.57640  0.71910  0.65440  Biso   1.000  H
  H75      1.0000 0.92360  0.21910  0.84560  Biso   1.000  H
  H76      1.0000 0.07640  0.21910  0.65440  Biso   1.000  H
  H77      1.0000 0.57640  0.28090  0.15440  Biso   1.000  H
  H78      1.0000 0.42360  0.28090  0.34560  Biso   1.000  H
  H79      1.0000 0.07640  0.78090  0.15440  Biso   1.000  H
  H80      1.0000 0.92360  0.78090  0.34560  Biso   1.000  H
  C41      1.0000 0.29120  0.45070  0.75070  Biso   1.000  C
  C42      1.0000 0.70880  0.45070  0.74930  Biso   1.000  C
  C43      1.0000 0.79120  0.95070  0.75070  Biso   1.000  C
  C44      1.0000 0.20880  0.95070  0.74930  Biso   1.000  C
  C45      1.0000 0.70880  0.54930  0.24930  Biso   1.000  C
  C46      1.0000 0.29120  0.54930  0.25070  Biso   1.000  C
  C47      1.0000 0.20880  0.04930  0.24930  Biso   1.000  C
  C48      1.0000 0.79120  0.04930  0.25070  Biso   1.000  C
  C49      1.0000 0.23280  0.33110  0.77410  Biso   1.000  C
  C50      1.0000 0.76720  0.33110  0.72590  Biso   1.000  C
  C51      1.0000 0.73280  0.83110  0.77410  Biso   1.000  C
  C52      1.0000 0.26720  0.83110  0.72590  Biso   1.000  C
  C53      1.0000 0.76720  0.66890  0.22590  Biso   1.000  C
  C54      1.0000 0.23280  0.66890  0.27410  Biso   1.000  C
  C55      1.0000 0.26720  0.16890  0.22590  Biso   1.000  C
  C56      1.0000 0.73280  0.16890  0.27410  Biso   1.000  C
  H81      1.0000 0.18930  0.30820  0.72570  Biso   1.000  H
  H82      1.0000 0.81070  0.30820  0.77430  Biso   1.000  H
  H83      1.0000 0.68930  0.80820  0.72570  Biso   1.000  H
  H84      1.0000 0.31070  0.80820  0.77430  Biso   1.000  H
  H85      1.0000 0.81070  0.69180  0.27430  Biso   1.000  H
  H86      1.0000 0.18930  0.69180  0.22570  Biso   1.000  H
  H87      1.0000 0.31070  0.19180  0.27430  Biso   1.000  H
  H88      1.0000 0.68930  0.19180  0.22570  Biso   1.000  H
  H89      1.0000 0.23220  0.36930  0.82700  Biso   1.000  H
  H90      1.0000 0.76780  0.36930  0.67300  Biso   1.000  H
  H91      1.0000 0.73220  0.86930  0.82700  Biso   1.000  H
  H92      1.0000 0.26780  0.86930  0.67300  Biso   1.000  H
  H93      1.0000 0.76780  0.63070  0.17300  Biso   1.000  H
  H94      1.0000 0.23220  0.63070  0.32700  Biso   1.000  H
  H95      1.0000 0.26780  0.13070  0.17300  Biso   1.000  H
  H96      1.0000 0.73220  0.13070  0.32700  Biso   1.000  H
  C57      1.0000 0.27850  0.25550  0.83530  Biso   1.000  C
  C58      1.0000 0.72150  0.25550  0.66470  Biso   1.000  C
  C59      1.0000 0.77850  0.75550  0.83530  Biso   1.000  C
  C60      1.0000 0.22150  0.75550  0.66470  Biso   1.000  C
  C61      1.0000 0.72150  0.74450  0.16470  Biso   1.000  C
  C62      1.0000 0.27850  0.74450  0.33530  Biso   1.000  C
  C63      1.0000 0.22150  0.24450  0.16470  Biso   1.000  C
  C64      1.0000 0.77850  0.24450  0.33530  Biso   1.000  C
  H97      1.0000 0.32220  0.27770  0.88450  Biso   1.000  H
  H98      1.0000 0.67780  0.27770  0.61550  Biso   1.000  H
  H99      1.0000 0.82220  0.77770  0.88450  Biso   1.000  H
  H100     1.0000 0.17780  0.77770  0.61550  Biso   1.000  H
  H101     1.0000 0.67780  0.72230  0.11550  Biso   1.000  H
  H102     1.0000 0.32220  0.72230  0.38450  Biso   1.000  H
  H103     1.0000 0.17780  0.22230  0.11550  Biso   1.000  H
  H104     1.0000 0.82220  0.22230  0.38450  Biso   1.000  H
  H105     1.0000 0.26530  0.22600  0.87930  Biso   1.000  H
  H106     1.0000 0.73470  0.22600  0.62070  Biso   1.000  H
  H107     1.0000 0.76530  0.72600  0.87930  Biso   1.000  H
  H108     1.0000 0.23470  0.72600  0.62070  Biso   1.000  H
  H109     1.0000 0.73470  0.77400  0.12070  Biso   1.000  H
  H110     1.0000 0.26530  0.77400  0.37930  Biso   1.000  H
  H111     1.0000 0.23470  0.27400  0.12070  Biso   1.000  H
  H112     1.0000 0.76530  0.27400  0.37930  Biso   1.000  H
  C65      1.0000 0.32320  0.13160  0.79370  Biso   1.000  C
  C66      1.0000 0.67680  0.13160  0.70630  Biso   1.000  C
  C67      1.0000 0.82320  0.63160  0.79370  Biso   1.000  C
  C68      1.0000 0.17680  0.63160  0.70630  Biso   1.000  C
  C69      1.0000 0.67680  0.86840  0.20630  Biso   1.000  C
  C70      1.0000 0.32320  0.86840  0.29370  Biso   1.000  C
  C71      1.0000 0.17680  0.36840  0.20630  Biso   1.000  C
  C72      1.0000 0.82320  0.36840  0.29370  Biso   1.000  C
  C73      1.0000 0.35930  0.01330  0.72220  Biso   1.000  C
  C74      1.0000 0.64070  0.01330  0.77780  Biso   1.000  C
  C75      1.0000 0.85930  0.51330  0.72220  Biso   1.000  C
  C76      1.0000 0.14070  0.51330  0.77780  Biso   1.000  C
  C77      1.0000 0.64070  0.98670  0.27780  Biso   1.000  C
  C78      1.0000 0.35930  0.98670  0.22220  Biso   1.000  C
  C79      1.0000 0.14070  0.48670  0.27780  Biso   1.000  C
  C80      1.0000 0.85930  0.48670  0.22220  Biso   1.000  C
  C81      1.0000 0.34840  0.96910  0.62830  Biso   1.000  C
  C82      1.0000 0.65160  0.96910  0.87170  Biso   1.000  C
  C83      1.0000 0.84840  0.46910  0.62830  Biso   1.000  C
  C84      1.0000 0.15160  0.46910  0.87170  Biso   1.000  C
  C85      1.0000 0.65160  0.03090  0.37170  Biso   1.000  C
  C86      1.0000 0.34840  0.03090  0.12830  Biso   1.000  C
  C87      1.0000 0.15160  0.53090  0.37170  Biso   1.000  C
  C88      1.0000 0.84840  0.53090  0.12830  Biso   1.000  C
  H113     1.0000 0.31430  0.98620  0.55890  Biso   1.000  H
  H114     1.0000 0.68570  0.98620  0.94110  Biso   1.000  H
  H115     1.0000 0.81430  0.48620  0.55890  Biso   1.000  H
  H116     1.0000 0.18570  0.48620  0.94110  Biso   1.000  H
  H117     1.0000 0.68570  0.01380  0.44110  Biso   1.000  H
  H118     1.0000 0.31430  0.01380  0.05890  Biso   1.000  H
  H119     1.0000 0.18570  0.51380  0.44110  Biso   1.000  H
  H120     1.0000 0.81430  0.51380  0.05890  Biso   1.000  H
  C89      1.0000 0.38740  0.90150  0.63850  Biso   1.000  C
  C90      1.0000 0.61260  0.90150  0.86150  Biso   1.000  C
  C91      1.0000 0.88740  0.40150  0.63850  Biso   1.000  C
  C92      1.0000 0.11260  0.40150  0.86150  Biso   1.000  C
  C93      1.0000 0.61260  0.09850  0.36150  Biso   1.000  C
  C94      1.0000 0.38740  0.09850  0.13850  Biso   1.000  C
  C95      1.0000 0.11260  0.59850  0.36150  Biso   1.000  C
  C96      1.0000 0.88740  0.59850  0.13850  Biso   1.000  C
  H121     1.0000 0.37790  0.87300  0.57470  Biso   1.000  H
  H122     1.0000 0.62210  0.87300  0.92530  Biso   1.000  H
  H123     1.0000 0.87790  0.37300  0.57470  Biso   1.000  H
  H124     1.0000 0.12210  0.37300  0.92530  Biso   1.000  H
  H125     1.0000 0.62210  0.12700  0.42530  Biso   1.000  H
  H126     1.0000 0.37790  0.12700  0.07470  Biso   1.000  H
  H127     1.0000 0.12210  0.62700  0.42530  Biso   1.000  H
  H128     1.0000 0.87790  0.62700  0.07470  Biso   1.000  H
  C97      1.0000 0.44860  0.91570  0.82260  Biso   1.000  C
  C98      1.0000 0.55140  0.91570  0.67740  Biso   1.000  C
  C99      1.0000 0.94860  0.41570  0.82260  Biso   1.000  C
  C100     1.0000 0.05140  0.41570  0.67740  Biso   1.000  C
  C101     1.0000 0.55140  0.08430  0.17740  Biso   1.000  C
  C102     1.0000 0.44860  0.08430  0.32260  Biso   1.000  C
  C103     1.0000 0.05140  0.58430  0.17740  Biso   1.000  C
  C104     1.0000 0.94860  0.58430  0.32260  Biso   1.000  C
  H129     1.0000 0.48380  0.89820  0.89070  Biso   1.000  H
  H130     1.0000 0.51620  0.89820  0.60930  Biso   1.000  H
  H131     1.0000 0.98380  0.39820  0.89070  Biso   1.000  H
  H132     1.0000 0.01620  0.39820  0.60930  Biso   1.000  H
  H133     1.0000 0.51620  0.10180  0.10930  Biso   1.000  H
  H134     1.0000 0.48380  0.10180  0.39070  Biso   1.000  H
  H135     1.0000 0.01620  0.60180  0.10930  Biso   1.000  H
  H136     1.0000 0.98380  0.60180  0.39070  Biso   1.000  H
  C105     1.0000 0.41130  0.98290  0.82120  Biso   1.000  C
  C106     1.0000 0.58870  0.98290  0.67880  Biso   1.000  C
  C107     1.0000 0.91130  0.48290  0.82120  Biso   1.000  C
  C108     1.0000 0.08870  0.48290  0.67880  Biso   1.000  C
  C109     1.0000 0.58870  0.01710  0.17880  Biso   1.000  C
  C110     1.0000 0.41130  0.01710  0.32120  Biso   1.000  C
  C111     1.0000 0.08870  0.51710  0.17880  Biso   1.000  C
  C112     1.0000 0.91130  0.51710  0.32120  Biso   1.000  C
  H137     1.0000 0.42100  0.00810  0.88680  Biso   1.000  H
  H138     1.0000 0.57900  0.00810  0.61320  Biso   1.000  H
  H139     1.0000 0.92100  0.50810  0.88680  Biso   1.000  H
  H140     1.0000 0.07900  0.50810  0.61320  Biso   1.000  H
  H141     1.0000 0.57900  0.99190  0.11320  Biso   1.000  H
  H142     1.0000 0.42100  0.99190  0.38680  Biso   1.000  H
  H143     1.0000 0.07900  0.49190  0.11320  Biso   1.000  H
  H144     1.0000 0.92100  0.49190  0.38680  Biso   1.000  H
  O25      1.0000 0.22410  0.13130  0.49080  Biso   1.000  O
  O26      1.0000 0.77590  0.13130  0.00920  Biso   1.000  O
  O27      1.0000 0.72410  0.63130  0.49080  Biso   1.000  O
  O28      1.0000 0.27590  0.63130  0.00920  Biso   1.000  O
  O29      1.0000 0.77590  0.86870  0.50920  Biso   1.000  O
  O30      1.0000 0.22410  0.86870  0.99080  Biso   1.000  O
  O31      1.0000 0.27590  0.36870  0.50920  Biso   1.000  O
  O32      1.0000 0.72410  0.36870  0.99080  Biso   1.000  O
  O33      1.0000 0.17560  0.22480  0.54140  Biso   1.000  O
  O34      1.0000 0.82440  0.22480  0.95860  Biso   1.000  O
  O35      1.0000 0.67560  0.72480  0.54140  Biso   1.000  O
  O36      1.0000 0.32440  0.72480  0.95860  Biso   1.000  O
  O37      1.0000 0.82440  0.77520  0.45860  Biso   1.000  O
  O38      1.0000 0.17560  0.77520  0.04140  Biso   1.000  O
  O39      1.0000 0.32440  0.27520  0.45860  Biso   1.000  O
  O40      1.0000 0.67560  0.27520  0.04140  Biso   1.000  O
  C113     1.0000 0.12850  0.20250  0.34810  Biso   1.000  C
  C114     1.0000 0.87150  0.20250  0.15190  Biso   1.000  C
  C115     1.0000 0.62850  0.70250  0.34810  Biso   1.000  C
  C116     1.0000 0.37150  0.70250  0.15190  Biso   1.000  C
  C117     1.0000 0.87150  0.79750  0.65190  Biso   1.000  C
  C118     1.0000 0.12850  0.79750  0.84810  Biso   1.000  C
  C119     1.0000 0.37150  0.29750  0.65190  Biso   1.000  C
  C120     1.0000 0.62850  0.29750  0.84810  Biso   1.000  C
  H145     1.0000 0.14480  0.18480  0.30380  Biso   1.000  H
  H146     1.0000 0.85520  0.18480  0.19620  Biso   1.000  H
  H147     1.0000 0.64480  0.68480  0.30380  Biso   1.000  H
  H148     1.0000 0.35520  0.68480  0.19620  Biso   1.000  H
  H149     1.0000 0.85520  0.81520  0.69620  Biso   1.000  H
  H150     1.0000 0.14480  0.81520  0.80380  Biso   1.000  H
  H151     1.0000 0.35520  0.31520  0.69620  Biso   1.000  H
  H152     1.0000 0.64480  0.31520  0.80380  Biso   1.000  H
  H153     1.0000 0.11840  0.26380  0.33750  Biso   1.000  H
  H154     1.0000 0.88160  0.26380  0.16250  Biso   1.000  H
  H155     1.0000 0.61840  0.76380  0.33750  Biso   1.000  H
  H156     1.0000 0.38160  0.76380  0.16250  Biso   1.000  H
  H157     1.0000 0.88160  0.73620  0.66250  Biso   1.000  H
  H158     1.0000 0.11840  0.73620  0.83750  Biso   1.000  H
  H159     1.0000 0.38160  0.23620  0.66250  Biso   1.000  H
  H160     1.0000 0.61840  0.23620  0.83750  Biso   1.000  H
  H161     1.0000 0.09000  0.16980  0.32690  Biso   1.000  H
  H162     1.0000 0.91000  0.16980  0.17310  Biso   1.000  H
  H163     1.0000 0.59000  0.66980  0.32690  Biso   1.000  H
  H164     1.0000 0.41000  0.66980  0.17310  Biso   1.000  H
  H165     1.0000 0.91000  0.83020  0.67310  Biso   1.000  H
  H166     1.0000 0.09000  0.83020  0.82690  Biso   1.000  H
  H167     1.0000 0.41000  0.33020  0.67310  Biso   1.000  H
  H168     1.0000 0.59000  0.33020  0.82690  Biso   1.000  H
  C121     1.0000 0.18010  0.18520  0.46950  Biso   1.000  C
  C122     1.0000 0.81990  0.18520  0.03050  Biso   1.000  C
  C123     1.0000 0.68010  0.68520  0.46950  Biso   1.000  C
  C124     1.0000 0.31990  0.68520  0.03050  Biso   1.000  C
  C125     1.0000 0.81990  0.81480  0.53050  Biso   1.000  C
  C126     1.0000 0.18010  0.81480  0.96950  Biso   1.000  C
  C127     1.0000 0.31990  0.31480  0.53050  Biso   1.000  C
  C128     1.0000 0.68010  0.31480  0.96950  Biso   1.000  C
  O41      1.0000 0.53190  0.62150  0.06520  Biso   1.000  O
  O42      1.0000 0.46810  0.62150  0.43480  Biso   1.000  O
  O43      1.0000 0.03190  0.12150  0.06520  Biso   1.000  O
  O44      1.0000 0.96810  0.12150  0.43480  Biso   1.000  O
  O45      1.0000 0.46810  0.37850  0.93480  Biso   1.000  O
  O46      1.0000 0.53190  0.37850  0.56520  Biso   1.000  O
  O47      1.0000 0.96810  0.87850  0.93480  Biso   1.000  O
  O48      1.0000 0.03190  0.87850  0.56520  Biso   1.000  O
  C129     1.0000 0.49940  0.57660  0.09150  Biso   1.000  C
  C130     1.0000 0.50060  0.57660  0.40850  Biso   1.000  C
  C131     1.0000 0.99940  0.07660  0.09150  Biso   1.000  C
  C132     1.0000 0.00060  0.07660  0.40850  Biso   1.000  C
  C133     1.0000 0.50060  0.42340  0.90850  Biso   1.000  C
  C134     1.0000 0.49940  0.42340  0.59150  Biso   1.000  C
  C135     1.0000 0.00060  0.92340  0.90850  Biso   1.000  C
  C136     1.0000 0.99940  0.92340  0.59150  Biso   1.000  C
  O49      1.0000 0.43480  0.20080  0.51140  Biso   1.000  O
  O50      1.0000 0.56520  0.20080  0.98860  Biso   1.000  O
  O51      1.0000 0.93480  0.70080  0.51140  Biso   1.000  O
  O52      1.0000 0.06520  0.70080  0.98860  Biso   1.000  O
  O53      1.0000 0.56520  0.79920  0.48860  Biso   1.000  O
  O54      1.0000 0.43480  0.79920  0.01140  Biso   1.000  O
  O55      1.0000 0.06520  0.29920  0.48860  Biso   1.000  O
  O56      1.0000 0.93480  0.29920  0.01140  Biso   1.000  O
  H169     1.0000 0.44580  0.19270  0.46770  Biso   1.000  H
  H170     1.0000 0.55420  0.19270  0.03230  Biso   1.000  H
  H171     1.0000 0.94580  0.69270  0.46770  Biso   1.000  H
  H172     1.0000 0.05420  0.69270  0.03230  Biso   1.000  H
  H173     1.0000 0.55420  0.80730  0.53230  Biso   1.000  H
  H174     1.0000 0.44580  0.80730  0.96770  Biso   1.000  H
  H175     1.0000 0.05420  0.30730  0.53230  Biso   1.000  H
  H176     1.0000 0.94580  0.30730  0.96770  Biso   1.000  H
  C137     1.0000 0.44570  0.12570  0.57200  Biso   1.000  C
  C138     1.0000 0.55430  0.12570  0.92800  Biso   1.000  C
  C139     1.0000 0.94570  0.62570  0.57200  Biso   1.000  C
  C140     1.0000 0.05430  0.62570  0.92800  Biso   1.000  C
  C141     1.0000 0.55430  0.87430  0.42800  Biso   1.000  C
  C142     1.0000 0.44570  0.87430  0.07200  Biso   1.000  C
  C143     1.0000 0.05430  0.37430  0.42800  Biso   1.000  C
  C144     1.0000 0.94570  0.37430  0.07200  Biso   1.000  C
  H177     1.0000 0.47170  0.08590  0.56050  Biso   1.000  H
  H178     1.0000 0.52830  0.08590  0.93950  Biso   1.000  H
  H179     1.0000 0.97170  0.58590  0.56050  Biso   1.000  H
  H180     1.0000 0.02830  0.58590  0.93950  Biso   1.000  H
  H181     1.0000 0.52830  0.91410  0.43950  Biso   1.000  H
  H182     1.0000 0.47170  0.91410  0.06050  Biso   1.000  H
  H183     1.0000 0.02830  0.41410  0.43950  Biso   1.000  H
  H184     1.0000 0.97170  0.41410  0.06050  Biso   1.000  H
  H185     1.0000 0.40490  0.09860  0.54900  Biso   1.000  H
  H186     1.0000 0.59510  0.09860  0.95100  Biso   1.000  H
  H187     1.0000 0.90490  0.59860  0.54900  Biso   1.000  H
  H188     1.0000 0.09510  0.59860  0.95100  Biso   1.000  H
  H189     1.0000 0.59510  0.90140  0.45100  Biso   1.000  H
  H190     1.0000 0.40490  0.90140  0.04900  Biso   1.000  H
  H191     1.0000 0.09510  0.40140  0.45100  Biso   1.000  H
  H192     1.0000 0.90490  0.40140  0.04900  Biso   1.000  H
  H193     1.0000 0.46800  0.14030  0.64860  Biso   1.000  H
  H194     1.0000 0.53200  0.14030  0.85140  Biso   1.000  H
  H195     1.0000 0.96800  0.64030  0.64860  Biso   1.000  H
  H196     1.0000 0.03200  0.64030  0.85140  Biso   1.000  H
  H197     1.0000 0.53200  0.85970  0.35140  Biso   1.000  H
  H198     1.0000 0.46800  0.85970  0.14860  Biso   1.000  H
  H199     1.0000 0.03200  0.35970  0.35140  Biso   1.000  H
  H200     1.0000 0.96800  0.35970  0.14860  Biso   1.000  H
