data_image0
_cell_length_a       10.0028
_cell_length_b       11.9202
_cell_length_c       14.3524
_cell_angle_alpha    99.776
_cell_angle_beta     102.13
_cell_angle_gamma    110.143

_symmetry_space_group_name_H-M    "P 1"
_symmetry_int_tables_number       1

loop_
  _symmetry_equiv_pos_as_xyz
  'x, y, z'

loop_
  _atom_site_label
  _atom_site_occupancy
  _atom_site_fract_x
  _atom_site_fract_y
  _atom_site_fract_z
  _atom_site_thermal_displace_type
  _atom_site_B_iso_or_equiv
  _atom_site_type_symbol
  Cu1      1.0000 0.47180  0.41687  0.40164  Biso   1.000  Cu
  Cu2      1.0000 0.52820  0.58313  0.59836  Biso   1.000  Cu
  Cu3      1.0000 0.58183  0.69100  0.40371  Biso   1.000  Cu
  Cu4      1.0000 0.41817  0.30900  0.59629  Biso   1.000  Cu
  O1       1.0000 0.10940  0.91900  0.15540  Biso   1.000  O
  O2       1.0000 0.89060  0.08100  0.84460  Biso   1.000  O
  O3       1.0000 0.18240  0.86520  0.88180  Biso   1.000  O
  O4       1.0000 0.81760  0.13480  0.11820  Biso   1.000  O
  O5       1.0000 0.72210  0.60470  0.42850  Biso   1.000  O
  O6       1.0000 0.27790  0.39530  0.57150  Biso   1.000  O
  O7       1.0000 0.77380  0.72640  0.57630  Biso   1.000  O
  O8       1.0000 0.22620  0.27360  0.42370  Biso   1.000  O
  O9       1.0000 0.47060  0.79810  0.40650  Biso   1.000  O
  O10      1.0000 0.52940  0.20190  0.59350  Biso   1.000  O
  O11      1.0000 0.25160  0.65450  0.39850  Biso   1.000  O
  O12      1.0000 0.74840  0.34550  0.60150  Biso   1.000  O
  O13      1.0000 0.34940  0.39140  0.26910  Biso   1.000  O
  O14      1.0000 0.65060  0.60860  0.73090  Biso   1.000  O
  O15      1.0000 0.45670  0.57710  0.24630  Biso   1.000  O
  O16      1.0000 0.54330  0.42290  0.75370  Biso   1.000  O
  O17      1.0000 0.45180  0.57050  0.45774  Biso   1.000  O
  O18      1.0000 0.54820  0.42950  0.54226  Biso   1.000  O
  N1       1.0000 0.73390  0.80880  0.35980  Biso   1.000  N
  N2       1.0000 0.26610  0.19120  0.64020  Biso   1.000  N
  N3       1.0000 0.07090  0.04830  0.27360  Biso   1.000  N
  N4       1.0000 0.92910  0.95170  0.72640  Biso   1.000  N
  H1       1.0000 0.10610  0.12410  0.30770  Biso   1.000  H
  H2       1.0000 0.89390  0.87590  0.69230  Biso   1.000  H
  N5       1.0000 0.21320  0.12490  0.17510  Biso   1.000  N
  N6       1.0000 0.78680  0.87510  0.82490  Biso   1.000  N
  H3       1.0000 0.21820  0.19650  0.20340  Biso   1.000  H
  H4       1.0000 0.78180  0.80350  0.79660  Biso   1.000  H
  N7       1.0000 0.28230  0.07470  0.92850  Biso   1.000  N
  N8       1.0000 0.71770  0.92530  0.07150  Biso   1.000  N
  H5       1.0000 0.34450  0.14100  0.92110  Biso   1.000  H
  H6       1.0000 0.65550  0.85900  0.07890  Biso   1.000  H
  N9       1.0000 0.34910  0.97500  0.80940  Biso   1.000  N
  N10      1.0000 0.65090  0.02500  0.19060  Biso   1.000  N
  H7       1.0000 0.39350  0.04830  0.80370  Biso   1.000  H
  H8       1.0000 0.60650  0.95170  0.19630  Biso   1.000  H
  N11      1.0000 0.44890  0.70500  0.64790  Biso   1.000  N
  N12      1.0000 0.55110  0.29500  0.35210  Biso   1.000  N
  C1       1.0000 0.79790  0.93070  0.40140  Biso   1.000  C
  C2       1.0000 0.20210  0.06930  0.59860  Biso   1.000  C
  H9       1.0000 0.76430  0.96350  0.45090  Biso   1.000  H
  H10      1.0000 0.23570  0.03650  0.54910  Biso   1.000  H
  C3       1.0000 0.90990  0.00940  0.37500  Biso   1.000  C
  C4       1.0000 0.09010  0.99060  0.62500  Biso   1.000  C
  H11      1.0000 0.95150  0.09350  0.40720  Biso   1.000  H
  H12      1.0000 0.04850  0.90650  0.59280  Biso   1.000  H
  C5       1.0000 0.96270  0.96570  0.30040  Biso   1.000  C
  C6       1.0000 0.03730  0.03430  0.69960  Biso   1.000  C
  C7       1.0000 0.89700  0.83920  0.25720  Biso   1.000  C
  C8       1.0000 0.10300  0.16080  0.74280  Biso   1.000  C
  H13      1.0000 0.92810  0.80370  0.20750  Biso   1.000  H
  H14      1.0000 0.07190  0.19630  0.79250  Biso   1.000  H
  C9       1.0000 0.78550  0.76730  0.28890  Biso   1.000  C
  C10      1.0000 0.21450  0.23270  0.71110  Biso   1.000  C
  H15      1.0000 0.74230  0.68270  0.25850  Biso   1.000  H
  H16      1.0000 0.25770  0.31730  0.74150  Biso   1.000  H
  C11      1.0000 0.13030  0.02370  0.19790  Biso   1.000  C
  C12      1.0000 0.86970  0.97630  0.80210  Biso   1.000  C
  C13      1.0000 0.29420  0.11470  0.10340  Biso   1.000  C
  C14      1.0000 0.70580  0.88530  0.89660  Biso   1.000  C
  H17      1.0000 0.33120  0.05020  0.10970  Biso   1.000  H
  H18      1.0000 0.66880  0.94980  0.89030  Biso   1.000  H
  H19      1.0000 0.37930  0.19210  0.11740  Biso   1.000  H
  H20      1.0000 0.62070  0.80790  0.88260  Biso   1.000  H
  C15      1.0000 0.19890  0.08490  0.99890  Biso   1.000  C
  C16      1.0000 0.80110  0.91510  0.00110  Biso   1.000  C
  H21      1.0000 0.11370  0.00740  0.98450  Biso   1.000  H
  H22      1.0000 0.88630  0.99260  0.01550  Biso   1.000  H
  H23      1.0000 0.16220  0.14940  0.99210  Biso   1.000  H
  H24      1.0000 0.83780  0.85060  0.00790  Biso   1.000  H
  C17      1.0000 0.26450  0.96480  0.87510  Biso   1.000  C
  C18      1.0000 0.73550  0.03520  0.12490  Biso   1.000  C
  C19      1.0000 0.37040  0.88010  0.75190  Biso   1.000  C
  C20      1.0000 0.62960  0.11990  0.24810  Biso   1.000  C
  C21      1.0000 0.46310  0.91140  0.69210  Biso   1.000  C
  C22      1.0000 0.53690  0.08860  0.30790  Biso   1.000  C
  H25      1.0000 0.49960  0.99180  0.68560  Biso   1.000  H
  H26      1.0000 0.50040  0.00820  0.31440  Biso   1.000  H
  C23      1.0000 0.50010  0.82330  0.64330  Biso   1.000  C
  C24      1.0000 0.49990  0.17670  0.35670  Biso   1.000  C
  H27      1.0000 0.56390  0.84630  0.60490  Biso   1.000  H
  H28      1.0000 0.43610  0.15370  0.39510  Biso   1.000  H
  C25      1.0000 0.35330  0.67370  0.70040  Biso   1.000  C
  C26      1.0000 0.64670  0.32630  0.29960  Biso   1.000  C
  H29      1.0000 0.31380  0.59140  0.70230  Biso   1.000  H
  H30      1.0000 0.68620  0.40860  0.29770  Biso   1.000  H
  C27      1.0000 0.30950  0.75650  0.75230  Biso   1.000  C
  C28      1.0000 0.69050  0.24350  0.24770  Biso   1.000  C
  H31      1.0000 0.24080  0.73010  0.78680  Biso   1.000  H
  H32      1.0000 0.75920  0.26990  0.21320  Biso   1.000  H
  C29      1.0000 0.80160  0.65320  0.51820  Biso   1.000  C
  C30      1.0000 0.19840  0.34680  0.48180  Biso   1.000  C
  C31      1.0000 0.93050  0.62120  0.55160  Biso   1.000  C
  C32      1.0000 0.06950  0.37880  0.44840  Biso   1.000  C
  H33      1.0000 0.98720  0.62970  0.50490  Biso   1.000  H
  H34      1.0000 0.01280  0.37030  0.49510  Biso   1.000  H
  H35      1.0000 0.89610  0.53720  0.55630  Biso   1.000  H
  H36      1.0000 0.10390  0.46280  0.44370  Biso   1.000  H
  H37      1.0000 0.99220  0.67570  0.61510  Biso   1.000  H
  H38      1.0000 0.00780  0.32430  0.38490  Biso   1.000  H
  C33      1.0000 0.33160  0.75930  0.39910  Biso   1.000  C
  C34      1.0000 0.66840  0.24070  0.60090  Biso   1.000  C
  C35      1.0000 0.26550  0.85500  0.39390  Biso   1.000  C
  C36      1.0000 0.73450  0.14500  0.60610  Biso   1.000  C
  H39      1.0000 0.24320  0.86270  0.32750  Biso   1.000  H
  H40      1.0000 0.75680  0.13730  0.67250  Biso   1.000  H
  H41      1.0000 0.33550  0.93340  0.43760  Biso   1.000  H
  H42      1.0000 0.66450  0.06660  0.56240  Biso   1.000  H
  H43      1.0000 0.17580  0.82990  0.41340  Biso   1.000  H
  H44      1.0000 0.82420  0.17010  0.58660  Biso   1.000  H
  C37      1.0000 0.35790  0.47340  0.22170  Biso   1.000  C
  C38      1.0000 0.64210  0.52660  0.77830  Biso   1.000  C
  C39      1.0000 0.23260  0.43710  0.12950  Biso   1.000  C
  C40      1.0000 0.76740  0.56290  0.87050  Biso   1.000  C
  H45      1.0000 0.18560  0.49490  0.13390  Biso   1.000  H
  H46      1.0000 0.81440  0.50510  0.86610  Biso   1.000  H
  H47      1.0000 0.16120  0.35550  0.12210  Biso   1.000  H
  H48      1.0000 0.83880  0.64450  0.87790  Biso   1.000  H
  H49      1.0000 0.27080  0.43750  0.07350  Biso   1.000  H
  H50      1.0000 0.72920  0.56250  0.92650  Biso   1.000  H
  H51      1.0000 0.36600  0.57300  0.44600  Biso   1.000  H
  H52      1.0000 0.63400  0.42700  0.55400  Biso   1.000  H
  O19      1.0000 0.20290  0.76040  0.04560  Biso   1.000  O
  O20      1.0000 0.79710  0.23960  0.95440  Biso   1.000  O
  H53      1.0000 0.18600  0.79300  0.99200  Biso   1.000  H
  H54      1.0000 0.81400  0.20700  0.00800  Biso   1.000  H
  H55      1.0000 0.18900  0.69000  0.00600  Biso   1.000  H
  H56      1.0000 0.81100  0.31000  0.99400  Biso   1.000  H
  O21      1.0000 0.47820  0.76600  0.14100  Biso   1.000  O
  O22      1.0000 0.52180  0.23400  0.85900  Biso   1.000  O
  H57      1.0000 0.46200  0.70200  0.16500  Biso   1.000  H
  H58      1.0000 0.53800  0.29800  0.83500  Biso   1.000  H
  H59      1.0000 0.38700  0.74300  0.10500  Biso   1.000  H
  H60      1.0000 0.61300  0.25700  0.89500  Biso   1.000  H
