data_image0
_cell_length_a       7.2854
_cell_length_b       13.724
_cell_length_c       14.683
_cell_angle_alpha    90
_cell_angle_beta     90
_cell_angle_gamma    90

_symmetry_space_group_name_H-M    "P 1"
_symmetry_int_tables_number       1

loop_
  _symmetry_equiv_pos_as_xyz
  'x, y, z'

loop_
  _atom_site_label
  _atom_site_occupancy
  _atom_site_fract_x
  _atom_site_fract_y
  _atom_site_fract_z
  _atom_site_thermal_displace_type
  _atom_site_B_iso_or_equiv
  _atom_site_type_symbol
  Cu1      1.0000 0.02595  0.68212  0.46179  Biso   1.000  Cu
  Cu2      1.0000 0.47405  0.31787  0.96179  Biso   1.000  Cu
  Cu3      1.0000 0.97405  0.18213  0.03821  Biso   1.000  Cu
  Cu4      1.0000 0.52595  0.81787  0.53821  Biso   1.000  Cu
  Cu5      1.0000 0.97405  0.31787  0.53821  Biso   1.000  Cu
  Cu6      1.0000 0.52595  0.68212  0.03821  Biso   1.000  Cu
  Cu7      1.0000 0.02595  0.81787  0.96179  Biso   1.000  Cu
  Cu8      1.0000 0.47405  0.18213  0.46179  Biso   1.000  Cu
  S1       1.0000 0.04456  0.85599  0.58350  Biso   1.000  S
  S2       1.0000 0.45544  0.14401  0.08350  Biso   1.000  S
  S3       1.0000 0.95544  0.35599  0.91650  Biso   1.000  S
  S4       1.0000 0.54456  0.64401  0.41650  Biso   1.000  S
  S5       1.0000 0.95544  0.14401  0.41650  Biso   1.000  S
  S6       1.0000 0.54456  0.85599  0.91650  Biso   1.000  S
  S7       1.0000 0.04456  0.64401  0.08350  Biso   1.000  S
  S8       1.0000 0.45544  0.35599  0.58350  Biso   1.000  S
  N1       1.0000 0.05200  0.75838  0.83885  Biso   1.000  N
  N2       1.0000 0.44800  0.24162  0.33885  Biso   1.000  N
  N3       1.0000 0.94800  0.25838  0.66115  Biso   1.000  N
  N4       1.0000 0.55200  0.74162  0.16115  Biso   1.000  N
  N5       1.0000 0.94800  0.24162  0.16115  Biso   1.000  N
  N6       1.0000 0.55200  0.75838  0.66115  Biso   1.000  N
  N7       1.0000 0.05200  0.74162  0.33885  Biso   1.000  N
  N8       1.0000 0.44800  0.25838  0.83885  Biso   1.000  N
  O1       1.0000 0.93010  0.80527  0.51463  Biso   1.000  O
  O2       1.0000 0.56990  0.19473  0.01463  Biso   1.000  O
  O3       1.0000 0.06990  0.30527  0.98537  Biso   1.000  O
  O4       1.0000 0.43010  0.69473  0.48537  Biso   1.000  O
  O5       1.0000 0.06990  0.19473  0.48537  Biso   1.000  O
  O6       1.0000 0.43010  0.80527  0.98537  Biso   1.000  O
  O7       1.0000 0.93010  0.69473  0.01463  Biso   1.000  O
  O8       1.0000 0.56990  0.30527  0.51463  Biso   1.000  O
  O9       1.0000 0.22950  0.87086  0.55048  Biso   1.000  O
  O10      1.0000 0.27050  0.12914  0.05048  Biso   1.000  O
  O11      1.0000 0.77050  0.37086  0.94952  Biso   1.000  O
  O12      1.0000 0.72950  0.62914  0.44952  Biso   1.000  O
  O13      1.0000 0.77050  0.12914  0.44952  Biso   1.000  O
  O14      1.0000 0.72950  0.87086  0.94952  Biso   1.000  O
  O15      1.0000 0.22950  0.62914  0.05048  Biso   1.000  O
  O16      1.0000 0.27050  0.37086  0.55048  Biso   1.000  O
  O17      1.0000 0.95670  0.94411  0.61481  Biso   1.000  O
  O18      1.0000 0.54330  0.05589  0.11481  Biso   1.000  O
  O19      1.0000 0.04330  0.44411  0.88519  Biso   1.000  O
  O20      1.0000 0.45670  0.55589  0.38519  Biso   1.000  O
  O21      1.0000 0.04330  0.05589  0.38519  Biso   1.000  O
  O22      1.0000 0.45670  0.94411  0.88519  Biso   1.000  O
  O23      1.0000 0.95670  0.55589  0.11481  Biso   1.000  O
  O24      1.0000 0.54330  0.44411  0.61481  Biso   1.000  O
  O25      1.0000 0.06090  0.62982  0.58319  Biso   1.000  O
  O26      1.0000 0.43910  0.37018  0.08319  Biso   1.000  O
  O27      1.0000 0.93910  0.12982  0.91681  Biso   1.000  O
  O28      1.0000 0.56090  0.87018  0.41681  Biso   1.000  O
  O29      1.0000 0.93910  0.37018  0.41681  Biso   1.000  O
  O30      1.0000 0.56090  0.62982  0.91681  Biso   1.000  O
  O31      1.0000 0.06090  0.87018  0.08319  Biso   1.000  O
  O32      1.0000 0.43910  0.12982  0.58319  Biso   1.000  O
  O33      1.0000 0.09060  0.55153  0.41312  Biso   1.000  O
  O34      1.0000 0.40940  0.44847  0.91312  Biso   1.000  O
  O35      1.0000 0.90940  0.05153  0.08688  Biso   1.000  O
  O36      1.0000 0.59060  0.94847  0.58688  Biso   1.000  O
  O37      1.0000 0.90940  0.44847  0.58688  Biso   1.000  O
  O38      1.0000 0.59060  0.55153  0.08688  Biso   1.000  O
  O39      1.0000 0.09060  0.94847  0.91312  Biso   1.000  O
  O40      1.0000 0.40940  0.05153  0.41312  Biso   1.000  O
  H1       1.0000 0.02700  0.50300  0.41800  Biso   1.000  H
  H2       1.0000 0.47300  0.49700  0.91800  Biso   1.000  H
  H3       1.0000 0.97300  0.00300  0.08200  Biso   1.000  H
  H4       1.0000 0.52700  0.99700  0.58200  Biso   1.000  H
  H5       1.0000 0.97300  0.49700  0.58200  Biso   1.000  H
  H6       1.0000 0.52700  0.50300  0.08200  Biso   1.000  H
  H7       1.0000 0.02700  0.99700  0.91800  Biso   1.000  H
  H8       1.0000 0.47300  0.00300  0.41800  Biso   1.000  H
  H9       1.0000 0.18700  0.54500  0.41400  Biso   1.000  H
  H10      1.0000 0.31300  0.45500  0.91400  Biso   1.000  H
  H11      1.0000 0.81300  0.04500  0.08600  Biso   1.000  H
  H12      1.0000 0.68700  0.95500  0.58600  Biso   1.000  H
  H13      1.0000 0.81300  0.45500  0.58600  Biso   1.000  H
  H14      1.0000 0.68700  0.54500  0.08600  Biso   1.000  H
  H15      1.0000 0.18700  0.95500  0.91400  Biso   1.000  H
  H16      1.0000 0.31300  0.04500  0.41400  Biso   1.000  H
  C1       1.0000 0.05280  0.77474  0.67590  Biso   1.000  C
  C2       1.0000 0.44720  0.22526  0.17590  Biso   1.000  C
  C3       1.0000 0.94720  0.27474  0.82410  Biso   1.000  C
  C4       1.0000 0.55280  0.72526  0.32410  Biso   1.000  C
  C5       1.0000 0.94720  0.22526  0.32410  Biso   1.000  C
  C6       1.0000 0.55280  0.77474  0.82410  Biso   1.000  C
  C7       1.0000 0.05280  0.72526  0.17590  Biso   1.000  C
  C8       1.0000 0.44720  0.27474  0.67590  Biso   1.000  C
  C9       1.0000 0.06410  0.67258  0.66177  Biso   1.000  C
  C10      1.0000 0.43590  0.32742  0.16177  Biso   1.000  C
  C11      1.0000 0.93590  0.17258  0.83823  Biso   1.000  C
  C12      1.0000 0.56410  0.82742  0.33823  Biso   1.000  C
  C13      1.0000 0.93590  0.32742  0.33823  Biso   1.000  C
  C14      1.0000 0.56410  0.67258  0.83823  Biso   1.000  C
  C15      1.0000 0.06410  0.82742  0.16177  Biso   1.000  C
  C16      1.0000 0.43590  0.17258  0.66177  Biso   1.000  C
  C17      1.0000 0.07900  0.61782  0.74257  Biso   1.000  C
  C18      1.0000 0.42100  0.38218  0.24257  Biso   1.000  C
  C19      1.0000 0.92100  0.11782  0.75743  Biso   1.000  C
  C20      1.0000 0.57900  0.88218  0.25743  Biso   1.000  C
  C21      1.0000 0.92100  0.38218  0.25743  Biso   1.000  C
  C22      1.0000 0.57900  0.61782  0.75743  Biso   1.000  C
  C23      1.0000 0.07900  0.88218  0.24257  Biso   1.000  C
  C24      1.0000 0.42100  0.11782  0.74257  Biso   1.000  C
  H17      1.0000 0.09800  0.55020  0.74400  Biso   1.000  H
  H18      1.0000 0.40200  0.44980  0.24400  Biso   1.000  H
  H19      1.0000 0.90200  0.05020  0.75600  Biso   1.000  H
  H20      1.0000 0.59800  0.94980  0.25600  Biso   1.000  H
  H21      1.0000 0.90200  0.44980  0.25600  Biso   1.000  H
  H22      1.0000 0.59800  0.55020  0.75600  Biso   1.000  H
  H23      1.0000 0.09800  0.94980  0.24400  Biso   1.000  H
  H24      1.0000 0.40200  0.05020  0.74400  Biso   1.000  H
  C25      1.0000 0.07080  0.66129  0.82612  Biso   1.000  C
  C26      1.0000 0.42920  0.33871  0.32612  Biso   1.000  C
  C27      1.0000 0.92920  0.16129  0.67388  Biso   1.000  C
  C28      1.0000 0.57080  0.83871  0.17388  Biso   1.000  C
  C29      1.0000 0.92920  0.33871  0.17388  Biso   1.000  C
  C30      1.0000 0.57080  0.66129  0.67388  Biso   1.000  C
  C31      1.0000 0.07080  0.83871  0.32612  Biso   1.000  C
  C32      1.0000 0.42920  0.16129  0.82612  Biso   1.000  C
  H25      1.0000 0.07800  0.62400  0.87200  Biso   1.000  H
  H26      1.0000 0.42200  0.37600  0.37200  Biso   1.000  H
  H27      1.0000 0.92200  0.12400  0.62800  Biso   1.000  H
  H28      1.0000 0.57800  0.87600  0.12800  Biso   1.000  H
  H29      1.0000 0.92200  0.37600  0.12800  Biso   1.000  H
  H30      1.0000 0.57800  0.62400  0.62800  Biso   1.000  H
  H31      1.0000 0.07800  0.87600  0.37200  Biso   1.000  H
  H32      1.0000 0.42200  0.12400  0.87200  Biso   1.000  H
  C33      1.0000 0.04500  0.81288  0.76258  Biso   1.000  C
  C34      1.0000 0.45500  0.18712  0.26258  Biso   1.000  C
  C35      1.0000 0.95500  0.31288  0.73742  Biso   1.000  C
  C36      1.0000 0.54500  0.68712  0.23742  Biso   1.000  C
  C37      1.0000 0.95500  0.18712  0.23742  Biso   1.000  C
  C38      1.0000 0.54500  0.81288  0.73742  Biso   1.000  C
  C39      1.0000 0.04500  0.68712  0.26258  Biso   1.000  C
  C40      1.0000 0.45500  0.31288  0.76258  Biso   1.000  C
  H33      1.0000 0.03200  0.87900  0.77050  Biso   1.000  H
  H34      1.0000 0.46800  0.12100  0.27050  Biso   1.000  H
  H35      1.0000 0.96800  0.37900  0.72950  Biso   1.000  H
  H36      1.0000 0.53200  0.62100  0.22950  Biso   1.000  H
  H37      1.0000 0.96800  0.12100  0.22950  Biso   1.000  H
  H38      1.0000 0.53200  0.87900  0.72950  Biso   1.000  H
  H39      1.0000 0.03200  0.62100  0.27050  Biso   1.000  H
  H40      1.0000 0.46800  0.37900  0.77050  Biso   1.000  H
