data_image0
_cell_length_a       16.7531
_cell_length_b       16.7531
_cell_length_c       10.8111
_cell_angle_alpha    90
_cell_angle_beta     90
_cell_angle_gamma    120

_symmetry_space_group_name_H-M    "P 1"
_symmetry_int_tables_number       1

loop_
  _symmetry_equiv_pos_as_xyz
  'x, y, z'

loop_
  _atom_site_label
  _atom_site_occupancy
  _atom_site_fract_x
  _atom_site_fract_y
  _atom_site_fract_z
  _atom_site_thermal_displace_type
  _atom_site_B_iso_or_equiv
  _atom_site_type_symbol
  O1       1.0000 0.86570  0.00310  0.50000  Biso   1.000  O
  O2       1.0000 0.99690  0.86260  0.50000  Biso   1.000  O
  O3       1.0000 0.13740  0.13430  0.50000  Biso   1.000  O
  O4       1.0000 0.00310  0.13740  0.50000  Biso   1.000  O
  O5       1.0000 0.86260  0.86570  0.50000  Biso   1.000  O
  O6       1.0000 0.13430  0.99690  0.50000  Biso   1.000  O
  O7       1.0000 0.00000  0.00000  0.11260  Biso   1.000  O
  O8       1.0000 0.00000  0.00000  0.88740  Biso   1.000  O
  O9       1.0000 0.00000  0.50000  0.00000  Biso   1.000  O
  O10      1.0000 0.50000  0.50000  0.00000  Biso   1.000  O
  O11      1.0000 0.50000  0.00000  0.00000  Biso   1.000  O
  O12      1.0000 0.66670  0.33330  0.00000  Biso   1.000  O
  O13      1.0000 0.33330  0.66660  0.00000  Biso   1.000  O
  O14      1.0000 0.00000  0.00000  0.33300  Biso   1.000  O
  O15      1.0000 0.00000  0.00000  0.66700  Biso   1.000  O
  O16      1.0000 0.86030  0.49640  0.00000  Biso   1.000  O
  O17      1.0000 0.50360  0.36390  0.00000  Biso   1.000  O
  O18      1.0000 0.63610  0.13970  0.00000  Biso   1.000  O
  O19      1.0000 0.49640  0.63610  0.00000  Biso   1.000  O
  O20      1.0000 0.36390  0.86030  0.00000  Biso   1.000  O
  O21      1.0000 0.13970  0.50360  0.00000  Biso   1.000  O
  H1       1.0000 0.90570  0.48710  0.00000  Biso   1.000  H
  H2       1.0000 0.51290  0.41860  0.00000  Biso   1.000  H
  H3       1.0000 0.58140  0.09430  0.00000  Biso   1.000  H
  H4       1.0000 0.48710  0.58140  0.00000  Biso   1.000  H
  H5       1.0000 0.41860  0.90570  0.00000  Biso   1.000  H
  H6       1.0000 0.09430  0.51290  0.00000  Biso   1.000  H
  C1       1.0000 0.03490  0.36570  0.34060  Biso   1.000  C
  C2       1.0000 0.63430  0.66920  0.34060  Biso   1.000  C
  C3       1.0000 0.33080  0.96510  0.34060  Biso   1.000  C
  C4       1.0000 0.36570  0.33080  0.34060  Biso   1.000  C
  C5       1.0000 0.66920  0.03490  0.34060  Biso   1.000  C
  C6       1.0000 0.96510  0.63430  0.34060  Biso   1.000  C
  C7       1.0000 0.96510  0.63430  0.65940  Biso   1.000  C
  C8       1.0000 0.36570  0.33080  0.65940  Biso   1.000  C
  C9       1.0000 0.66920  0.03490  0.65940  Biso   1.000  C
  C10      1.0000 0.63430  0.66920  0.65940  Biso   1.000  C
  C11      1.0000 0.33080  0.96510  0.65940  Biso   1.000  C
  C12      1.0000 0.03490  0.36570  0.65940  Biso   1.000  C
  C13      1.0000 0.10220  0.46870  0.32150  Biso   1.000  C
  C14      1.0000 0.53130  0.63350  0.32150  Biso   1.000  C
  C15      1.0000 0.36650  0.89780  0.32150  Biso   1.000  C
  C16      1.0000 0.46870  0.36650  0.32150  Biso   1.000  C
  C17      1.0000 0.63350  0.10220  0.32150  Biso   1.000  C
  C18      1.0000 0.89780  0.53130  0.32150  Biso   1.000  C
  C19      1.0000 0.89780  0.53130  0.67850  Biso   1.000  C
  C20      1.0000 0.46870  0.36650  0.67850  Biso   1.000  C
  C21      1.0000 0.63350  0.10220  0.67850  Biso   1.000  C
  C22      1.0000 0.53130  0.63350  0.67850  Biso   1.000  C
  C23      1.0000 0.36650  0.89780  0.67850  Biso   1.000  C
  C24      1.0000 0.10220  0.46870  0.67850  Biso   1.000  C
  H7       1.0000 0.09140  0.48690  0.24090  Biso   1.000  H
  H8       1.0000 0.51310  0.60450  0.24090  Biso   1.000  H
  H9       1.0000 0.39550  0.90860  0.24090  Biso   1.000  H
  H10      1.0000 0.48690  0.39550  0.24090  Biso   1.000  H
  H11      1.0000 0.60450  0.09140  0.24090  Biso   1.000  H
  H12      1.0000 0.90860  0.51310  0.24090  Biso   1.000  H
  H13      1.0000 0.90860  0.51310  0.75910  Biso   1.000  H
  H14      1.0000 0.48690  0.39550  0.75910  Biso   1.000  H
  H15      1.0000 0.60450  0.09140  0.75910  Biso   1.000  H
  H16      1.0000 0.51310  0.60450  0.75910  Biso   1.000  H
  H17      1.0000 0.39550  0.90860  0.75910  Biso   1.000  H
  H18      1.0000 0.09140  0.48690  0.75910  Biso   1.000  H
  H19      1.0000 0.09050  0.50340  0.38350  Biso   1.000  H
  H20      1.0000 0.49660  0.58710  0.38350  Biso   1.000  H
  H21      1.0000 0.41290  0.90950  0.38350  Biso   1.000  H
  H22      1.0000 0.50340  0.41290  0.38350  Biso   1.000  H
  H23      1.0000 0.58710  0.09050  0.38350  Biso   1.000  H
  H24      1.0000 0.90950  0.49660  0.38350  Biso   1.000  H
  H25      1.0000 0.90950  0.49660  0.61650  Biso   1.000  H
  H26      1.0000 0.50340  0.41290  0.61650  Biso   1.000  H
  H27      1.0000 0.58710  0.09050  0.61650  Biso   1.000  H
  H28      1.0000 0.49660  0.58710  0.61650  Biso   1.000  H
  H29      1.0000 0.41290  0.90950  0.61650  Biso   1.000  H
  H30      1.0000 0.09050  0.50340  0.61650  Biso   1.000  H
  C25      1.0000 0.25770  0.57800  0.32630  Biso   1.000  C
  C26      1.0000 0.42200  0.67970  0.32630  Biso   1.000  C
  C27      1.0000 0.32030  0.74230  0.32630  Biso   1.000  C
  C28      1.0000 0.57800  0.32030  0.32630  Biso   1.000  C
  C29      1.0000 0.67970  0.25770  0.32630  Biso   1.000  C
  C30      1.0000 0.74230  0.42200  0.32630  Biso   1.000  C
  C31      1.0000 0.74230  0.42200  0.67370  Biso   1.000  C
  C32      1.0000 0.57800  0.32030  0.67370  Biso   1.000  C
  C33      1.0000 0.67970  0.25770  0.67370  Biso   1.000  C
  C34      1.0000 0.42200  0.67970  0.67370  Biso   1.000  C
  C35      1.0000 0.32030  0.74230  0.67370  Biso   1.000  C
  C36      1.0000 0.25770  0.57800  0.67370  Biso   1.000  C
  C37      1.0000 0.24450  0.65190  0.32590  Biso   1.000  C
  C38      1.0000 0.34810  0.59260  0.32590  Biso   1.000  C
  C39      1.0000 0.40740  0.75550  0.32590  Biso   1.000  C
  C40      1.0000 0.65190  0.40740  0.32590  Biso   1.000  C
  C41      1.0000 0.59260  0.24450  0.32590  Biso   1.000  C
  C42      1.0000 0.75550  0.34810  0.32590  Biso   1.000  C
  C43      1.0000 0.75550  0.34810  0.67410  Biso   1.000  C
  C44      1.0000 0.65190  0.40740  0.67410  Biso   1.000  C
  C45      1.0000 0.59260  0.24450  0.67410  Biso   1.000  C
  C46      1.0000 0.34810  0.59260  0.67410  Biso   1.000  C
  C47      1.0000 0.40740  0.75550  0.67410  Biso   1.000  C
  C48      1.0000 0.24450  0.65190  0.67410  Biso   1.000  C
  H31      1.0000 0.18490  0.64250  0.32540  Biso   1.000  H
  H32      1.0000 0.35750  0.54240  0.32540  Biso   1.000  H
  H33      1.0000 0.45760  0.81510  0.32540  Biso   1.000  H
  H34      1.0000 0.64250  0.45760  0.32540  Biso   1.000  H
  H35      1.0000 0.54240  0.18490  0.32540  Biso   1.000  H
  H36      1.0000 0.81510  0.35750  0.32540  Biso   1.000  H
  H37      1.0000 0.81510  0.35750  0.67460  Biso   1.000  H
  H38      1.0000 0.64250  0.45760  0.67460  Biso   1.000  H
  H39      1.0000 0.54240  0.18490  0.67460  Biso   1.000  H
  H40      1.0000 0.35750  0.54240  0.67460  Biso   1.000  H
  H41      1.0000 0.45760  0.81510  0.67460  Biso   1.000  H
  H42      1.0000 0.18490  0.64250  0.67460  Biso   1.000  H
  C49      1.0000 0.84310  0.11560  0.06800  Biso   1.000  C
  C50      1.0000 0.88440  0.72750  0.06800  Biso   1.000  C
  C51      1.0000 0.27250  0.15690  0.06800  Biso   1.000  C
  C52      1.0000 0.11560  0.27250  0.06800  Biso   1.000  C
  C53      1.0000 0.72750  0.84310  0.06800  Biso   1.000  C
  C54      1.0000 0.15690  0.88440  0.06800  Biso   1.000  C
  C55      1.0000 0.15690  0.88440  0.93200  Biso   1.000  C
  C56      1.0000 0.11560  0.27250  0.93200  Biso   1.000  C
  C57      1.0000 0.72750  0.84310  0.93200  Biso   1.000  C
  C58      1.0000 0.88440  0.72750  0.93200  Biso   1.000  C
  C59      1.0000 0.27250  0.15690  0.93200  Biso   1.000  C
  C60      1.0000 0.84310  0.11560  0.93200  Biso   1.000  C
  H43      1.0000 0.83410  0.06410  0.11200  Biso   1.000  H
  H44      1.0000 0.93590  0.77000  0.11200  Biso   1.000  H
  H45      1.0000 0.23000  0.16590  0.11200  Biso   1.000  H
  H46      1.0000 0.06410  0.23000  0.11200  Biso   1.000  H
  H47      1.0000 0.77000  0.83410  0.11200  Biso   1.000  H
  H48      1.0000 0.16590  0.93590  0.11200  Biso   1.000  H
  H49      1.0000 0.16590  0.93590  0.88800  Biso   1.000  H
  H50      1.0000 0.06410  0.23000  0.88800  Biso   1.000  H
  H51      1.0000 0.77000  0.83410  0.88800  Biso   1.000  H
  H52      1.0000 0.93590  0.77000  0.88800  Biso   1.000  H
  H53      1.0000 0.23000  0.16590  0.88800  Biso   1.000  H
  H54      1.0000 0.83410  0.06410  0.88800  Biso   1.000  H
  C61      1.0000 0.86860  0.26410  0.06450  Biso   1.000  C
  C62      1.0000 0.73590  0.60450  0.06450  Biso   1.000  C
  C63      1.0000 0.39550  0.13140  0.06450  Biso   1.000  C
  C64      1.0000 0.26410  0.39550  0.06450  Biso   1.000  C
  C65      1.0000 0.60450  0.86860  0.06450  Biso   1.000  C
  C66      1.0000 0.13140  0.73590  0.06450  Biso   1.000  C
  C67      1.0000 0.13140  0.73590  0.93550  Biso   1.000  C
  C68      1.0000 0.26410  0.39550  0.93550  Biso   1.000  C
  C69      1.0000 0.60450  0.86860  0.93550  Biso   1.000  C
  C70      1.0000 0.73590  0.60450  0.93550  Biso   1.000  C
  C71      1.0000 0.39550  0.13140  0.93550  Biso   1.000  C
  C72      1.0000 0.86860  0.26410  0.93550  Biso   1.000  C
  H55      1.0000 0.87750  0.31720  0.10400  Biso   1.000  H
  H56      1.0000 0.68280  0.56030  0.10400  Biso   1.000  H
  H57      1.0000 0.43970  0.12250  0.10400  Biso   1.000  H
  H58      1.0000 0.31720  0.43970  0.10400  Biso   1.000  H
  H59      1.0000 0.56030  0.87750  0.10400  Biso   1.000  H
  H60      1.0000 0.12250  0.68280  0.10400  Biso   1.000  H
  H61      1.0000 0.12250  0.68280  0.89600  Biso   1.000  H
  H62      1.0000 0.31720  0.43970  0.89600  Biso   1.000  H
  H63      1.0000 0.56030  0.87750  0.89600  Biso   1.000  H
  H64      1.0000 0.68280  0.56030  0.89600  Biso   1.000  H
  H65      1.0000 0.43970  0.12250  0.89600  Biso   1.000  H
  H66      1.0000 0.87750  0.31720  0.89600  Biso   1.000  H
  N1       1.0000 0.85790  0.18860  0.13120  Biso   1.000  N
  N2       1.0000 0.81140  0.66930  0.13120  Biso   1.000  N
  N3       1.0000 0.33070  0.14210  0.13120  Biso   1.000  N
  N4       1.0000 0.18860  0.33070  0.13120  Biso   1.000  N
  N5       1.0000 0.66930  0.85790  0.13120  Biso   1.000  N
  N6       1.0000 0.14210  0.81140  0.13120  Biso   1.000  N
  N7       1.0000 0.14210  0.81140  0.86880  Biso   1.000  N
  N8       1.0000 0.18860  0.33070  0.86880  Biso   1.000  N
  N9       1.0000 0.66930  0.85790  0.86880  Biso   1.000  N
  N10      1.0000 0.81140  0.66930  0.86880  Biso   1.000  N
  N11      1.0000 0.33070  0.14210  0.86880  Biso   1.000  N
  N12      1.0000 0.85790  0.18860  0.86880  Biso   1.000  N
  O22      1.0000 0.94994  0.34219  0.34250  Biso   1.000  O
  O23      1.0000 0.65781  0.60775  0.34250  Biso   1.000  O
  O24      1.0000 0.39225  0.05006  0.34250  Biso   1.000  O
  O25      1.0000 0.34219  0.39225  0.34250  Biso   1.000  O
  O26      1.0000 0.60775  0.94994  0.34250  Biso   1.000  O
  O27      1.0000 0.05006  0.65781  0.34250  Biso   1.000  O
  O28      1.0000 0.05006  0.65781  0.65750  Biso   1.000  O
  O29      1.0000 0.34219  0.39225  0.65750  Biso   1.000  O
  O30      1.0000 0.60775  0.94994  0.65750  Biso   1.000  O
  O31      1.0000 0.65781  0.60775  0.65750  Biso   1.000  O
  O32      1.0000 0.39225  0.05006  0.65750  Biso   1.000  O
  O33      1.0000 0.94994  0.34219  0.65750  Biso   1.000  O
  O34      1.0000 0.06509  0.31579  0.35080  Biso   1.000  O
  O35      1.0000 0.68421  0.74930  0.35080  Biso   1.000  O
  O36      1.0000 0.25070  0.93491  0.35080  Biso   1.000  O
  O37      1.0000 0.31579  0.25070  0.35080  Biso   1.000  O
  O38      1.0000 0.74930  0.06509  0.35080  Biso   1.000  O
  O39      1.0000 0.93491  0.68421  0.35080  Biso   1.000  O
  O40      1.0000 0.93491  0.68421  0.64920  Biso   1.000  O
  O41      1.0000 0.31579  0.25070  0.64920  Biso   1.000  O
  O42      1.0000 0.74930  0.06509  0.64920  Biso   1.000  O
  O43      1.0000 0.68421  0.74930  0.64920  Biso   1.000  O
  O44      1.0000 0.25070  0.93491  0.64920  Biso   1.000  O
  O45      1.0000 0.06509  0.31579  0.64920  Biso   1.000  O
  O46      1.0000 0.19030  0.48978  0.32910  Biso   1.000  O
  O47      1.0000 0.51022  0.70052  0.32910  Biso   1.000  O
  O48      1.0000 0.29948  0.80970  0.32910  Biso   1.000  O
  O49      1.0000 0.48978  0.29948  0.32910  Biso   1.000  O
  O50      1.0000 0.70052  0.19030  0.32910  Biso   1.000  O
  O51      1.0000 0.80970  0.51022  0.32910  Biso   1.000  O
  O52      1.0000 0.80970  0.51022  0.67090  Biso   1.000  O
  O53      1.0000 0.48978  0.29948  0.67090  Biso   1.000  O
  O54      1.0000 0.70052  0.19030  0.67090  Biso   1.000  O
  O55      1.0000 0.51022  0.70052  0.67090  Biso   1.000  O
  O56      1.0000 0.29948  0.80970  0.67090  Biso   1.000  O
  O57      1.0000 0.19030  0.48978  0.67090  Biso   1.000  O
  O58      1.0000 0.86350  0.20580  0.50000  Biso   1.000  O
  O59      1.0000 0.79420  0.65770  0.50000  Biso   1.000  O
  O60      1.0000 0.34230  0.13650  0.50000  Biso   1.000  O
  O61      1.0000 0.20580  0.34230  0.50000  Biso   1.000  O
  O62      1.0000 0.65770  0.86350  0.50000  Biso   1.000  O
  O63      1.0000 0.13650  0.79420  0.50000  Biso   1.000  O
  Cu1      1.0000 0.85044  0.20332  0.31982  Biso   1.000  Cu
  Cu2      1.0000 0.79668  0.64712  0.31982  Biso   1.000  Cu
  Cu3      1.0000 0.35288  0.14956  0.31982  Biso   1.000  Cu
  Cu4      1.0000 0.20332  0.35288  0.31982  Biso   1.000  Cu
  Cu5      1.0000 0.64712  0.85044  0.31982  Biso   1.000  Cu
  Cu6      1.0000 0.14956  0.79668  0.31982  Biso   1.000  Cu
  Cu7      1.0000 0.14956  0.79668  0.68018  Biso   1.000  Cu
  Cu8      1.0000 0.20332  0.35288  0.68018  Biso   1.000  Cu
  Cu9      1.0000 0.64712  0.85044  0.68018  Biso   1.000  Cu
  Cu10     1.0000 0.79668  0.64712  0.68018  Biso   1.000  Cu
  Cu11     1.0000 0.35288  0.14956  0.68018  Biso   1.000  Cu
  Cu12     1.0000 0.85044  0.20332  0.68018  Biso   1.000  Cu
  H67      1.0000 0.86080  0.18960  0.21070  Biso   1.000  H
  H68      1.0000 0.81040  0.67120  0.21070  Biso   1.000  H
  H69      1.0000 0.32880  0.13920  0.21070  Biso   1.000  H
  H70      1.0000 0.18960  0.32880  0.21070  Biso   1.000  H
  H71      1.0000 0.67120  0.86080  0.21070  Biso   1.000  H
  H72      1.0000 0.13920  0.81040  0.21070  Biso   1.000  H
  H73      1.0000 0.13920  0.81040  0.78930  Biso   1.000  H
  H74      1.0000 0.18960  0.32880  0.78930  Biso   1.000  H
  H75      1.0000 0.67120  0.86080  0.78930  Biso   1.000  H
  H76      1.0000 0.81040  0.67120  0.78930  Biso   1.000  H
  H77      1.0000 0.32880  0.13920  0.78930  Biso   1.000  H
  H78      1.0000 0.86080  0.18960  0.78930  Biso   1.000  H
  H79      1.0000 0.82780  0.16160  0.45300  Biso   1.000  H
  H80      1.0000 0.83840  0.66620  0.45300  Biso   1.000  H
  H81      1.0000 0.33380  0.17220  0.45300  Biso   1.000  H
  H82      1.0000 0.16160  0.33380  0.45300  Biso   1.000  H
  H83      1.0000 0.66620  0.82780  0.45300  Biso   1.000  H
  H84      1.0000 0.17220  0.83840  0.45300  Biso   1.000  H
  H85      1.0000 0.17220  0.83840  0.54700  Biso   1.000  H
  H86      1.0000 0.16160  0.33380  0.54700  Biso   1.000  H
  H87      1.0000 0.66620  0.82780  0.54700  Biso   1.000  H
  H88      1.0000 0.83840  0.66620  0.54700  Biso   1.000  H
  H89      1.0000 0.33380  0.17220  0.54700  Biso   1.000  H
  H90      1.0000 0.82780  0.16160  0.54700  Biso   1.000  H
  H91      1.0000 0.91920  0.22410  0.48040  Biso   1.000  H
  H92      1.0000 0.77590  0.69510  0.48040  Biso   1.000  H
  H93      1.0000 0.30490  0.08080  0.48040  Biso   1.000  H
  H94      1.0000 0.22410  0.30490  0.48040  Biso   1.000  H
  H95      1.0000 0.69510  0.91920  0.48040  Biso   1.000  H
  H96      1.0000 0.08080  0.77590  0.48040  Biso   1.000  H
  H97      1.0000 0.08080  0.77590  0.51960  Biso   1.000  H
  H98      1.0000 0.22410  0.30490  0.51960  Biso   1.000  H
  H99      1.0000 0.69510  0.91920  0.51960  Biso   1.000  H
  H100     1.0000 0.77590  0.69510  0.51960  Biso   1.000  H
  H101     1.0000 0.30490  0.08080  0.51960  Biso   1.000  H
  H102     1.0000 0.91920  0.22410  0.51960  Biso   1.000  H
  H103     1.0000 0.87090  0.98890  0.57380  Biso   1.000  H
  H104     1.0000 0.01110  0.88200  0.57380  Biso   1.000  H
  H105     1.0000 0.11800  0.12910  0.57380  Biso   1.000  H
  H106     1.0000 0.98890  0.11800  0.57380  Biso   1.000  H
  H107     1.0000 0.88200  0.87090  0.57380  Biso   1.000  H
  H108     1.0000 0.12910  0.01110  0.57380  Biso   1.000  H
  H109     1.0000 0.12910  0.01110  0.42620  Biso   1.000  H
  H110     1.0000 0.98890  0.11800  0.42620  Biso   1.000  H
  H111     1.0000 0.88200  0.87090  0.42620  Biso   1.000  H
  H112     1.0000 0.01110  0.88200  0.42620  Biso   1.000  H
  H113     1.0000 0.11800  0.12910  0.42620  Biso   1.000  H
  H114     1.0000 0.87090  0.98890  0.42620  Biso   1.000  H
  H115     1.0000 0.91110  0.00940  0.45730  Biso   1.000  H
  H116     1.0000 0.99060  0.90170  0.45730  Biso   1.000  H
  H117     1.0000 0.09830  0.08890  0.45730  Biso   1.000  H
  H118     1.0000 0.00940  0.09830  0.45730  Biso   1.000  H
  H119     1.0000 0.90170  0.91110  0.45730  Biso   1.000  H
  H120     1.0000 0.08890  0.99060  0.45730  Biso   1.000  H
  H121     1.0000 0.08890  0.99060  0.54270  Biso   1.000  H
  H122     1.0000 0.00940  0.09830  0.54270  Biso   1.000  H
  H123     1.0000 0.90170  0.91110  0.54270  Biso   1.000  H
  H124     1.0000 0.99060  0.90170  0.54270  Biso   1.000  H
  H125     1.0000 0.09830  0.08890  0.54270  Biso   1.000  H
  H126     1.0000 0.91110  0.00940  0.54270  Biso   1.000  H
  H127     1.0000 0.04880  0.00010  0.13440  Biso   1.000  H
  H128     1.0000 0.99990  0.04870  0.13440  Biso   1.000  H
  H129     1.0000 0.95130  0.95120  0.13440  Biso   1.000  H
  H130     1.0000 0.00010  0.95130  0.13440  Biso   1.000  H
  H131     1.0000 0.04870  0.04880  0.13440  Biso   1.000  H
  H132     1.0000 0.95120  0.99990  0.13440  Biso   1.000  H
  H133     1.0000 0.95120  0.99990  0.86560  Biso   1.000  H
  H134     1.0000 0.00010  0.95130  0.86560  Biso   1.000  H
  H135     1.0000 0.04870  0.04880  0.86560  Biso   1.000  H
  H136     1.0000 0.99990  0.04870  0.86560  Biso   1.000  H
  H137     1.0000 0.95130  0.95120  0.86560  Biso   1.000  H
  H138     1.0000 0.04880  0.00010  0.86560  Biso   1.000  H
  H139     1.0000 0.99840  0.04490  0.14660  Biso   1.000  H
  H140     1.0000 0.95510  0.95350  0.14660  Biso   1.000  H
  H141     1.0000 0.04650  0.00160  0.14660  Biso   1.000  H
  H142     1.0000 0.04490  0.04650  0.14660  Biso   1.000  H
  H143     1.0000 0.95350  0.99840  0.14660  Biso   1.000  H
  H144     1.0000 0.00160  0.95510  0.14660  Biso   1.000  H
  H145     1.0000 0.00160  0.95510  0.85340  Biso   1.000  H
  H146     1.0000 0.04490  0.04650  0.85340  Biso   1.000  H
  H147     1.0000 0.95350  0.99840  0.85340  Biso   1.000  H
  H148     1.0000 0.95510  0.95350  0.85340  Biso   1.000  H
  H149     1.0000 0.04650  0.00160  0.85340  Biso   1.000  H
  H150     1.0000 0.99840  0.04490  0.85340  Biso   1.000  H
  H151     1.0000 0.03010  0.47640  0.96890  Biso   1.000  H
  H152     1.0000 0.52360  0.55370  0.96890  Biso   1.000  H
  H153     1.0000 0.44630  0.96990  0.96890  Biso   1.000  H
  H154     1.0000 0.47640  0.44630  0.96890  Biso   1.000  H
  H155     1.0000 0.55370  0.03010  0.96890  Biso   1.000  H
  H156     1.0000 0.96990  0.52360  0.96890  Biso   1.000  H
  H157     1.0000 0.96990  0.52360  0.03110  Biso   1.000  H
  H158     1.0000 0.47640  0.44630  0.03110  Biso   1.000  H
  H159     1.0000 0.55370  0.03010  0.03110  Biso   1.000  H
  H160     1.0000 0.52360  0.55370  0.03110  Biso   1.000  H
  H161     1.0000 0.44630  0.96990  0.03110  Biso   1.000  H
  H162     1.0000 0.03010  0.47640  0.03110  Biso   1.000  H
  H163     1.0000 0.97910  0.47510  0.07000  Biso   1.000  H
  H164     1.0000 0.52490  0.50400  0.07000  Biso   1.000  H
  H165     1.0000 0.49600  0.02090  0.07000  Biso   1.000  H
  H166     1.0000 0.47510  0.49600  0.07000  Biso   1.000  H
  H167     1.0000 0.50400  0.97910  0.07000  Biso   1.000  H
  H168     1.0000 0.02090  0.52490  0.07000  Biso   1.000  H
  H169     1.0000 0.02090  0.52490  0.93000  Biso   1.000  H
  H170     1.0000 0.47510  0.49600  0.93000  Biso   1.000  H
  H171     1.0000 0.50400  0.97910  0.93000  Biso   1.000  H
  H172     1.0000 0.52490  0.50400  0.93000  Biso   1.000  H
  H173     1.0000 0.49600  0.02090  0.93000  Biso   1.000  H
  H174     1.0000 0.97910  0.47510  0.93000  Biso   1.000  H
  H175     1.0000 0.66730  0.29300  0.04710  Biso   1.000  H
  H176     1.0000 0.70700  0.37430  0.04710  Biso   1.000  H
  H177     1.0000 0.62570  0.33270  0.04710  Biso   1.000  H
  H178     1.0000 0.29300  0.62570  0.04710  Biso   1.000  H
  H179     1.0000 0.37430  0.66730  0.04710  Biso   1.000  H
  H180     1.0000 0.33270  0.70700  0.04710  Biso   1.000  H
  H181     1.0000 0.33270  0.70700  0.95290  Biso   1.000  H
  H182     1.0000 0.29300  0.62570  0.95290  Biso   1.000  H
  H183     1.0000 0.37430  0.66730  0.95290  Biso   1.000  H
  H184     1.0000 0.70700  0.37430  0.95290  Biso   1.000  H
  H185     1.0000 0.62570  0.33270  0.95290  Biso   1.000  H
  H186     1.0000 0.66730  0.29300  0.95290  Biso   1.000  H
  H187     1.0000 0.61180  0.31560  0.97710  Biso   1.000  H
  H188     1.0000 0.68440  0.29620  0.97710  Biso   1.000  H
  H189     1.0000 0.70380  0.38820  0.97710  Biso   1.000  H
  H190     1.0000 0.31560  0.70380  0.97710  Biso   1.000  H
  H191     1.0000 0.29620  0.61180  0.97710  Biso   1.000  H
  H192     1.0000 0.38820  0.68440  0.97710  Biso   1.000  H
  H193     1.0000 0.38820  0.68440  0.02290  Biso   1.000  H
  H194     1.0000 0.31560  0.70380  0.02290  Biso   1.000  H
  H195     1.0000 0.29620  0.61180  0.02290  Biso   1.000  H
  H196     1.0000 0.68440  0.29620  0.02290  Biso   1.000  H
  H197     1.0000 0.70380  0.38820  0.02290  Biso   1.000  H
  H198     1.0000 0.61180  0.31560  0.02290  Biso   1.000  H
  H199     1.0000 0.05200  0.00270  0.33360  Biso   1.000  H
  H200     1.0000 0.99730  0.04930  0.33360  Biso   1.000  H
  H201     1.0000 0.95070  0.94800  0.33360  Biso   1.000  H
  H202     1.0000 0.00270  0.95070  0.33360  Biso   1.000  H
  H203     1.0000 0.04930  0.05200  0.33360  Biso   1.000  H
  H204     1.0000 0.94800  0.99730  0.33360  Biso   1.000  H
  H205     1.0000 0.94800  0.99730  0.66640  Biso   1.000  H
  H206     1.0000 0.00270  0.95070  0.66640  Biso   1.000  H
  H207     1.0000 0.04930  0.05200  0.66640  Biso   1.000  H
  H208     1.0000 0.99730  0.04930  0.66640  Biso   1.000  H
  H209     1.0000 0.95070  0.94800  0.66640  Biso   1.000  H
  H210     1.0000 0.05200  0.00270  0.66640  Biso   1.000  H
  H211     1.0000 0.95760  0.94480  0.34630  Biso   1.000  H
  H212     1.0000 0.05520  0.01280  0.34630  Biso   1.000  H
  H213     1.0000 0.98720  0.04240  0.34630  Biso   1.000  H
  H214     1.0000 0.94480  0.98720  0.34630  Biso   1.000  H
  H215     1.0000 0.01280  0.95760  0.34630  Biso   1.000  H
  H216     1.0000 0.04240  0.05520  0.34630  Biso   1.000  H
  H217     1.0000 0.04240  0.05520  0.65370  Biso   1.000  H
  H218     1.0000 0.94480  0.98720  0.65370  Biso   1.000  H
  H219     1.0000 0.01280  0.95760  0.65370  Biso   1.000  H
  H220     1.0000 0.05520  0.01280  0.65370  Biso   1.000  H
  H221     1.0000 0.98720  0.04240  0.65370  Biso   1.000  H
  H222     1.0000 0.95760  0.94480  0.65370  Biso   1.000  H
  H223     1.0000 0.81070  0.44470  0.00000  Biso   1.000  H
  H224     1.0000 0.55530  0.36600  0.00000  Biso   1.000  H
  H225     1.0000 0.63400  0.18930  0.00000  Biso   1.000  H
  H226     1.0000 0.44470  0.63400  0.00000  Biso   1.000  H
  H227     1.0000 0.36600  0.81070  0.00000  Biso   1.000  H
  H228     1.0000 0.18930  0.55530  0.00000  Biso   1.000  H
