data_image0
_cell_length_a       11.2063
_cell_length_b       7.0437
_cell_length_c       12.4718
_cell_angle_alpha    90
_cell_angle_beta     99.431
_cell_angle_gamma    90

_symmetry_space_group_name_H-M    "P 1"
_symmetry_int_tables_number       1

loop_
  _symmetry_equiv_pos_as_xyz
  'x, y, z'

loop_
  _atom_site_label
  _atom_site_occupancy
  _atom_site_fract_x
  _atom_site_fract_y
  _atom_site_fract_z
  _atom_site_thermal_displace_type
  _atom_site_B_iso_or_equiv
  _atom_site_type_symbol
  Cu1      1.0000 0.53641  0.58767  0.16991  Biso   1.000  Cu
  Cu2      1.0000 0.46359  0.08767  0.83009  Biso   1.000  Cu
  N1       1.0000 0.60720  0.58520  0.33170  Biso   1.000  N
  N2       1.0000 0.39280  0.08520  0.66830  Biso   1.000  N
  N3       1.0000 0.38250  0.55460  0.22850  Biso   1.000  N
  N4       1.0000 0.61750  0.05460  0.77150  Biso   1.000  N
  C1       1.0000 0.72020  0.58660  0.38190  Biso   1.000  C
  C2       1.0000 0.27980  0.08660  0.61810  Biso   1.000  C
  H1       1.0000 0.78140  0.59540  0.34010  Biso   1.000  H
  H2       1.0000 0.21860  0.09540  0.65990  Biso   1.000  H
  C3       1.0000 0.39640  0.56260  0.33860  Biso   1.000  C
  C4       1.0000 0.60360  0.06260  0.66140  Biso   1.000  C
  C5       1.0000 0.51910  0.57010  0.39490  Biso   1.000  C
  C6       1.0000 0.48090  0.07010  0.60510  Biso   1.000  C
  N5       1.0000 0.68810  0.62550  0.11290  Biso   1.000  N
  N6       1.0000 0.31190  0.12550  0.88710  Biso   1.000  N
  C7       1.0000 0.67200  0.58230  0.99470  Biso   1.000  C
  C8       1.0000 0.32800  0.08230  0.00530  Biso   1.000  C
  H3       1.0000 0.65890  0.70300  0.95550  Biso   1.000  H
  H4       1.0000 0.34110  0.20300  0.04450  Biso   1.000  H
  C9       1.0000 0.44310  0.56530  0.56650  Biso   1.000  C
  C10      1.0000 0.55690  0.06530  0.43350  Biso   1.000  C
  H5       1.0000 0.45770  0.56370  0.64210  Biso   1.000  H
  H6       1.0000 0.54230  0.06370  0.35790  Biso   1.000  H
  C11      1.0000 0.54350  0.56910  0.50890  Biso   1.000  C
  C12      1.0000 0.45650  0.06910  0.49110  Biso   1.000  C
  C13      1.0000 0.30090  0.55960  0.39670  Biso   1.000  C
  C14      1.0000 0.69910  0.05960  0.60330  Biso   1.000  C
  C15      1.0000 0.75260  0.57550  0.49450  Biso   1.000  C
  C16      1.0000 0.24740  0.07550  0.50550  Biso   1.000  C
  H7       1.0000 0.83400  0.57180  0.52510  Biso   1.000  H
  H8       1.0000 0.16600  0.07180  0.47490  Biso   1.000  H
  C17      1.0000 0.27030  0.54690  0.17370  Biso   1.000  C
  C18      1.0000 0.72970  0.04690  0.82630  Biso   1.000  C
  H9       1.0000 0.25940  0.54170  0.09820  Biso   1.000  H
  H10      1.0000 0.74060  0.04170  0.90180  Biso   1.000  H
  C19      1.0000 0.66660  0.57000  0.56070  Biso   1.000  C
  C20      1.0000 0.33340  0.07000  0.43930  Biso   1.000  C
  C21      1.0000 0.17060  0.54620  0.22310  Biso   1.000  C
  C22      1.0000 0.82940  0.04620  0.77690  Biso   1.000  C
  H11      1.0000 0.09430  0.53940  0.18060  Biso   1.000  H
  H12      1.0000 0.90570  0.03940  0.81940  Biso   1.000  H
  C23      1.0000 0.70020  0.56100  0.68260  Biso   1.000  C
  C24      1.0000 0.29980  0.06100  0.31740  Biso   1.000  C
  H13      1.0000 0.62800  0.55740  0.71470  Biso   1.000  H
  H14      1.0000 0.37200  0.05740  0.28530  Biso   1.000  H
  H15      1.0000 0.74690  0.67110  0.70810  Biso   1.000  H
  H16      1.0000 0.25310  0.17110  0.29190  Biso   1.000  H
  H17      1.0000 0.74720  0.44870  0.70260  Biso   1.000  H
  H18      1.0000 0.25280  0.94870  0.29740  Biso   1.000  H
  C25      1.0000 0.32440  0.56400  0.51270  Biso   1.000  C
  C26      1.0000 0.67560  0.06400  0.48730  Biso   1.000  C
  H19      1.0000 0.26070  0.56600  0.55190  Biso   1.000  H
  H20      1.0000 0.73930  0.06600  0.44810  Biso   1.000  H
  C27      1.0000 0.17980  0.55550  0.33510  Biso   1.000  C
  C28      1.0000 0.82020  0.05550  0.66490  Biso   1.000  C
  C29      1.0000 0.07070  0.55750  0.39090  Biso   1.000  C
  C30      1.0000 0.92930  0.05750  0.60910  Biso   1.000  C
  H21      1.0000 0.09620  0.56530  0.46810  Biso   1.000  H
  H22      1.0000 0.90380  0.06530  0.53190  Biso   1.000  H
  H23      1.0000 0.02490  0.44320  0.37370  Biso   1.000  H
  H24      1.0000 0.97510  0.94320  0.62630  Biso   1.000  H
  H25      1.0000 0.02120  0.66540  0.36660  Biso   1.000  H
  H26      1.0000 0.97880  0.16540  0.63340  Biso   1.000  H
  O1       1.0000 0.48310  0.45740  0.03140  Biso   1.000  O
  O2       1.0000 0.51690  0.95740  0.96860  Biso   1.000  O
  C31      1.0000 0.78520  0.49690  0.96750  Biso   1.000  C
  C32      1.0000 0.21480  0.99690  0.03250  Biso   1.000  C
  H27      1.0000 0.85160  0.58230  0.98880  Biso   1.000  H
  H28      1.0000 0.14840  0.08230  0.01120  Biso   1.000  H
  H29      1.0000 0.77560  0.47470  0.89060  Biso   1.000  H
  H30      1.0000 0.22440  0.97470  0.10940  Biso   1.000  H
  H31      1.0000 0.80110  0.37880  0.00550  Biso   1.000  H
  H32      1.0000 0.19890  0.87880  0.99450  Biso   1.000  H
  C33      1.0000 0.55760  0.46520  0.96580  Biso   1.000  C
  C34      1.0000 0.44240  0.96520  0.03420  Biso   1.000  C
  O3       1.0000 0.53940  0.38180  0.87240  Biso   1.000  O
  O4       1.0000 0.46060  0.88180  0.12760  Biso   1.000  O
  H33      1.0000 0.74900  0.56100  0.14900  Biso   1.000  H
  H34      1.0000 0.25100  0.06100  0.85100  Biso   1.000  H
  H35      1.0000 0.74100  0.71900  0.12600  Biso   1.000  H
  H36      1.0000 0.25900  0.21900  0.87400  Biso   1.000  H
  P1       1.0000 0.11281  0.57290  0.77733  Biso   1.000  P
  P2       1.0000 0.88719  0.07290  0.22267  Biso   1.000  P
  F1       1.0000 0.04310  0.59800  0.65930  Biso   1.000  F
  F2       1.0000 0.95690  0.09800  0.34070  Biso   1.000  F
  F3       1.0000 0.18290  0.53990  0.89440  Biso   1.000  F
  F4       1.0000 0.81710  0.03990  0.10560  Biso   1.000  F
  F5       1.0000 0.02050  0.69350  0.82160  Biso   1.000  F
  F6       1.0000 0.97950  0.19350  0.17840  Biso   1.000  F
  F7       1.0000 0.05090  0.37830  0.79760  Biso   1.000  F
  F8       1.0000 0.94910  0.87830  0.20240  Biso   1.000  F
  F9       1.0000 0.20390  0.44420  0.72920  Biso   1.000  F
  F10      1.0000 0.79610  0.94420  0.27080  Biso   1.000  F
  F11      1.0000 0.17700  0.75630  0.76050  Biso   1.000  F
  F12      1.0000 0.82300  0.25630  0.23950  Biso   1.000  F
