data_image0
_cell_length_a       7.823
_cell_length_b       10.935
_cell_length_c       6.514
_cell_angle_alpha    111.8
_cell_angle_beta     112.8
_cell_angle_gamma    87.4

_symmetry_space_group_name_H-M    "P 1"
_symmetry_int_tables_number       1

loop_
  _symmetry_equiv_pos_as_xyz
  'x, y, z'

loop_
  _atom_site_label
  _atom_site_occupancy
  _atom_site_fract_x
  _atom_site_fract_y
  _atom_site_fract_z
  _atom_site_thermal_displace_type
  _atom_site_B_iso_or_equiv
  _atom_site_type_symbol
  Cu1      1.0000 0.00000  0.00000  0.00000  Biso   1.000  Cu
  O1       1.0000 0.96980  0.87190  0.12910  Biso   1.000  O
  O2       1.0000 0.03020  0.12810  0.87090  Biso   1.000  O
  O3       1.0000 0.67480  0.85040  0.88230  Biso   1.000  O
  O4       1.0000 0.32520  0.14960  0.11770  Biso   1.000  O
  O5       1.0000 0.24030  0.07930  0.53320  Biso   1.000  O
  O6       1.0000 0.75970  0.92070  0.46680  Biso   1.000  O
  O7       1.0000 0.01080  0.15070  0.28730  Biso   1.000  O
  O8       1.0000 0.98920  0.84930  0.71270  Biso   1.000  O
  C1       1.0000 0.77560  0.69470  0.07230  Biso   1.000  C
  C2       1.0000 0.22440  0.30530  0.92770  Biso   1.000  C
  C3       1.0000 0.82630  0.70240  0.30710  Biso   1.000  C
  C4       1.0000 0.17370  0.29760  0.69290  Biso   1.000  C
  C5       1.0000 0.82620  0.58710  0.34960  Biso   1.000  C
  C6       1.0000 0.17380  0.41290  0.65040  Biso   1.000  C
  C7       1.0000 0.76980  0.46440  0.15840  Biso   1.000  C
  C8       1.0000 0.23020  0.53560  0.84160  Biso   1.000  C
  C9       1.0000 0.71300  0.45750  0.92620  Biso   1.000  C
  C10      1.0000 0.28700  0.54250  0.07380  Biso   1.000  C
  C11      1.0000 0.71630  0.57200  0.88220  Biso   1.000  C
  C12      1.0000 0.28370  0.42800  0.11780  Biso   1.000  C
  C13      1.0000 0.80200  0.81450  0.02330  Biso   1.000  C
  C14      1.0000 0.19800  0.18550  0.97670  Biso   1.000  C
  C15      1.0000 0.86130  0.83500  0.50880  Biso   1.000  C
  C16      1.0000 0.13870  0.16500  0.49120  Biso   1.000  C
  H1       1.0000 0.86600  0.59100  0.51800  Biso   1.000  H
  H2       1.0000 0.13400  0.40900  0.48200  Biso   1.000  H
  H3       1.0000 0.77000  0.38500  0.19500  Biso   1.000  H
  H4       1.0000 0.23000  0.61500  0.80500  Biso   1.000  H
  H5       1.0000 0.67200  0.37200  0.79100  Biso   1.000  H
  H6       1.0000 0.32800  0.62800  0.20900  Biso   1.000  H
  H7       1.0000 0.67500  0.56400  0.71300  Biso   1.000  H
  H8       1.0000 0.32500  0.43600  0.28700  Biso   1.000  H
  O9       1.0000 0.30450  0.80430  0.58520  Biso   1.000  O
  O10      1.0000 0.69550  0.19570  0.41480  Biso   1.000  O
  H9       1.0000 0.23100  0.81000  0.65900  Biso   1.000  H
  H10      1.0000 0.76900  0.19000  0.34100  Biso   1.000  H
  H11      1.0000 0.41000  0.80200  0.66900  Biso   1.000  H
  H12      1.0000 0.59000  0.19800  0.33100  Biso   1.000  H
  O11      1.0000 0.37980  0.89160  0.17950  Biso   1.000  O
  O12      1.0000 0.62020  0.10840  0.82050  Biso   1.000  O
  H13      1.0000 0.49700  0.88600  0.25400  Biso   1.000  H
  H14      1.0000 0.50300  0.11400  0.74600  Biso   1.000  H
  H15      1.0000 0.37100  0.96200  0.15300  Biso   1.000  H
  H16      1.0000 0.62900  0.03800  0.84700  Biso   1.000  H
  Li1      1.0000 0.22900  0.89050  0.36150  Biso   1.000  Li
  Li2      1.0000 0.77100  0.10950  0.63850  Biso   1.000  Li
