data_image0
_cell_length_a       11.242
_cell_length_b       16.963
_cell_length_c       13.898
_cell_angle_alpha    90
_cell_angle_beta     90
_cell_angle_gamma    90

_symmetry_space_group_name_H-M    "P 1"
_symmetry_int_tables_number       1

loop_
  _symmetry_equiv_pos_as_xyz
  'x, y, z'

loop_
  _atom_site_label
  _atom_site_occupancy
  _atom_site_fract_x
  _atom_site_fract_y
  _atom_site_fract_z
  _atom_site_thermal_displace_type
  _atom_site_B_iso_or_equiv
  _atom_site_type_symbol
  Cu1      1.0000 0.28628  0.28300  0.10237  Biso   1.000  Cu
  Cu2      1.0000 0.21372  0.21700  0.60237  Biso   1.000  Cu
  Cu3      1.0000 0.71372  0.28300  0.39763  Biso   1.000  Cu
  Cu4      1.0000 0.78628  0.21700  0.89763  Biso   1.000  Cu
  Cu5      1.0000 0.71372  0.71700  0.89763  Biso   1.000  Cu
  Cu6      1.0000 0.78628  0.78300  0.39763  Biso   1.000  Cu
  Cu7      1.0000 0.28628  0.71700  0.60237  Biso   1.000  Cu
  Cu8      1.0000 0.21372  0.78300  0.10237  Biso   1.000  Cu
  Cu9      1.0000 0.50000  0.57153  0.25000  Biso   1.000  Cu
  Cu10     1.0000 0.00000  0.92847  0.75000  Biso   1.000  Cu
  Cu11     1.0000 0.50000  0.42847  0.75000  Biso   1.000  Cu
  Cu12     1.0000 0.00000  0.07153  0.25000  Biso   1.000  Cu
  N1       1.0000 0.30370  0.28100  0.96170  Biso   1.000  N
  N2       1.0000 0.19630  0.21900  0.46170  Biso   1.000  N
  N3       1.0000 0.69630  0.28100  0.53830  Biso   1.000  N
  N4       1.0000 0.80370  0.21900  0.03830  Biso   1.000  N
  N5       1.0000 0.69630  0.71900  0.03830  Biso   1.000  N
  N6       1.0000 0.80370  0.78100  0.53830  Biso   1.000  N
  N7       1.0000 0.30370  0.71900  0.46170  Biso   1.000  N
  N8       1.0000 0.19630  0.78100  0.96170  Biso   1.000  N
  H1       1.0000 0.23200  0.27030  0.93420  Biso   1.000  H
  H2       1.0000 0.26800  0.22970  0.43420  Biso   1.000  H
  H3       1.0000 0.76800  0.27030  0.56580  Biso   1.000  H
  H4       1.0000 0.73200  0.22970  0.06580  Biso   1.000  H
  H5       1.0000 0.76800  0.72970  0.06580  Biso   1.000  H
  H6       1.0000 0.73200  0.77030  0.56580  Biso   1.000  H
  H7       1.0000 0.23200  0.72970  0.43420  Biso   1.000  H
  H8       1.0000 0.26800  0.77030  0.93420  Biso   1.000  H
  H9       1.0000 0.35690  0.24310  0.94490  Biso   1.000  H
  H10      1.0000 0.14310  0.25690  0.44490  Biso   1.000  H
  H11      1.0000 0.64310  0.24310  0.55510  Biso   1.000  H
  H12      1.0000 0.85690  0.25690  0.05510  Biso   1.000  H
  H13      1.0000 0.64310  0.75690  0.05510  Biso   1.000  H
  H14      1.0000 0.85690  0.74310  0.55510  Biso   1.000  H
  H15      1.0000 0.35690  0.75690  0.44490  Biso   1.000  H
  H16      1.0000 0.14310  0.74310  0.94490  Biso   1.000  H
  H17      1.0000 0.33010  0.32880  0.94090  Biso   1.000  H
  H18      1.0000 0.16990  0.17120  0.44090  Biso   1.000  H
  H19      1.0000 0.66990  0.32880  0.55910  Biso   1.000  H
  H20      1.0000 0.83010  0.17120  0.05910  Biso   1.000  H
  H21      1.0000 0.66990  0.67120  0.05910  Biso   1.000  H
  H22      1.0000 0.83010  0.82880  0.55910  Biso   1.000  H
  H23      1.0000 0.33010  0.67120  0.44090  Biso   1.000  H
  H24      1.0000 0.16990  0.82880  0.94090  Biso   1.000  H
  N9       1.0000 0.29350  0.28860  0.24420  Biso   1.000  N
  N10      1.0000 0.20650  0.21140  0.74420  Biso   1.000  N
  N11      1.0000 0.70650  0.28860  0.25580  Biso   1.000  N
  N12      1.0000 0.79350  0.21140  0.75580  Biso   1.000  N
  N13      1.0000 0.70650  0.71140  0.75580  Biso   1.000  N
  N14      1.0000 0.79350  0.78860  0.25580  Biso   1.000  N
  N15      1.0000 0.29350  0.71140  0.74420  Biso   1.000  N
  N16      1.0000 0.20650  0.78860  0.24420  Biso   1.000  N
  H25      1.0000 0.22050  0.27740  0.26910  Biso   1.000  H
  H26      1.0000 0.27950  0.22260  0.76910  Biso   1.000  H
  H27      1.0000 0.77950  0.27740  0.23090  Biso   1.000  H
  H28      1.0000 0.72050  0.22260  0.73090  Biso   1.000  H
  H29      1.0000 0.77950  0.72260  0.73090  Biso   1.000  H
  H30      1.0000 0.72050  0.77740  0.23090  Biso   1.000  H
  H31      1.0000 0.22050  0.72260  0.76910  Biso   1.000  H
  H32      1.0000 0.27950  0.77740  0.26910  Biso   1.000  H
  H33      1.0000 0.31580  0.33790  0.26240  Biso   1.000  H
  H34      1.0000 0.18420  0.16210  0.76240  Biso   1.000  H
  H35      1.0000 0.68420  0.33790  0.23760  Biso   1.000  H
  H36      1.0000 0.81580  0.16210  0.73760  Biso   1.000  H
  H37      1.0000 0.68420  0.66210  0.73760  Biso   1.000  H
  H38      1.0000 0.81580  0.83790  0.23760  Biso   1.000  H
  H39      1.0000 0.31580  0.66210  0.76240  Biso   1.000  H
  H40      1.0000 0.18420  0.83790  0.26240  Biso   1.000  H
  H41      1.0000 0.34740  0.25290  0.26640  Biso   1.000  H
  H42      1.0000 0.15260  0.24710  0.76640  Biso   1.000  H
  H43      1.0000 0.65260  0.25290  0.23360  Biso   1.000  H
  H44      1.0000 0.84740  0.24710  0.73360  Biso   1.000  H
  H45      1.0000 0.65260  0.74710  0.73360  Biso   1.000  H
  H46      1.0000 0.84740  0.75290  0.23360  Biso   1.000  H
  H47      1.0000 0.34740  0.74710  0.76640  Biso   1.000  H
  H48      1.0000 0.15260  0.75290  0.26640  Biso   1.000  H
  O1       1.0000 0.50000  0.70590  0.25000  Biso   1.000  O
  O2       1.0000 0.00000  0.79410  0.75000  Biso   1.000  O
  O3       1.0000 0.50000  0.29410  0.75000  Biso   1.000  O
  O4       1.0000 0.00000  0.20590  0.25000  Biso   1.000  O
  H49      1.0000 0.48390  0.72600  0.30450  Biso   1.000  H
  H50      1.0000 0.01610  0.77400  0.80450  Biso   1.000  H
  H51      1.0000 0.51610  0.72600  0.19550  Biso   1.000  H
  H52      1.0000 0.98390  0.77400  0.69550  Biso   1.000  H
  H53      1.0000 0.51610  0.27400  0.69550  Biso   1.000  H
  H54      1.0000 0.98390  0.22600  0.19550  Biso   1.000  H
  H55      1.0000 0.48390  0.27400  0.80450  Biso   1.000  H
  H56      1.0000 0.01610  0.22600  0.30450  Biso   1.000  H
  H57      1.0000 0.45690  0.72600  0.20620  Biso   1.000  H
  H58      1.0000 0.04310  0.77400  0.70620  Biso   1.000  H
  H59      1.0000 0.54310  0.72600  0.29380  Biso   1.000  H
  H60      1.0000 0.95690  0.77400  0.79380  Biso   1.000  H
  H61      1.0000 0.54310  0.27400  0.79380  Biso   1.000  H
  H62      1.0000 0.95690  0.22600  0.29380  Biso   1.000  H
  H63      1.0000 0.45690  0.27400  0.70620  Biso   1.000  H
  H64      1.0000 0.04310  0.22600  0.20620  Biso   1.000  H
  O5       1.0000 0.59690  0.56220  0.37060  Biso   1.000  O
  O6       1.0000 0.90310  0.93780  0.87060  Biso   1.000  O
  O7       1.0000 0.40310  0.56220  0.12940  Biso   1.000  O
  O8       1.0000 0.09690  0.93780  0.62940  Biso   1.000  O
  O9       1.0000 0.40310  0.43780  0.62940  Biso   1.000  O
  O10      1.0000 0.09690  0.06220  0.12940  Biso   1.000  O
  O11      1.0000 0.59690  0.43780  0.87060  Biso   1.000  O
  O12      1.0000 0.90310  0.06220  0.37060  Biso   1.000  O
  H65      1.0000 0.63600  0.49800  0.38100  Biso   1.000  H
  H66      1.0000 0.86400  0.00200  0.88100  Biso   1.000  H
  H67      1.0000 0.36400  0.49800  0.11900  Biso   1.000  H
  H68      1.0000 0.13600  0.00200  0.61900  Biso   1.000  H
  H69      1.0000 0.36400  0.50200  0.61900  Biso   1.000  H
  H70      1.0000 0.13600  0.99800  0.11900  Biso   1.000  H
  H71      1.0000 0.63600  0.50200  0.88100  Biso   1.000  H
  H72      1.0000 0.86400  0.99800  0.38100  Biso   1.000  H
  H73      1.0000 0.66500  0.58900  0.37100  Biso   1.000  H
  H74      1.0000 0.83500  0.91100  0.87100  Biso   1.000  H
  H75      1.0000 0.33500  0.58900  0.12900  Biso   1.000  H
  H76      1.0000 0.16500  0.91100  0.62900  Biso   1.000  H
  H77      1.0000 0.33500  0.41100  0.62900  Biso   1.000  H
  H78      1.0000 0.16500  0.08900  0.12900  Biso   1.000  H
  H79      1.0000 0.66500  0.41100  0.87100  Biso   1.000  H
  H80      1.0000 0.83500  0.08900  0.37100  Biso   1.000  H
  C1       1.0000 0.01740  0.44500  0.11530  Biso   1.000  C
  C2       1.0000 0.48260  0.05500  0.61530  Biso   1.000  C
  C3       1.0000 0.98260  0.44500  0.38470  Biso   1.000  C
  C4       1.0000 0.51740  0.05500  0.88470  Biso   1.000  C
  C5       1.0000 0.98260  0.55500  0.88470  Biso   1.000  C
  C6       1.0000 0.51740  0.94500  0.38470  Biso   1.000  C
  C7       1.0000 0.01740  0.55500  0.61530  Biso   1.000  C
  C8       1.0000 0.48260  0.94500  0.11530  Biso   1.000  C
  C9       1.0000 0.89490  0.44040  0.13160  Biso   1.000  C
  C10      1.0000 0.60510  0.05960  0.63160  Biso   1.000  C
  C11      1.0000 0.10510  0.44040  0.36840  Biso   1.000  C
  C12      1.0000 0.39490  0.05960  0.86840  Biso   1.000  C
  C13      1.0000 0.10510  0.55960  0.86840  Biso   1.000  C
  C14      1.0000 0.39490  0.94040  0.36840  Biso   1.000  C
  C15      1.0000 0.89490  0.55960  0.63160  Biso   1.000  C
  C16      1.0000 0.60510  0.94040  0.13160  Biso   1.000  C
  H81      1.0000 0.85700  0.39030  0.13240  Biso   1.000  H
  H82      1.0000 0.64300  0.10970  0.63240  Biso   1.000  H
  H83      1.0000 0.14300  0.39030  0.36760  Biso   1.000  H
  H84      1.0000 0.35700  0.10970  0.86760  Biso   1.000  H
  H85      1.0000 0.14300  0.60970  0.86760  Biso   1.000  H
  H86      1.0000 0.35700  0.89030  0.36760  Biso   1.000  H
  H87      1.0000 0.85700  0.60970  0.63240  Biso   1.000  H
  H88      1.0000 0.64300  0.89030  0.13240  Biso   1.000  H
  C17      1.0000 0.82850  0.50740  0.14650  Biso   1.000  C
  C18      1.0000 0.67150  0.99260  0.64650  Biso   1.000  C
  C19      1.0000 0.17150  0.50740  0.35350  Biso   1.000  C
  C20      1.0000 0.32850  0.99260  0.85350  Biso   1.000  C
  C21      1.0000 0.17150  0.49260  0.85350  Biso   1.000  C
  C22      1.0000 0.32850  0.00740  0.35350  Biso   1.000  C
  C23      1.0000 0.82850  0.49260  0.64650  Biso   1.000  C
  C24      1.0000 0.67150  0.00740  0.14650  Biso   1.000  C
  C25      1.0000 0.88340  0.58010  0.14290  Biso   1.000  C
  C26      1.0000 0.61660  0.91990  0.64290  Biso   1.000  C
  C27      1.0000 0.11660  0.58010  0.35710  Biso   1.000  C
  C28      1.0000 0.38340  0.91990  0.85710  Biso   1.000  C
  C29      1.0000 0.11660  0.41990  0.85710  Biso   1.000  C
  C30      1.0000 0.38340  0.08010  0.35710  Biso   1.000  C
  C31      1.0000 0.88340  0.41990  0.64290  Biso   1.000  C
  C32      1.0000 0.61660  0.08010  0.14290  Biso   1.000  C
  H89      1.0000 0.83810  0.62660  0.15330  Biso   1.000  H
  H90      1.0000 0.66190  0.87340  0.65330  Biso   1.000  H
  H91      1.0000 0.16190  0.62660  0.34670  Biso   1.000  H
  H92      1.0000 0.33810  0.87340  0.84670  Biso   1.000  H
  H93      1.0000 0.16190  0.37340  0.84670  Biso   1.000  H
  H94      1.0000 0.33810  0.12660  0.34670  Biso   1.000  H
  H95      1.0000 0.83810  0.37340  0.65330  Biso   1.000  H
  H96      1.0000 0.66190  0.12660  0.15330  Biso   1.000  H
  C33      1.0000 0.00380  0.58570  0.12430  Biso   1.000  C
  C34      1.0000 0.49620  0.91430  0.62430  Biso   1.000  C
  C35      1.0000 0.99620  0.58570  0.37570  Biso   1.000  C
  C36      1.0000 0.50380  0.91430  0.87570  Biso   1.000  C
  C37      1.0000 0.99620  0.41430  0.87570  Biso   1.000  C
  C38      1.0000 0.50380  0.08570  0.37570  Biso   1.000  C
  C39      1.0000 0.00380  0.41430  0.62430  Biso   1.000  C
  C40      1.0000 0.49620  0.08570  0.12430  Biso   1.000  C
  C41      1.0000 0.06980  0.51730  0.11200  Biso   1.000  C
  C42      1.0000 0.43020  0.98270  0.61200  Biso   1.000  C
  C43      1.0000 0.93020  0.51730  0.38800  Biso   1.000  C
  C44      1.0000 0.56980  0.98270  0.88800  Biso   1.000  C
  C45      1.0000 0.93020  0.48270  0.88800  Biso   1.000  C
  C46      1.0000 0.56980  0.01730  0.38800  Biso   1.000  C
  C47      1.0000 0.06980  0.48270  0.61200  Biso   1.000  C
  C48      1.0000 0.43020  0.01730  0.11200  Biso   1.000  C
  H97      1.0000 0.15300  0.52090  0.10090  Biso   1.000  H
  H98      1.0000 0.34700  0.97910  0.60090  Biso   1.000  H
  H99      1.0000 0.84700  0.52090  0.39910  Biso   1.000  H
  H100     1.0000 0.65300  0.97910  0.89910  Biso   1.000  H
  H101     1.0000 0.84700  0.47910  0.89910  Biso   1.000  H
  H102     1.0000 0.65300  0.02090  0.39910  Biso   1.000  H
  H103     1.0000 0.15300  0.47910  0.60090  Biso   1.000  H
  H104     1.0000 0.34700  0.02090  0.10090  Biso   1.000  H
  C49      1.0000 0.08900  0.37090  0.10450  Biso   1.000  C
  C50      1.0000 0.41100  0.12910  0.60450  Biso   1.000  C
  C51      1.0000 0.91100  0.37090  0.39550  Biso   1.000  C
  C52      1.0000 0.58900  0.12910  0.89550  Biso   1.000  C
  C53      1.0000 0.91100  0.62910  0.89550  Biso   1.000  C
  C54      1.0000 0.58900  0.87090  0.39550  Biso   1.000  C
  C55      1.0000 0.08900  0.62910  0.60450  Biso   1.000  C
  C56      1.0000 0.41100  0.87090  0.10450  Biso   1.000  C
  C57      1.0000 0.69910  0.50370  0.17120  Biso   1.000  C
  C58      1.0000 0.80090  0.99630  0.67120  Biso   1.000  C
  C59      1.0000 0.30090  0.50370  0.32880  Biso   1.000  C
  C60      1.0000 0.19910  0.99630  0.82880  Biso   1.000  C
  C61      1.0000 0.30090  0.49630  0.82880  Biso   1.000  C
  C62      1.0000 0.19910  0.00370  0.32880  Biso   1.000  C
  C63      1.0000 0.69910  0.49630  0.67120  Biso   1.000  C
  C64      1.0000 0.80090  0.00370  0.17120  Biso   1.000  C
  C65      1.0000 0.05640  0.66640  0.12040  Biso   1.000  C
  C66      1.0000 0.44360  0.83360  0.62040  Biso   1.000  C
  C67      1.0000 0.94360  0.66640  0.37960  Biso   1.000  C
  C68      1.0000 0.55640  0.83360  0.87960  Biso   1.000  C
  C69      1.0000 0.94360  0.33360  0.87960  Biso   1.000  C
  C70      1.0000 0.55640  0.16640  0.37960  Biso   1.000  C
  C71      1.0000 0.05640  0.33360  0.62040  Biso   1.000  C
  C72      1.0000 0.44360  0.16640  0.12040  Biso   1.000  C
  O13      1.0000 0.19950  0.38220  0.10030  Biso   1.000  O
  O14      1.0000 0.30050  0.11780  0.60030  Biso   1.000  O
  O15      1.0000 0.80050  0.38220  0.39970  Biso   1.000  O
  O16      1.0000 0.69950  0.11780  0.89970  Biso   1.000  O
  O17      1.0000 0.80050  0.61780  0.89970  Biso   1.000  O
  O18      1.0000 0.69950  0.88220  0.39970  Biso   1.000  O
  O19      1.0000 0.19950  0.61780  0.60030  Biso   1.000  O
  O20      1.0000 0.30050  0.88220  0.10030  Biso   1.000  O
  O21      1.0000 0.04040  0.30650  0.10240  Biso   1.000  O
  O22      1.0000 0.45960  0.19350  0.60240  Biso   1.000  O
  O23      1.0000 0.95960  0.30650  0.39760  Biso   1.000  O
  O24      1.0000 0.54040  0.19350  0.89760  Biso   1.000  O
  O25      1.0000 0.95960  0.69350  0.89760  Biso   1.000  O
  O26      1.0000 0.54040  0.80650  0.39760  Biso   1.000  O
  O27      1.0000 0.04040  0.69350  0.60240  Biso   1.000  O
  O28      1.0000 0.45960  0.80650  0.10240  Biso   1.000  O
  O29      1.0000 0.65130  0.43960  0.18800  Biso   1.000  O
  O30      1.0000 0.84870  0.06040  0.68800  Biso   1.000  O
  O31      1.0000 0.34870  0.43960  0.31200  Biso   1.000  O
  O32      1.0000 0.15130  0.06040  0.81200  Biso   1.000  O
  O33      1.0000 0.34870  0.56040  0.81200  Biso   1.000  O
  O34      1.0000 0.15130  0.93960  0.31200  Biso   1.000  O
  O35      1.0000 0.65130  0.56040  0.68800  Biso   1.000  O
  O36      1.0000 0.84870  0.93960  0.18800  Biso   1.000  O
  O37      1.0000 0.64800  0.56950  0.17580  Biso   1.000  O
  O38      1.0000 0.85200  0.93050  0.67580  Biso   1.000  O
  O39      1.0000 0.35200  0.56950  0.32420  Biso   1.000  O
  O40      1.0000 0.14800  0.93050  0.82420  Biso   1.000  O
  O41      1.0000 0.35200  0.43050  0.82420  Biso   1.000  O
  O42      1.0000 0.14800  0.06950  0.32420  Biso   1.000  O
  O43      1.0000 0.64800  0.43050  0.67580  Biso   1.000  O
  O44      1.0000 0.85200  0.06950  0.17580  Biso   1.000  O
  O45      1.0000 0.99100  0.72460  0.12930  Biso   1.000  O
  O46      1.0000 0.50900  0.77540  0.62930  Biso   1.000  O
  O47      1.0000 0.00900  0.72460  0.37070  Biso   1.000  O
  O48      1.0000 0.49100  0.77540  0.87070  Biso   1.000  O
  O49      1.0000 0.00900  0.27540  0.87070  Biso   1.000  O
  O50      1.0000 0.49100  0.22460  0.37070  Biso   1.000  O
  O51      1.0000 0.99100  0.27540  0.62930  Biso   1.000  O
  O52      1.0000 0.50900  0.22460  0.12930  Biso   1.000  O
  O53      1.0000 0.16790  0.67100  0.10750  Biso   1.000  O
  O54      1.0000 0.33210  0.82900  0.60750  Biso   1.000  O
  O55      1.0000 0.83210  0.67100  0.39250  Biso   1.000  O
  O56      1.0000 0.66790  0.82900  0.89250  Biso   1.000  O
  O57      1.0000 0.83210  0.32900  0.89250  Biso   1.000  O
  O58      1.0000 0.66790  0.17100  0.39250  Biso   1.000  O
  O59      1.0000 0.16790  0.32900  0.60750  Biso   1.000  O
  O60      1.0000 0.33210  0.17100  0.10750  Biso   1.000  O
  O61      1.0000 0.49220  0.37970  0.05780  Biso   1.000  O
  O62      1.0000 0.00780  0.12030  0.55780  Biso   1.000  O
  O63      1.0000 0.50780  0.37970  0.44220  Biso   1.000  O
  O64      1.0000 0.99220  0.12030  0.94220  Biso   1.000  O
  O65      1.0000 0.50780  0.62030  0.94220  Biso   1.000  O
  O66      1.0000 0.99220  0.87970  0.44220  Biso   1.000  O
  O67      1.0000 0.49220  0.62030  0.55780  Biso   1.000  O
  O68      1.0000 0.00780  0.87970  0.05780  Biso   1.000  O
  H105     1.0000 0.53950  0.40390  0.09520  Biso   1.000  H
  H106     1.0000 0.96050  0.09610  0.59520  Biso   1.000  H
  H107     1.0000 0.46050  0.40390  0.40480  Biso   1.000  H
  H108     1.0000 0.03950  0.09610  0.90480  Biso   1.000  H
  H109     1.0000 0.46050  0.59610  0.90480  Biso   1.000  H
  H110     1.0000 0.03950  0.90390  0.40480  Biso   1.000  H
  H111     1.0000 0.53950  0.59610  0.59520  Biso   1.000  H
  H112     1.0000 0.96050  0.90390  0.09520  Biso   1.000  H
  H113     1.0000 0.49080  0.33150  0.07450  Biso   1.000  H
  H114     1.0000 0.00920  0.16850  0.57450  Biso   1.000  H
  H115     1.0000 0.50920  0.33150  0.42550  Biso   1.000  H
  H116     1.0000 0.99080  0.16850  0.92550  Biso   1.000  H
  H117     1.0000 0.50920  0.66850  0.92550  Biso   1.000  H
  H118     1.0000 0.99080  0.83150  0.42550  Biso   1.000  H
  H119     1.0000 0.49080  0.66850  0.57450  Biso   1.000  H
  H120     1.0000 0.00920  0.83150  0.07450  Biso   1.000  H
