data_image0
_cell_length_a       18.887
_cell_length_b       10.761
_cell_length_c       14.488
_cell_angle_alpha    90
_cell_angle_beta     126.1
_cell_angle_gamma    90

_symmetry_space_group_name_H-M    "P 1"
_symmetry_int_tables_number       1

loop_
  _symmetry_equiv_pos_as_xyz
  'x, y, z'

loop_
  _atom_site_label
  _atom_site_occupancy
  _atom_site_fract_x
  _atom_site_fract_y
  _atom_site_fract_z
  _atom_site_thermal_displace_type
  _atom_site_B_iso_or_equiv
  _atom_site_type_symbol
  Cu1      1.0000 0.00674  0.01783  0.10958  Biso   1.000  Cu
  Cu2      1.0000 0.50674  0.51783  0.10958  Biso   1.000  Cu
  Cu3      1.0000 0.99326  0.01783  0.39042  Biso   1.000  Cu
  Cu4      1.0000 0.49326  0.51783  0.39042  Biso   1.000  Cu
  Cu5      1.0000 0.99326  0.98217  0.89042  Biso   1.000  Cu
  Cu6      1.0000 0.49326  0.48217  0.89042  Biso   1.000  Cu
  Cu7      1.0000 0.00674  0.98217  0.60958  Biso   1.000  Cu
  Cu8      1.0000 0.50674  0.48217  0.60958  Biso   1.000  Cu
  Cu9      1.0000 0.15528  0.83520  0.10315  Biso   1.000  Cu
  Cu10     1.0000 0.65528  0.33520  0.10315  Biso   1.000  Cu
  Cu11     1.0000 0.84472  0.83520  0.39685  Biso   1.000  Cu
  Cu12     1.0000 0.34472  0.33520  0.39685  Biso   1.000  Cu
  Cu13     1.0000 0.84472  0.16480  0.89685  Biso   1.000  Cu
  Cu14     1.0000 0.34472  0.66480  0.89685  Biso   1.000  Cu
  Cu15     1.0000 0.15528  0.16480  0.60315  Biso   1.000  Cu
  Cu16     1.0000 0.65528  0.66480  0.60315  Biso   1.000  Cu
  N1       1.0000 0.22921  0.68400  0.15620  Biso   1.000  N
  N2       1.0000 0.72921  0.18400  0.15620  Biso   1.000  N
  N3       1.0000 0.77079  0.68400  0.34380  Biso   1.000  N
  N4       1.0000 0.27079  0.18400  0.34380  Biso   1.000  N
  N5       1.0000 0.77079  0.31600  0.84380  Biso   1.000  N
  N6       1.0000 0.27079  0.81600  0.84380  Biso   1.000  N
  N7       1.0000 0.22921  0.31600  0.65620  Biso   1.000  N
  N8       1.0000 0.72921  0.81600  0.65620  Biso   1.000  N
  H1       1.0000 0.27700  0.70900  0.19800  Biso   1.000  H
  H2       1.0000 0.77700  0.20900  0.19800  Biso   1.000  H
  H3       1.0000 0.72300  0.70900  0.30200  Biso   1.000  H
  H4       1.0000 0.22300  0.20900  0.30200  Biso   1.000  H
  H5       1.0000 0.72300  0.29100  0.80200  Biso   1.000  H
  H6       1.0000 0.22300  0.79100  0.80200  Biso   1.000  H
  H7       1.0000 0.27700  0.29100  0.69800  Biso   1.000  H
  H8       1.0000 0.77700  0.79100  0.69800  Biso   1.000  H
  H9       1.0000 0.21900  0.64300  0.19000  Biso   1.000  H
  H10      1.0000 0.71900  0.14300  0.19000  Biso   1.000  H
  H11      1.0000 0.78100  0.64300  0.31000  Biso   1.000  H
  H12      1.0000 0.28100  0.14300  0.31000  Biso   1.000  H
  H13      1.0000 0.78100  0.35700  0.81000  Biso   1.000  H
  H14      1.0000 0.28100  0.85700  0.81000  Biso   1.000  H
  H15      1.0000 0.21900  0.35700  0.69000  Biso   1.000  H
  H16      1.0000 0.71900  0.85700  0.69000  Biso   1.000  H
  N9       1.0000 0.09993  0.00870  0.27750  Biso   1.000  N
  N10      1.0000 0.59993  0.50870  0.27750  Biso   1.000  N
  N11      1.0000 0.90007  0.00870  0.22250  Biso   1.000  N
  N12      1.0000 0.40007  0.50870  0.22250  Biso   1.000  N
  N13      1.0000 0.90007  0.99130  0.72250  Biso   1.000  N
  N14      1.0000 0.40007  0.49130  0.72250  Biso   1.000  N
  N15      1.0000 0.09993  0.99130  0.77750  Biso   1.000  N
  N16      1.0000 0.59993  0.49130  0.77750  Biso   1.000  N
  H17      1.0000 0.09100  0.95200  0.30700  Biso   1.000  H
  H18      1.0000 0.59100  0.45200  0.30700  Biso   1.000  H
  H19      1.0000 0.90900  0.95200  0.19300  Biso   1.000  H
  H20      1.0000 0.40900  0.45200  0.19300  Biso   1.000  H
  H21      1.0000 0.90900  0.04800  0.69300  Biso   1.000  H
  H22      1.0000 0.40900  0.54800  0.69300  Biso   1.000  H
  H23      1.0000 0.09100  0.04800  0.80700  Biso   1.000  H
  H24      1.0000 0.59100  0.54800  0.80700  Biso   1.000  H
  H25      1.0000 0.14400  0.99200  0.28500  Biso   1.000  H
  H26      1.0000 0.64400  0.49200  0.28500  Biso   1.000  H
  H27      1.0000 0.85600  0.99200  0.21500  Biso   1.000  H
  H28      1.0000 0.35600  0.49200  0.21500  Biso   1.000  H
  H29      1.0000 0.85600  0.00800  0.71500  Biso   1.000  H
  H30      1.0000 0.35600  0.50800  0.71500  Biso   1.000  H
  H31      1.0000 0.14400  0.00800  0.78500  Biso   1.000  H
  H32      1.0000 0.64400  0.50800  0.78500  Biso   1.000  H
  O1       1.0000 0.25635  0.86591  0.32237  Biso   1.000  O
  O2       1.0000 0.75635  0.36591  0.32237  Biso   1.000  O
  O3       1.0000 0.74365  0.86591  0.17763  Biso   1.000  O
  O4       1.0000 0.24365  0.36591  0.17763  Biso   1.000  O
  O5       1.0000 0.74365  0.13409  0.67763  Biso   1.000  O
  O6       1.0000 0.24365  0.63409  0.67763  Biso   1.000  O
  O7       1.0000 0.25635  0.13409  0.82237  Biso   1.000  O
  O8       1.0000 0.75635  0.63409  0.82237  Biso   1.000  O
  H33      1.0000 0.30500  0.90130  0.34860  Biso   1.000  H
  H34      1.0000 0.80500  0.40130  0.34860  Biso   1.000  H
  H35      1.0000 0.69500  0.90130  0.15140  Biso   1.000  H
  H36      1.0000 0.19500  0.40130  0.15140  Biso   1.000  H
  H37      1.0000 0.69500  0.09870  0.65140  Biso   1.000  H
  H38      1.0000 0.19500  0.59870  0.65140  Biso   1.000  H
  H39      1.0000 0.30500  0.09870  0.84860  Biso   1.000  H
  H40      1.0000 0.80500  0.59870  0.84860  Biso   1.000  H
  H41      1.0000 0.26210  0.80290  0.36160  Biso   1.000  H
  H42      1.0000 0.76210  0.30290  0.36160  Biso   1.000  H
  H43      1.0000 0.73790  0.80290  0.13840  Biso   1.000  H
  H44      1.0000 0.23790  0.30290  0.13840  Biso   1.000  H
  H45      1.0000 0.73790  0.19710  0.63840  Biso   1.000  H
  H46      1.0000 0.23790  0.69710  0.63840  Biso   1.000  H
  H47      1.0000 0.26210  0.19710  0.86160  Biso   1.000  H
  H48      1.0000 0.76210  0.69710  0.86160  Biso   1.000  H
  C1       1.0000 0.96438  0.62720  0.10960  Biso   1.000  C
  C2       1.0000 0.46438  0.12720  0.10960  Biso   1.000  C
  C3       1.0000 0.03562  0.62720  0.39040  Biso   1.000  C
  C4       1.0000 0.53562  0.12720  0.39040  Biso   1.000  C
  C5       1.0000 0.03562  0.37280  0.89040  Biso   1.000  C
  C6       1.0000 0.53562  0.87280  0.89040  Biso   1.000  C
  C7       1.0000 0.96438  0.37280  0.60960  Biso   1.000  C
  C8       1.0000 0.46438  0.87280  0.60960  Biso   1.000  C
  C9       1.0000 0.88646  0.62650  0.09965  Biso   1.000  C
  C10      1.0000 0.38646  0.12650  0.09965  Biso   1.000  C
  C11      1.0000 0.11354  0.62650  0.40035  Biso   1.000  C
  C12      1.0000 0.61354  0.12650  0.40035  Biso   1.000  C
  C13      1.0000 0.11354  0.37350  0.90035  Biso   1.000  C
  C14      1.0000 0.61354  0.87350  0.90035  Biso   1.000  C
  C15      1.0000 0.88646  0.37350  0.59965  Biso   1.000  C
  C16      1.0000 0.38646  0.87350  0.59965  Biso   1.000  C
  H49      1.0000 0.85880  0.70250  0.09460  Biso   1.000  H
  H50      1.0000 0.35880  0.20250  0.09460  Biso   1.000  H
  H51      1.0000 0.14120  0.70250  0.40540  Biso   1.000  H
  H52      1.0000 0.64120  0.20250  0.40540  Biso   1.000  H
  H53      1.0000 0.14120  0.29750  0.90540  Biso   1.000  H
  H54      1.0000 0.64120  0.79750  0.90540  Biso   1.000  H
  H55      1.0000 0.85880  0.29750  0.59460  Biso   1.000  H
  H56      1.0000 0.35880  0.79750  0.59460  Biso   1.000  H
  C17      1.0000 0.84948  0.51440  0.09710  Biso   1.000  C
  C18      1.0000 0.34948  0.01440  0.09710  Biso   1.000  C
  C19      1.0000 0.15052  0.51440  0.40290  Biso   1.000  C
  C20      1.0000 0.65052  0.01440  0.40290  Biso   1.000  C
  C21      1.0000 0.15052  0.48560  0.90290  Biso   1.000  C
  C22      1.0000 0.65052  0.98560  0.90290  Biso   1.000  C
  C23      1.0000 0.84948  0.48560  0.59710  Biso   1.000  C
  C24      1.0000 0.34948  0.98560  0.59710  Biso   1.000  C
  C25      1.0000 0.89009  0.40400  0.10437  Biso   1.000  C
  C26      1.0000 0.39009  0.90400  0.10437  Biso   1.000  C
  C27      1.0000 0.10991  0.40400  0.39563  Biso   1.000  C
  C28      1.0000 0.60991  0.90400  0.39563  Biso   1.000  C
  C29      1.0000 0.10991  0.59600  0.89563  Biso   1.000  C
  C30      1.0000 0.60991  0.09600  0.89563  Biso   1.000  C
  C31      1.0000 0.89009  0.59600  0.60437  Biso   1.000  C
  C32      1.0000 0.39009  0.09600  0.60437  Biso   1.000  C
  H57      1.0000 0.86400  0.32710  0.10130  Biso   1.000  H
  H58      1.0000 0.36400  0.82710  0.10130  Biso   1.000  H
  H59      1.0000 0.13600  0.32710  0.39870  Biso   1.000  H
  H60      1.0000 0.63600  0.82710  0.39870  Biso   1.000  H
  H61      1.0000 0.13600  0.67290  0.89870  Biso   1.000  H
  H62      1.0000 0.63600  0.17290  0.89870  Biso   1.000  H
  H63      1.0000 0.86400  0.67290  0.60130  Biso   1.000  H
  H64      1.0000 0.36400  0.17290  0.60130  Biso   1.000  H
  C33      1.0000 0.96851  0.40450  0.11602  Biso   1.000  C
  C34      1.0000 0.46851  0.90450  0.11602  Biso   1.000  C
  C35      1.0000 0.03149  0.40450  0.38398  Biso   1.000  C
  C36      1.0000 0.53149  0.90450  0.38398  Biso   1.000  C
  C37      1.0000 0.03149  0.59550  0.88398  Biso   1.000  C
  C38      1.0000 0.53149  0.09550  0.88398  Biso   1.000  C
  C39      1.0000 0.96851  0.59550  0.61602  Biso   1.000  C
  C40      1.0000 0.46851  0.09550  0.61602  Biso   1.000  C
  C41      1.0000 0.00527  0.51630  0.11852  Biso   1.000  C
  C42      1.0000 0.50527  0.01630  0.11852  Biso   1.000  C
  C43      1.0000 0.99473  0.51630  0.38148  Biso   1.000  C
  C44      1.0000 0.49473  0.01630  0.38148  Biso   1.000  C
  C45      1.0000 0.99473  0.48370  0.88148  Biso   1.000  C
  C46      1.0000 0.49473  0.98370  0.88148  Biso   1.000  C
  C47      1.0000 0.00527  0.48370  0.61852  Biso   1.000  C
  C48      1.0000 0.50527  0.98370  0.61852  Biso   1.000  C
  H65      1.0000 0.05890  0.51730  0.12640  Biso   1.000  H
  H66      1.0000 0.55890  0.01730  0.12640  Biso   1.000  H
  H67      1.0000 0.94110  0.51730  0.37360  Biso   1.000  H
  H68      1.0000 0.44110  0.01730  0.37360  Biso   1.000  H
  H69      1.0000 0.94110  0.48270  0.87360  Biso   1.000  H
  H70      1.0000 0.44110  0.98270  0.87360  Biso   1.000  H
  H71      1.0000 0.05890  0.48270  0.62640  Biso   1.000  H
  H72      1.0000 0.55890  0.98270  0.62640  Biso   1.000  H
  C49      1.0000 0.00672  0.74700  0.11572  Biso   1.000  C
  C50      1.0000 0.50672  0.24700  0.11572  Biso   1.000  C
  C51      1.0000 0.99328  0.74700  0.38428  Biso   1.000  C
  C52      1.0000 0.49328  0.24700  0.38428  Biso   1.000  C
  C53      1.0000 0.99328  0.25300  0.88428  Biso   1.000  C
  C54      1.0000 0.49328  0.75300  0.88428  Biso   1.000  C
  C55      1.0000 0.00672  0.25300  0.61572  Biso   1.000  C
  C56      1.0000 0.50672  0.75300  0.61572  Biso   1.000  C
  C57      1.0000 0.76851  0.50920  0.09350  Biso   1.000  C
  C58      1.0000 0.26851  0.00920  0.09350  Biso   1.000  C
  C59      1.0000 0.23149  0.50920  0.40650  Biso   1.000  C
  C60      1.0000 0.73149  0.00920  0.40650  Biso   1.000  C
  C61      1.0000 0.23149  0.49080  0.90650  Biso   1.000  C
  C62      1.0000 0.73149  0.99080  0.90650  Biso   1.000  C
  C63      1.0000 0.76851  0.49080  0.59350  Biso   1.000  C
  C64      1.0000 0.26851  0.99080  0.59350  Biso   1.000  C
  C65      1.0000 0.01408  0.28400  0.12986  Biso   1.000  C
  C66      1.0000 0.51408  0.78400  0.12986  Biso   1.000  C
  C67      1.0000 0.98592  0.28400  0.37014  Biso   1.000  C
  C68      1.0000 0.48592  0.78400  0.37014  Biso   1.000  C
  C69      1.0000 0.98592  0.71600  0.87014  Biso   1.000  C
  C70      1.0000 0.48592  0.21600  0.87014  Biso   1.000  C
  C71      1.0000 0.01408  0.71600  0.62986  Biso   1.000  C
  C72      1.0000 0.51408  0.21600  0.62986  Biso   1.000  C
  O9       1.0000 0.07616  0.73914  0.12297  Biso   1.000  O
  O10      1.0000 0.57616  0.23914  0.12297  Biso   1.000  O
  O11      1.0000 0.92384  0.73914  0.37703  Biso   1.000  O
  O12      1.0000 0.42384  0.23914  0.37703  Biso   1.000  O
  O13      1.0000 0.92384  0.26086  0.87703  Biso   1.000  O
  O14      1.0000 0.42384  0.76086  0.87703  Biso   1.000  O
  O15      1.0000 0.07616  0.26086  0.62297  Biso   1.000  O
  O16      1.0000 0.57616  0.76086  0.62297  Biso   1.000  O
  O17      1.0000 0.97050  0.84508  0.11461  Biso   1.000  O
  O18      1.0000 0.47050  0.34508  0.11461  Biso   1.000  O
  O19      1.0000 0.02950  0.84508  0.38539  Biso   1.000  O
  O20      1.0000 0.52950  0.34508  0.38539  Biso   1.000  O
  O21      1.0000 0.02950  0.15492  0.88539  Biso   1.000  O
  O22      1.0000 0.52950  0.65492  0.88539  Biso   1.000  O
  O23      1.0000 0.97050  0.15492  0.61461  Biso   1.000  O
  O24      1.0000 0.47050  0.65492  0.61461  Biso   1.000  O
  O25      1.0000 0.74220  0.60296  0.11494  Biso   1.000  O
  O26      1.0000 0.24220  0.10296  0.11494  Biso   1.000  O
  O27      1.0000 0.25780  0.60296  0.38506  Biso   1.000  O
  O28      1.0000 0.75780  0.10296  0.38506  Biso   1.000  O
  O29      1.0000 0.25780  0.39704  0.88506  Biso   1.000  O
  O30      1.0000 0.75780  0.89704  0.88506  Biso   1.000  O
  O31      1.0000 0.74220  0.39704  0.61494  Biso   1.000  O
  O32      1.0000 0.24220  0.89704  0.61494  Biso   1.000  O
  O33      1.0000 0.73230  0.40267  0.06767  Biso   1.000  O
  O34      1.0000 0.23230  0.90267  0.06767  Biso   1.000  O
  O35      1.0000 0.26770  0.40267  0.43233  Biso   1.000  O
  O36      1.0000 0.76770  0.90267  0.43233  Biso   1.000  O
  O37      1.0000 0.26770  0.59733  0.93233  Biso   1.000  O
  O38      1.0000 0.76770  0.09733  0.93233  Biso   1.000  O
  O39      1.0000 0.73230  0.59733  0.56767  Biso   1.000  O
  O40      1.0000 0.23230  0.09733  0.56767  Biso   1.000  O
  O41      1.0000 0.96855  0.18697  0.11128  Biso   1.000  O
  O42      1.0000 0.46855  0.68697  0.11128  Biso   1.000  O
  O43      1.0000 0.03145  0.18697  0.38872  Biso   1.000  O
  O44      1.0000 0.53145  0.68697  0.38872  Biso   1.000  O
  O45      1.0000 0.03145  0.81303  0.88872  Biso   1.000  O
  O46      1.0000 0.53145  0.31303  0.88872  Biso   1.000  O
  O47      1.0000 0.96855  0.81303  0.61128  Biso   1.000  O
  O48      1.0000 0.46855  0.31303  0.61128  Biso   1.000  O
  O49      1.0000 0.09002  0.28393  0.15797  Biso   1.000  O
  O50      1.0000 0.59002  0.78393  0.15797  Biso   1.000  O
  O51      1.0000 0.90998  0.28393  0.34203  Biso   1.000  O
  O52      1.0000 0.40998  0.78393  0.34203  Biso   1.000  O
  O53      1.0000 0.90998  0.71607  0.84203  Biso   1.000  O
  O54      1.0000 0.40998  0.21607  0.84203  Biso   1.000  O
  O55      1.0000 0.09002  0.71607  0.65797  Biso   1.000  O
  O56      1.0000 0.59002  0.21607  0.65797  Biso   1.000  O
  O57      1.0000 0.08771  0.98498  0.05567  Biso   1.000  O
  O58      1.0000 0.58771  0.48498  0.05567  Biso   1.000  O
  O59      1.0000 0.91229  0.98498  0.44433  Biso   1.000  O
  O60      1.0000 0.41229  0.48498  0.44433  Biso   1.000  O
  O61      1.0000 0.91229  0.01502  0.94433  Biso   1.000  O
  O62      1.0000 0.41229  0.51502  0.94433  Biso   1.000  O
  O63      1.0000 0.08771  0.01502  0.55567  Biso   1.000  O
  O64      1.0000 0.58771  0.51502  0.55567  Biso   1.000  O
  H73      1.0000 0.12170  0.04680  0.07440  Biso   1.000  H
  H74      1.0000 0.62170  0.54680  0.07440  Biso   1.000  H
  H75      1.0000 0.87830  0.04680  0.42560  Biso   1.000  H
  H76      1.0000 0.37830  0.54680  0.42560  Biso   1.000  H
  H77      1.0000 0.87830  0.95320  0.92560  Biso   1.000  H
  H78      1.0000 0.37830  0.45320  0.92560  Biso   1.000  H
  H79      1.0000 0.12170  0.95320  0.57440  Biso   1.000  H
  H80      1.0000 0.62170  0.45320  0.57440  Biso   1.000  H
  H81      1.0000 0.10700  0.07200  0.31500  Biso   1.000  H
  H82      1.0000 0.60700  0.57200  0.31500  Biso   1.000  H
  H83      1.0000 0.89300  0.07200  0.18500  Biso   1.000  H
  H84      1.0000 0.39300  0.57200  0.18500  Biso   1.000  H
  H85      1.0000 0.89300  0.92800  0.68500  Biso   1.000  H
  H86      1.0000 0.39300  0.42800  0.68500  Biso   1.000  H
  H87      1.0000 0.10700  0.92800  0.81500  Biso   1.000  H
  H88      1.0000 0.60700  0.42800  0.81500  Biso   1.000  H
  H89      1.0000 0.21900  0.64300  0.10600  Biso   1.000  H
  H90      1.0000 0.71900  0.14300  0.10600  Biso   1.000  H
  H91      1.0000 0.78100  0.64300  0.39400  Biso   1.000  H
  H92      1.0000 0.28100  0.14300  0.39400  Biso   1.000  H
  H93      1.0000 0.78100  0.35700  0.89400  Biso   1.000  H
  H94      1.0000 0.28100  0.85700  0.89400  Biso   1.000  H
  H95      1.0000 0.21900  0.35700  0.60600  Biso   1.000  H
  H96      1.0000 0.71900  0.85700  0.60600  Biso   1.000  H
