data_image0
_cell_length_a       13.123
_cell_length_b       6.942
_cell_length_c       9.821
_cell_angle_alpha    90
_cell_angle_beta     107.241
_cell_angle_gamma    90

_symmetry_space_group_name_H-M    "P 1"
_symmetry_int_tables_number       1

loop_
  _symmetry_equiv_pos_as_xyz
  'x, y, z'

loop_
  _atom_site_label
  _atom_site_occupancy
  _atom_site_fract_x
  _atom_site_fract_y
  _atom_site_fract_z
  _atom_site_thermal_displace_type
  _atom_site_B_iso_or_equiv
  _atom_site_type_symbol
  Cu1      1.0000 0.54264  0.00000  0.34370  Biso   1.000  Cu
  Cu2      1.0000 0.45736  0.00000  0.65630  Biso   1.000  Cu
  Cu3      1.0000 0.04264  0.50000  0.34370  Biso   1.000  Cu
  Cu4      1.0000 0.95736  0.50000  0.65630  Biso   1.000  Cu
  Cl1      1.0000 0.37530  0.00000  0.37350  Biso   1.000  Cl
  Cl2      1.0000 0.62470  0.00000  0.62650  Biso   1.000  Cl
  Cl3      1.0000 0.87530  0.50000  0.37350  Biso   1.000  Cl
  Cl4      1.0000 0.12470  0.50000  0.62650  Biso   1.000  Cl
  Cl5      1.0000 0.68030  0.00000  0.25430  Biso   1.000  Cl
  Cl6      1.0000 0.31970  0.00000  0.74570  Biso   1.000  Cl
  Cl7      1.0000 0.18030  0.50000  0.25430  Biso   1.000  Cl
  Cl8      1.0000 0.81970  0.50000  0.74570  Biso   1.000  Cl
  N1       1.0000 0.54039  0.29740  0.33306  Biso   1.000  N
  N2       1.0000 0.45961  0.29740  0.66694  Biso   1.000  N
  N3       1.0000 0.04039  0.79740  0.33306  Biso   1.000  N
  N4       1.0000 0.95961  0.79740  0.66694  Biso   1.000  N
  N5       1.0000 0.45961  0.70260  0.66694  Biso   1.000  N
  N6       1.0000 0.54039  0.70260  0.33306  Biso   1.000  N
  N7       1.0000 0.95961  0.20260  0.66694  Biso   1.000  N
  N8       1.0000 0.04039  0.20260  0.33306  Biso   1.000  N
  C1       1.0000 0.60632  0.39810  0.43580  Biso   1.000  C
  C2       1.0000 0.39368  0.39810  0.56420  Biso   1.000  C
  C3       1.0000 0.10632  0.89810  0.43580  Biso   1.000  C
  C4       1.0000 0.89368  0.89810  0.56420  Biso   1.000  C
  C5       1.0000 0.39368  0.60190  0.56420  Biso   1.000  C
  C6       1.0000 0.60632  0.60190  0.43580  Biso   1.000  C
  C7       1.0000 0.89368  0.10190  0.56420  Biso   1.000  C
  C8       1.0000 0.10632  0.10190  0.43580  Biso   1.000  C
  H1       1.0000 0.65430  0.33310  0.51060  Biso   1.000  H
  H2       1.0000 0.34570  0.33310  0.48940  Biso   1.000  H
  H3       1.0000 0.15430  0.83310  0.51060  Biso   1.000  H
  H4       1.0000 0.84570  0.83310  0.48940  Biso   1.000  H
  H5       1.0000 0.34570  0.66690  0.48940  Biso   1.000  H
  H6       1.0000 0.65430  0.66690  0.51060  Biso   1.000  H
  H7       1.0000 0.84570  0.16690  0.48940  Biso   1.000  H
  H8       1.0000 0.15430  0.16690  0.51060  Biso   1.000  H
  C9       1.0000 0.47492  0.39740  0.21950  Biso   1.000  C
  C10      1.0000 0.52508  0.39740  0.78050  Biso   1.000  C
  C11      1.0000 0.97492  0.89740  0.21950  Biso   1.000  C
  C12      1.0000 0.02508  0.89740  0.78050  Biso   1.000  C
  C13      1.0000 0.52508  0.60260  0.78050  Biso   1.000  C
  C14      1.0000 0.47492  0.60260  0.21950  Biso   1.000  C
  C15      1.0000 0.02508  0.10260  0.78050  Biso   1.000  C
  C16      1.0000 0.97492  0.10260  0.21950  Biso   1.000  C
  C17      1.0000 0.41025  0.29880  0.09960  Biso   1.000  C
  C18      1.0000 0.58975  0.29880  0.90040  Biso   1.000  C
  C19      1.0000 0.91025  0.79880  0.09960  Biso   1.000  C
  C20      1.0000 0.08975  0.79880  0.90040  Biso   1.000  C
  C21      1.0000 0.58975  0.70120  0.90040  Biso   1.000  C
  C22      1.0000 0.41025  0.70120  0.09960  Biso   1.000  C
  C23      1.0000 0.08975  0.20120  0.90040  Biso   1.000  C
  C24      1.0000 0.91025  0.20120  0.09960  Biso   1.000  C
  H9       1.0000 0.40890  0.16480  0.09920  Biso   1.000  H
  H10      1.0000 0.59110  0.16480  0.90080  Biso   1.000  H
  H11      1.0000 0.90890  0.66480  0.09920  Biso   1.000  H
  H12      1.0000 0.09110  0.66480  0.90080  Biso   1.000  H
  H13      1.0000 0.59110  0.83520  0.90080  Biso   1.000  H
  H14      1.0000 0.40890  0.83520  0.09920  Biso   1.000  H
  H15      1.0000 0.09110  0.33520  0.90080  Biso   1.000  H
  H16      1.0000 0.90890  0.33520  0.09920  Biso   1.000  H
  C25      1.0000 0.34939  0.39830  0.98360  Biso   1.000  C
  C26      1.0000 0.65061  0.39830  0.01640  Biso   1.000  C
  C27      1.0000 0.84939  0.89830  0.98360  Biso   1.000  C
  C28      1.0000 0.15061  0.89830  0.01640  Biso   1.000  C
  C29      1.0000 0.65061  0.60170  0.01640  Biso   1.000  C
  C30      1.0000 0.34939  0.60170  0.98360  Biso   1.000  C
  C31      1.0000 0.15061  0.10170  0.01640  Biso   1.000  C
  C32      1.0000 0.84939  0.10170  0.98360  Biso   1.000  C
  H17      1.0000 0.30780  0.33170  0.90440  Biso   1.000  H
  H18      1.0000 0.69220  0.33170  0.09560  Biso   1.000  H
  H19      1.0000 0.80780  0.83170  0.90440  Biso   1.000  H
  H20      1.0000 0.19220  0.83170  0.09560  Biso   1.000  H
  H21      1.0000 0.69220  0.66830  0.09560  Biso   1.000  H
  H22      1.0000 0.30780  0.66830  0.90440  Biso   1.000  H
  H23      1.0000 0.19220  0.16830  0.09560  Biso   1.000  H
  H24      1.0000 0.80780  0.16830  0.90440  Biso   1.000  H
  Br1      1.0000 0.35840  0.00000  0.36000  Biso   1.000  Br
  Br2      1.0000 0.64160  0.00000  0.64000  Biso   1.000  Br
  Br3      1.0000 0.85840  0.50000  0.36000  Biso   1.000  Br
  Br4      1.0000 0.14160  0.50000  0.64000  Biso   1.000  Br
  Br5      1.0000 0.68990  0.00000  0.25100  Biso   1.000  Br
  Br6      1.0000 0.31010  0.00000  0.74900  Biso   1.000  Br
  Br7      1.0000 0.18990  0.50000  0.25100  Biso   1.000  Br
  Br8      1.0000 0.81010  0.50000  0.74900  Biso   1.000  Br
