data_image0
_cell_length_a       8.439
_cell_length_b       9.908
_cell_length_c       12.07
_cell_angle_alpha    79.046
_cell_angle_beta     79.766
_cell_angle_gamma    70.424

_symmetry_space_group_name_H-M    "P 1"
_symmetry_int_tables_number       1

loop_
  _symmetry_equiv_pos_as_xyz
  'x, y, z'

loop_
  _atom_site_label
  _atom_site_occupancy
  _atom_site_fract_x
  _atom_site_fract_y
  _atom_site_fract_z
  _atom_site_thermal_displace_type
  _atom_site_B_iso_or_equiv
  _atom_site_type_symbol
  Cu1      1.0000 0.34171  0.68446  0.32609  Biso   1.000  Cu
  Cu2      1.0000 0.65829  0.31554  0.67391  Biso   1.000  Cu
  O1       1.0000 0.14970  0.66870  0.26315  Biso   1.000  O
  O2       1.0000 0.85030  0.33130  0.73685  Biso   1.000  O
  O3       1.0000 0.08760  0.89590  0.17650  Biso   1.000  O
  O4       1.0000 0.91240  0.10410  0.82350  Biso   1.000  O
  C1       1.0000 0.05840  0.77790  0.20290  Biso   1.000  C
  C2       1.0000 0.94160  0.22210  0.79710  Biso   1.000  C
  C3       1.0000 0.91050  0.75880  0.16140  Biso   1.000  C
  C4       1.0000 0.08950  0.24120  0.83860  Biso   1.000  C
  H1       1.0000 0.81680  0.84650  0.16290  Biso   1.000  H
  H2       1.0000 0.18320  0.15350  0.83710  Biso   1.000  H
  H3       1.0000 0.87810  0.68110  0.20970  Biso   1.000  H
  H4       1.0000 0.12190  0.31890  0.79030  Biso   1.000  H
  H5       1.0000 0.94220  0.73640  0.08490  Biso   1.000  H
  H6       1.0000 0.05780  0.26360  0.91510  Biso   1.000  H
  O5       1.0000 0.52400  0.70999  0.39381  Biso   1.000  O
  O6       1.0000 0.47600  0.29001  0.60619  Biso   1.000  O
  O7       1.0000 0.46200  0.94060  0.31771  Biso   1.000  O
  O8       1.0000 0.53800  0.05940  0.68229  Biso   1.000  O
  C5       1.0000 0.54820  0.83400  0.37570  Biso   1.000  C
  C6       1.0000 0.45180  0.16600  0.62430  Biso   1.000  C
  C7       1.0000 0.68910  0.84350  0.43220  Biso   1.000  C
  C8       1.0000 0.31090  0.15650  0.56780  Biso   1.000  C
  H7       1.0000 0.72440  0.92490  0.39420  Biso   1.000  H
  H8       1.0000 0.27560  0.07510  0.60580  Biso   1.000  H
  H9       1.0000 0.78320  0.75640  0.42800  Biso   1.000  H
  H10      1.0000 0.21680  0.24360  0.57200  Biso   1.000  H
  H11      1.0000 0.64930  0.85520  0.51050  Biso   1.000  H
  H12      1.0000 0.35070  0.14480  0.48950  Biso   1.000  H
  N1       1.0000 0.48870  0.67060  0.17423  Biso   1.000  N
  N2       1.0000 0.51130  0.32940  0.82577  Biso   1.000  N
  N3       1.0000 0.19080  0.71230  0.47620  Biso   1.000  N
  N4       1.0000 0.80920  0.28770  0.52380  Biso   1.000  N
  C9       1.0000 0.59850  0.54640  0.14660  Biso   1.000  C
  C10      1.0000 0.40150  0.45360  0.85340  Biso   1.000  C
  H13      1.0000 0.60560  0.46360  0.19940  Biso   1.000  H
  H14      1.0000 0.39440  0.53640  0.80060  Biso   1.000  H
  C11      1.0000 0.70240  0.53210  0.04500  Biso   1.000  C
  C12      1.0000 0.29760  0.46790  0.95500  Biso   1.000  C
  H15      1.0000 0.77690  0.44200  0.03090  Biso   1.000  H
  H16      1.0000 0.22310  0.55800  0.96910  Biso   1.000  H
  C13      1.0000 0.69550  0.65250  0.96400  Biso   1.000  C
  C14      1.0000 0.30450  0.34750  0.03600  Biso   1.000  C
  C15      1.0000 0.58280  0.78220  0.99230  Biso   1.000  C
  C16      1.0000 0.41720  0.21780  0.00770  Biso   1.000  C
  H17      1.0000 0.57440  0.86670  0.94120  Biso   1.000  H
  H18      1.0000 0.42560  0.13330  0.05880  Biso   1.000  H
  C17      1.0000 0.48190  0.78710  0.09670  Biso   1.000  C
  C18      1.0000 0.51810  0.21290  0.90330  Biso   1.000  C
  H19      1.0000 0.40610  0.87570  0.11330  Biso   1.000  H
  H20      1.0000 0.59390  0.12430  0.88670  Biso   1.000  H
  C19      1.0000 0.11780  0.61210  0.52750  Biso   1.000  C
  C20      1.0000 0.88220  0.38790  0.47250  Biso   1.000  C
  H21      1.0000 0.13800  0.53120  0.49220  Biso   1.000  H
  H22      1.0000 0.86200  0.46880  0.50780  Biso   1.000  H
  C21      1.0000 0.01380  0.62210  0.63000  Biso   1.000  C
  C22      1.0000 0.98620  0.37790  0.37000  Biso   1.000  C
  H23      1.0000 0.96730  0.54870  0.66220  Biso   1.000  H
  H24      1.0000 0.03270  0.45130  0.33780  Biso   1.000  H
  C23      1.0000 0.97900  0.74160  0.68460  Biso   1.000  C
  C24      1.0000 0.02100  0.25840  0.31540  Biso   1.000  C
  C25      1.0000 0.05550  0.84580  0.63120  Biso   1.000  C
  C26      1.0000 0.94450  0.15420  0.36880  Biso   1.000  C
  H25      1.0000 0.03710  0.92780  0.66460  Biso   1.000  H
  H26      1.0000 0.96290  0.07220  0.33540  Biso   1.000  H
  C27      1.0000 0.15830  0.82810  0.52920  Biso   1.000  C
  C28      1.0000 0.84170  0.17190  0.47080  Biso   1.000  C
  H27      1.0000 0.20740  0.89950  0.49540  Biso   1.000  H
  H28      1.0000 0.79260  0.10050  0.50460  Biso   1.000  H
  C29      1.0000 0.86390  0.76360  0.79510  Biso   1.000  C
  C30      1.0000 0.13610  0.23640  0.20490  Biso   1.000  C
  H29      1.0000 0.92260  0.78690  0.84750  Biso   1.000  H
  H30      1.0000 0.07740  0.21310  0.15250  Biso   1.000  H
  H31      1.0000 0.76440  0.84610  0.78090  Biso   1.000  H
  H32      1.0000 0.23560  0.15390  0.21910  Biso   1.000  H
  O9       1.0000 0.43340  0.43360  0.38380  Biso   1.000  O
  O10      1.0000 0.56660  0.56640  0.61620  Biso   1.000  O
  H33      1.0000 0.44900  0.40500  0.44100  Biso   1.000  H
  H34      1.0000 0.55100  0.59500  0.55900  Biso   1.000  H
  H35      1.0000 0.47500  0.35800  0.34600  Biso   1.000  H
  H36      1.0000 0.52500  0.64200  0.65400  Biso   1.000  H
  C31      1.0000 0.80710  0.63550  0.85130  Biso   1.000  C
  C32      1.0000 0.19290  0.36450  0.14870  Biso   1.000  C
  H37      1.0000 0.90700  0.55250  0.86300  Biso   1.000  H
  H38      1.0000 0.09300  0.44750  0.13700  Biso   1.000  H
  H39      1.0000 0.74610  0.61410  0.79930  Biso   1.000  H
  H40      1.0000 0.25390  0.38590  0.20070  Biso   1.000  H
  O11      1.0000 0.83430  0.13510  0.08880  Biso   1.000  O
  O12      1.0000 0.16570  0.86490  0.91120  Biso   1.000  O
  O13      1.0000 0.55980  0.19240  0.26900  Biso   1.000  O
  O14      1.0000 0.44020  0.80760  0.73100  Biso   1.000  O
  H41      1.0000 0.62500  0.18400  0.22300  Biso   1.000  H
  H42      1.0000 0.37500  0.81600  0.77700  Biso   1.000  H
  H43      1.0000 0.53300  0.11400  0.28700  Biso   1.000  H
  H44      1.0000 0.46700  0.88600  0.71300  Biso   1.000  H
  H45      1.0000 0.90600  0.07100  0.11400  Biso   1.000  H
  H46      1.0000 0.09400  0.92900  0.88600  Biso   1.000  H
  H47      1.0000 0.82700  0.11800  0.03800  Biso   1.000  H
  H48      1.0000 0.17300  0.88200  0.96200  Biso   1.000  H
