data_image0
_cell_length_a       9.8851
_cell_length_b       11.0546
_cell_length_c       11.1583
_cell_angle_alpha    105.955
_cell_angle_beta     96.951
_cell_angle_gamma    107.728

_symmetry_space_group_name_H-M    "P 1"
_symmetry_int_tables_number       1

loop_
  _symmetry_equiv_pos_as_xyz
  'x, y, z'

loop_
  _atom_site_label
  _atom_site_occupancy
  _atom_site_fract_x
  _atom_site_fract_y
  _atom_site_fract_z
  _atom_site_thermal_displace_type
  _atom_site_B_iso_or_equiv
  _atom_site_type_symbol
  Cu1      1.0000 0.79173  0.50960  0.39203  Biso   1.000  Cu
  Cu2      1.0000 0.20827  0.49040  0.60797  Biso   1.000  Cu
  O1       1.0000 0.74550  0.38761  0.49110  Biso   1.000  O
  O2       1.0000 0.25450  0.61239  0.50890  Biso   1.000  O
  O3       1.0000 0.96580  0.37730  0.54170  Biso   1.000  O
  O4       1.0000 0.03420  0.62270  0.45830  Biso   1.000  O
  O5       1.0000 0.88270  0.21170  0.67030  Biso   1.000  O
  O6       1.0000 0.11730  0.78830  0.32970  Biso   1.000  O
  H1       1.0000 0.96600  0.25950  0.67420  Biso   1.000  H
  H2       1.0000 0.03400  0.74050  0.32580  Biso   1.000  H
  C1       1.0000 0.83750  0.35180  0.54860  Biso   1.000  C
  C2       1.0000 0.16250  0.64820  0.45140  Biso   1.000  C
  C3       1.0000 0.78400  0.27330  0.63790  Biso   1.000  C
  C4       1.0000 0.21600  0.72670  0.36210  Biso   1.000  C
  C5       1.0000 0.78400  0.37720  0.76400  Biso   1.000  C
  C6       1.0000 0.21600  0.62280  0.23600  Biso   1.000  C
  H3       1.0000 0.75890  0.33260  0.82510  Biso   1.000  H
  H4       1.0000 0.24110  0.66740  0.17490  Biso   1.000  H
  H5       1.0000 0.71390  0.41790  0.74710  Biso   1.000  H
  H6       1.0000 0.28610  0.58210  0.25290  Biso   1.000  H
  H7       1.0000 0.87910  0.44550  0.79770  Biso   1.000  H
  H8       1.0000 0.12090  0.55450  0.20230  Biso   1.000  H
  C7       1.0000 0.63800  0.16730  0.57930  Biso   1.000  C
  C8       1.0000 0.36200  0.83270  0.42070  Biso   1.000  C
  H9       1.0000 0.64190  0.10570  0.50120  Biso   1.000  H
  H10      1.0000 0.35810  0.89430  0.49880  Biso   1.000  H
  H11      1.0000 0.56850  0.20810  0.56120  Biso   1.000  H
  H12      1.0000 0.43150  0.79190  0.43880  Biso   1.000  H
  H13      1.0000 0.60930  0.11960  0.63740  Biso   1.000  H
  H14      1.0000 0.39070  0.88040  0.36260  Biso   1.000  H
  O7       1.0000 0.80210  0.62388  0.28261  Biso   1.000  O
  O8       1.0000 0.19790  0.37612  0.71739  Biso   1.000  O
  O9       1.0000 0.56120  0.55770  0.23640  Biso   1.000  O
  O10      1.0000 0.43880  0.44230  0.76360  Biso   1.000  O
  O11      1.0000 0.55110  0.70960  0.09700  Biso   1.000  O
  O12      1.0000 0.44890  0.29040  0.90300  Biso   1.000  O
  C9       1.0000 0.68220  0.62610  0.22980  Biso   1.000  C
  C10      1.0000 0.31780  0.37390  0.77020  Biso   1.000  C
  C11      1.0000 0.69400  0.72220  0.15150  Biso   1.000  C
  C12      1.0000 0.30600  0.27780  0.84850  Biso   1.000  C
  C13      1.0000 0.77090  0.68340  0.04470  Biso   1.000  C
  C14      1.0000 0.22910  0.31660  0.95530  Biso   1.000  C
  H15      1.0000 0.71380  0.59460  0.98740  Biso   1.000  H
  H16      1.0000 0.28620  0.40540  0.01260  Biso   1.000  H
  H17      1.0000 0.86490  0.68510  0.08070  Biso   1.000  H
  H18      1.0000 0.13510  0.31490  0.91930  Biso   1.000  H
  H19      1.0000 0.78240  0.74620  0.99860  Biso   1.000  H
  H20      1.0000 0.21760  0.25380  0.00140  Biso   1.000  H
  C15      1.0000 0.77430  0.86670  0.23920  Biso   1.000  C
  C16      1.0000 0.22570  0.13330  0.76080  Biso   1.000  C
  H21      1.0000 0.77970  0.92650  0.19030  Biso   1.000  H
  H22      1.0000 0.22030  0.07350  0.80970  Biso   1.000  H
  H23      1.0000 0.87100  0.87640  0.27760  Biso   1.000  H
  H24      1.0000 0.12900  0.12360  0.72240  Biso   1.000  H
  H25      1.0000 0.72290  0.88820  0.30490  Biso   1.000  H
  H26      1.0000 0.27710  0.11180  0.69510  Biso   1.000  H
  N1       1.0000 0.75530  0.65040  0.53290  Biso   1.000  N
  N2       1.0000 0.24470  0.34960  0.46710  Biso   1.000  N
  N3       1.0000 0.79790  0.36010  0.24150  Biso   1.000  N
  N4       1.0000 0.20210  0.63990  0.75850  Biso   1.000  N
  C17      1.0000 0.66570  0.61720  0.60900  Biso   1.000  C
  C18      1.0000 0.33430  0.38280  0.39100  Biso   1.000  C
  H27      1.0000 0.61940  0.52660  0.59740  Biso   1.000  H
  H28      1.0000 0.38060  0.47340  0.40260  Biso   1.000  H
  C19      1.0000 0.63900  0.71140  0.70370  Biso   1.000  C
  C20      1.0000 0.36100  0.28860  0.29630  Biso   1.000  C
  H29      1.0000 0.57640  0.68380  0.75460  Biso   1.000  H
  H30      1.0000 0.42360  0.31620  0.24540  Biso   1.000  H
  C21      1.0000 0.70580  0.84790  0.72300  Biso   1.000  C
  C22      1.0000 0.29420  0.15210  0.27700  Biso   1.000  C
  C23      1.0000 0.79650  0.88100  0.64330  Biso   1.000  C
  C24      1.0000 0.20350  0.11900  0.35670  Biso   1.000  C
  H31      1.0000 0.84180  0.97080  0.65140  Biso   1.000  H
  H32      1.0000 0.15820  0.02920  0.34860  Biso   1.000  H
  C25      1.0000 0.82040  0.78220  0.55180  Biso   1.000  C
  C26      1.0000 0.17960  0.21780  0.44820  Biso   1.000  C
  H33      1.0000 0.88410  0.80770  0.50090  Biso   1.000  H
  H34      1.0000 0.11590  0.19230  0.49910  Biso   1.000  H
  C27      1.0000 0.68130  0.95390  0.82780  Biso   1.000  C
  C28      1.0000 0.31870  0.04610  0.17220  Biso   1.000  C
  H35      1.0000 0.63600  0.00500  0.78960  Biso   1.000  H
  H36      1.0000 0.36400  0.99500  0.21040  Biso   1.000  H
  H37      1.0000 0.61460  0.90990  0.87280  Biso   1.000  H
  H38      1.0000 0.38540  0.09010  0.12720  Biso   1.000  H
  C29      1.0000 0.81890  0.04790  0.92120  Biso   1.000  C
  C30      1.0000 0.18110  0.95210  0.07880  Biso   1.000  C
  H39      1.0000 0.88290  0.09330  0.87530  Biso   1.000  H
  H40      1.0000 0.11710  0.90670  0.12470  Biso   1.000  H
  H41      1.0000 0.86610  0.99470  0.95410  Biso   1.000  H
  H42      1.0000 0.13390  0.00530  0.04590  Biso   1.000  H
  C31      1.0000 0.80660  0.15370  0.03380  Biso   1.000  C
  C32      1.0000 0.19340  0.84630  0.96620  Biso   1.000  C
  C33      1.0000 0.69540  0.20520  0.02890  Biso   1.000  C
  C34      1.0000 0.30460  0.79480  0.97110  Biso   1.000  C
  H43      1.0000 0.62080  0.17070  0.95590  Biso   1.000  H
  H44      1.0000 0.37920  0.82930  0.04410  Biso   1.000  H
  C35      1.0000 0.69600  0.30830  0.13310  Biso   1.000  C
  C36      1.0000 0.30400  0.69170  0.86690  Biso   1.000  C
  H45      1.0000 0.62170  0.34300  0.12730  Biso   1.000  H
  H46      1.0000 0.37830  0.65700  0.87270  Biso   1.000  H
  C37      1.0000 0.91220  0.20860  0.14580  Biso   1.000  C
  C38      1.0000 0.08780  0.79140  0.85420  Biso   1.000  C
  H47      1.0000 0.98880  0.17690  0.15310  Biso   1.000  H
  H48      1.0000 0.01120  0.82310  0.84690  Biso   1.000  H
  C39      1.0000 0.90550  0.30980  0.24700  Biso   1.000  C
  C40      1.0000 0.09450  0.69020  0.75300  Biso   1.000  C
  H49      1.0000 0.97780  0.34450  0.32160  Biso   1.000  H
  H50      1.0000 0.02220  0.65550  0.67840  Biso   1.000  H
  H51      1.0000 0.50300  0.63800  0.11400  Biso   1.000  H
  H52      1.0000 0.49700  0.36200  0.88600  Biso   1.000  H
