data_image0
_cell_length_a       11.146
_cell_length_b       7.753
_cell_length_c       16.572
_cell_angle_alpha    90
_cell_angle_beta     106.63
_cell_angle_gamma    90

_symmetry_space_group_name_H-M    "P 1"
_symmetry_int_tables_number       1

loop_
  _symmetry_equiv_pos_as_xyz
  'x, y, z'

loop_
  _atom_site_label
  _atom_site_occupancy
  _atom_site_fract_x
  _atom_site_fract_y
  _atom_site_fract_z
  _atom_site_thermal_displace_type
  _atom_site_B_iso_or_equiv
  _atom_site_type_symbol
  Cu1      1.0000 0.50000  0.50000  0.00000  Biso   1.000  Cu
  Cu2      1.0000 0.00000  0.00000  0.50000  Biso   1.000  Cu
  S1       1.0000 0.46637  0.19281  0.84630  Biso   1.000  S
  S2       1.0000 0.03363  0.69281  0.65370  Biso   1.000  S
  S3       1.0000 0.53363  0.80719  0.15370  Biso   1.000  S
  S4       1.0000 0.96637  0.30719  0.34630  Biso   1.000  S
  N1       1.0000 0.31744  0.47920  0.99693  Biso   1.000  N
  N2       1.0000 0.18256  0.97920  0.50307  Biso   1.000  N
  N3       1.0000 0.68256  0.52080  0.00307  Biso   1.000  N
  N4       1.0000 0.81744  0.02080  0.49693  Biso   1.000  N
  O1       1.0000 0.45612  0.37554  0.86324  Biso   1.000  O
  O2       1.0000 0.04388  0.87554  0.63676  Biso   1.000  O
  O3       1.0000 0.54388  0.62446  0.13676  Biso   1.000  O
  O4       1.0000 0.95612  0.12446  0.36324  Biso   1.000  O
  O5       1.0000 0.43733  0.08400  0.91014  Biso   1.000  O
  O6       1.0000 0.06267  0.58400  0.58986  Biso   1.000  O
  O7       1.0000 0.56267  0.91600  0.08986  Biso   1.000  O
  O8       1.0000 0.93733  0.41600  0.41014  Biso   1.000  O
  O9       1.0000 0.39566  0.14620  0.76111  Biso   1.000  O
  O10      1.0000 0.10434  0.64620  0.73889  Biso   1.000  O
  O11      1.0000 0.60434  0.85380  0.23889  Biso   1.000  O
  O12      1.0000 0.89566  0.35380  0.26111  Biso   1.000  O
  O13      1.0000 0.45910  0.71980  0.93728  Biso   1.000  O
  O14      1.0000 0.04090  0.21980  0.56272  Biso   1.000  O
  O15      1.0000 0.54090  0.28020  0.06272  Biso   1.000  O
  O16      1.0000 0.95910  0.78020  0.43728  Biso   1.000  O
  H1       1.0000 0.45110  0.72750  0.88450  Biso   1.000  H
  H2       1.0000 0.04890  0.22750  0.61550  Biso   1.000  H
  H3       1.0000 0.54890  0.27250  0.11550  Biso   1.000  H
  H4       1.0000 0.95110  0.77250  0.38450  Biso   1.000  H
  H5       1.0000 0.48480  0.82320  0.96240  Biso   1.000  H
  H6       1.0000 0.01520  0.32320  0.53760  Biso   1.000  H
  H7       1.0000 0.51520  0.17680  0.03760  Biso   1.000  H
  H8       1.0000 0.98480  0.67680  0.46240  Biso   1.000  H
  C1       1.0000 0.22574  0.52060  0.92778  Biso   1.000  C
  C2       1.0000 0.27426  0.02060  0.57222  Biso   1.000  C
  C3       1.0000 0.77426  0.47940  0.07222  Biso   1.000  C
  C4       1.0000 0.72574  0.97940  0.42778  Biso   1.000  C
  H9       1.0000 0.24670  0.54560  0.87860  Biso   1.000  H
  H10      1.0000 0.25330  0.04560  0.62140  Biso   1.000  H
  H11      1.0000 0.75330  0.45440  0.12140  Biso   1.000  H
  H12      1.0000 0.74670  0.95440  0.37860  Biso   1.000  H
  C5       1.0000 0.10118  0.52790  0.92617  Biso   1.000  C
  C6       1.0000 0.39882  0.02790  0.57383  Biso   1.000  C
  C7       1.0000 0.89882  0.47210  0.07383  Biso   1.000  C
  C8       1.0000 0.60118  0.97210  0.42617  Biso   1.000  C
  H13      1.0000 0.04050  0.55590  0.87640  Biso   1.000  H
  H14      1.0000 0.45950  0.05590  0.62360  Biso   1.000  H
  H15      1.0000 0.95950  0.44410  0.12360  Biso   1.000  H
  H16      1.0000 0.54050  0.94410  0.37640  Biso   1.000  H
  C9       1.0000 0.06633  0.49340  0.99879  Biso   1.000  C
  C10      1.0000 0.43367  0.99340  0.50121  Biso   1.000  C
  C11      1.0000 0.93367  0.50660  0.00121  Biso   1.000  C
  C12      1.0000 0.56633  0.00660  0.49879  Biso   1.000  C
  C13      1.0000 0.16199  0.44600  0.06947  Biso   1.000  C
  C14      1.0000 0.33801  0.94600  0.43053  Biso   1.000  C
  C15      1.0000 0.83801  0.55400  0.93053  Biso   1.000  C
  C16      1.0000 0.66199  0.05400  0.56947  Biso   1.000  C
  H17      1.0000 0.14350  0.41830  0.11920  Biso   1.000  H
  H18      1.0000 0.35650  0.91830  0.38080  Biso   1.000  H
  H19      1.0000 0.85650  0.58170  0.88080  Biso   1.000  H
  H20      1.0000 0.64350  0.08170  0.61920  Biso   1.000  H
  C17      1.0000 0.28457  0.43990  0.06644  Biso   1.000  C
  C18      1.0000 0.21543  0.93990  0.43356  Biso   1.000  C
  C19      1.0000 0.71543  0.56010  0.93356  Biso   1.000  C
  C20      1.0000 0.78457  0.06010  0.56644  Biso   1.000  C
  H21      1.0000 0.34670  0.40700  0.11460  Biso   1.000  H
  H22      1.0000 0.15330  0.90700  0.38540  Biso   1.000  H
  H23      1.0000 0.65330  0.59300  0.88540  Biso   1.000  H
  H24      1.0000 0.84670  0.09300  0.61460  Biso   1.000  H
  C21      1.0000 0.62636  0.15520  0.85305  Biso   1.000  C
  C22      1.0000 0.87364  0.65520  0.64695  Biso   1.000  C
  C23      1.0000 0.37364  0.84480  0.14695  Biso   1.000  C
  C24      1.0000 0.12636  0.34480  0.35305  Biso   1.000  C
  C25      1.0000 0.70310  0.06560  0.91996  Biso   1.000  C
  C26      1.0000 0.79690  0.56560  0.58004  Biso   1.000  C
  C27      1.0000 0.29690  0.93440  0.08004  Biso   1.000  C
  C28      1.0000 0.20310  0.43440  0.41996  Biso   1.000  C
  H25      1.0000 0.67160  0.02150  0.96200  Biso   1.000  H
  H26      1.0000 0.82840  0.52150  0.53800  Biso   1.000  H
  H27      1.0000 0.32840  0.97850  0.03800  Biso   1.000  H
  H28      1.0000 0.17160  0.47850  0.46200  Biso   1.000  H
  C29      1.0000 0.82820  0.04200  0.92370  Biso   1.000  C
  C30      1.0000 0.67180  0.54200  0.57630  Biso   1.000  C
  C31      1.0000 0.17180  0.95800  0.07630  Biso   1.000  C
  C32      1.0000 0.32820  0.45800  0.42370  Biso   1.000  C
  H29      1.0000 0.88050  0.98070  0.96820  Biso   1.000  H
  H30      1.0000 0.61950  0.48070  0.53180  Biso   1.000  H
  H31      1.0000 0.11950  0.01930  0.03180  Biso   1.000  H
  H32      1.0000 0.38050  0.51930  0.46820  Biso   1.000  H
  C33      1.0000 0.87520  0.10900  0.86190  Biso   1.000  C
  C34      1.0000 0.62480  0.60900  0.63810  Biso   1.000  C
  C35      1.0000 0.12480  0.89100  0.13810  Biso   1.000  C
  C36      1.0000 0.37520  0.39100  0.36190  Biso   1.000  C
  H33      1.0000 0.95910  0.09300  0.86500  Biso   1.000  H
  H34      1.0000 0.54090  0.59300  0.63500  Biso   1.000  H
  H35      1.0000 0.04090  0.90700  0.13500  Biso   1.000  H
  H36      1.0000 0.45910  0.40700  0.36500  Biso   1.000  H
  C37      1.0000 0.79810  0.19970  0.79540  Biso   1.000  C
  C38      1.0000 0.70190  0.69970  0.70460  Biso   1.000  C
  C39      1.0000 0.20190  0.80030  0.20460  Biso   1.000  C
  C40      1.0000 0.29810  0.30030  0.29540  Biso   1.000  C
  H37      1.0000 0.83020  0.24490  0.75390  Biso   1.000  H
  H38      1.0000 0.66980  0.74490  0.74610  Biso   1.000  H
  H39      1.0000 0.16980  0.75510  0.24610  Biso   1.000  H
  H40      1.0000 0.33020  0.25510  0.25390  Biso   1.000  H
  C41      1.0000 0.67260  0.22370  0.79028  Biso   1.000  C
  C42      1.0000 0.82740  0.72370  0.70972  Biso   1.000  C
  C43      1.0000 0.32740  0.77630  0.20972  Biso   1.000  C
  C44      1.0000 0.17260  0.27630  0.29028  Biso   1.000  C
  H41      1.0000 0.62030  0.28470  0.74560  Biso   1.000  H
  H42      1.0000 0.87970  0.78470  0.75440  Biso   1.000  H
  H43      1.0000 0.37970  0.71530  0.25440  Biso   1.000  H
  H44      1.0000 0.12030  0.21530  0.24560  Biso   1.000  H
  O17      1.0000 0.83342  0.01350  0.16227  Biso   1.000  O
  O18      1.0000 0.66658  0.51350  0.33773  Biso   1.000  O
  O19      1.0000 0.16658  0.98650  0.83773  Biso   1.000  O
  O20      1.0000 0.33342  0.48650  0.66227  Biso   1.000  O
  H45      1.0000 0.74700  0.01540  0.14010  Biso   1.000  H
  H46      1.0000 0.75300  0.51540  0.35990  Biso   1.000  H
  H47      1.0000 0.25300  0.98460  0.85990  Biso   1.000  H
  H48      1.0000 0.24700  0.48460  0.64010  Biso   1.000  H
  H49      1.0000 0.83990  0.12320  0.19780  Biso   1.000  H
  H50      1.0000 0.66010  0.62320  0.30220  Biso   1.000  H
  H51      1.0000 0.16010  0.87680  0.80220  Biso   1.000  H
  H52      1.0000 0.33990  0.37680  0.69780  Biso   1.000  H
  O21      1.0000 0.56640  0.24070  0.22518  Biso   1.000  O
  O22      1.0000 0.93360  0.74070  0.27482  Biso   1.000  O
  O23      1.0000 0.43360  0.75930  0.77482  Biso   1.000  O
  O24      1.0000 0.06640  0.25930  0.72518  Biso   1.000  O
  H53      1.0000 0.59510  0.13280  0.24650  Biso   1.000  H
  H54      1.0000 0.90490  0.63280  0.25350  Biso   1.000  H
  H55      1.0000 0.40490  0.86720  0.75350  Biso   1.000  H
  H56      1.0000 0.09510  0.36720  0.74650  Biso   1.000  H
  H57      1.0000 0.60700  0.32290  0.26020  Biso   1.000  H
  H58      1.0000 0.89300  0.82290  0.23980  Biso   1.000  H
  H59      1.0000 0.39300  0.67710  0.73980  Biso   1.000  H
  H60      1.0000 0.10700  0.17710  0.76020  Biso   1.000  H
