data_image0
_cell_length_a       10.733
_cell_length_b       9.069
_cell_length_c       16.58
_cell_angle_alpha    90
_cell_angle_beta     129.773
_cell_angle_gamma    90

_symmetry_space_group_name_H-M    "P 1"
_symmetry_int_tables_number       1

loop_
  _symmetry_equiv_pos_as_xyz
  'x, y, z'

loop_
  _atom_site_label
  _atom_site_occupancy
  _atom_site_fract_x
  _atom_site_fract_y
  _atom_site_fract_z
  _atom_site_thermal_displace_type
  _atom_site_B_iso_or_equiv
  _atom_site_type_symbol
  Cu1      1.0000 0.99905  0.75177  0.92273  Biso   1.000  Cu
  Cu2      1.0000 0.00095  0.25177  0.57727  Biso   1.000  Cu
  Cu3      1.0000 0.00095  0.24823  0.07727  Biso   1.000  Cu
  Cu4      1.0000 0.99905  0.74823  0.42273  Biso   1.000  Cu
  N1       1.0000 0.82400  0.88030  0.80591  Biso   1.000  N
  N2       1.0000 0.17600  0.38030  0.69409  Biso   1.000  N
  N3       1.0000 0.17600  0.11970  0.19409  Biso   1.000  N
  N4       1.0000 0.82400  0.61970  0.30591  Biso   1.000  N
  N5       1.0000 0.94910  0.16180  0.66414  Biso   1.000  N
  N6       1.0000 0.05090  0.66180  0.83586  Biso   1.000  N
  N7       1.0000 0.05090  0.83820  0.33586  Biso   1.000  N
  N8       1.0000 0.94910  0.33820  0.16414  Biso   1.000  N
  H1       1.0000 0.97880  0.06640  0.67470  Biso   1.000  H
  H2       1.0000 0.02120  0.56640  0.82530  Biso   1.000  H
  H3       1.0000 0.02120  0.93360  0.32530  Biso   1.000  H
  H4       1.0000 0.97880  0.43360  0.17470  Biso   1.000  H
  H5       1.0000 0.01240  0.20620  0.72730  Biso   1.000  H
  H6       1.0000 0.98760  0.70620  0.77270  Biso   1.000  H
  H7       1.0000 0.98760  0.79380  0.27270  Biso   1.000  H
  H8       1.0000 0.01240  0.29380  0.22730  Biso   1.000  H
  C1       1.0000 0.85840  0.97670  0.76100  Biso   1.000  C
  C2       1.0000 0.14160  0.47670  0.73900  Biso   1.000  C
  C3       1.0000 0.14160  0.02330  0.23900  Biso   1.000  C
  C4       1.0000 0.85840  0.52330  0.26100  Biso   1.000  C
  H9       1.0000 0.96520  0.98470  0.78790  Biso   1.000  H
  H10      1.0000 0.03480  0.48470  0.71210  Biso   1.000  H
  H11      1.0000 0.03480  0.01530  0.21210  Biso   1.000  H
  H12      1.0000 0.96520  0.51530  0.28790  Biso   1.000  H
  C5       1.0000 0.74230  0.06440  0.67670  Biso   1.000  C
  C6       1.0000 0.25770  0.56440  0.82330  Biso   1.000  C
  C7       1.0000 0.25770  0.93560  0.32330  Biso   1.000  C
  C8       1.0000 0.74230  0.43560  0.17670  Biso   1.000  C
  C9       1.0000 0.58530  0.05170  0.63960  Biso   1.000  C
  C10      1.0000 0.41470  0.55170  0.86040  Biso   1.000  C
  C11      1.0000 0.41470  0.94830  0.36040  Biso   1.000  C
  C12      1.0000 0.58530  0.44830  0.13960  Biso   1.000  C
  H13      1.0000 0.50360  0.10840  0.58270  Biso   1.000  H
  H14      1.0000 0.49640  0.60840  0.91730  Biso   1.000  H
  H15      1.0000 0.49640  0.89160  0.41730  Biso   1.000  H
  H16      1.0000 0.50360  0.39160  0.08270  Biso   1.000  H
  C13      1.0000 0.54870  0.95610  0.68600  Biso   1.000  C
  C14      1.0000 0.45130  0.45610  0.81400  Biso   1.000  C
  C15      1.0000 0.45130  0.04390  0.31400  Biso   1.000  C
  C16      1.0000 0.54870  0.54390  0.18600  Biso   1.000  C
  H17      1.0000 0.44340  0.94860  0.66200  Biso   1.000  H
  H18      1.0000 0.55660  0.44860  0.83800  Biso   1.000  H
  H19      1.0000 0.55660  0.05140  0.33800  Biso   1.000  H
  H20      1.0000 0.44340  0.55140  0.16200  Biso   1.000  H
  C17      1.0000 0.67180  0.87120  0.76910  Biso   1.000  C
  C18      1.0000 0.32820  0.37120  0.73090  Biso   1.000  C
  C19      1.0000 0.32820  0.12880  0.23090  Biso   1.000  C
  C20      1.0000 0.67180  0.62880  0.26910  Biso   1.000  C
  H21      1.0000 0.64750  0.80540  0.80030  Biso   1.000  H
  H22      1.0000 0.35250  0.30540  0.69970  Biso   1.000  H
  H23      1.0000 0.35250  0.19460  0.19970  Biso   1.000  H
  H24      1.0000 0.64750  0.69460  0.30030  Biso   1.000  H
  C21      1.0000 0.78240  0.16790  0.62430  Biso   1.000  C
  C22      1.0000 0.21760  0.66790  0.87570  Biso   1.000  C
  C23      1.0000 0.21760  0.83210  0.37570  Biso   1.000  C
  C24      1.0000 0.78240  0.33210  0.12430  Biso   1.000  C
  H25      1.0000 0.71050  0.14580  0.54980  Biso   1.000  H
  H26      1.0000 0.28950  0.64580  0.95020  Biso   1.000  H
  H27      1.0000 0.28950  0.85420  0.45020  Biso   1.000  H
  H28      1.0000 0.71050  0.35420  0.04980  Biso   1.000  H
  H29      1.0000 0.75970  0.26800  0.63210  Biso   1.000  H
  H30      1.0000 0.24030  0.76800  0.86790  Biso   1.000  H
  H31      1.0000 0.24030  0.73200  0.36790  Biso   1.000  H
  H32      1.0000 0.75970  0.23200  0.13210  Biso   1.000  H
  C25      1.0000 0.98290  0.69530  0.07810  Biso   1.000  C
  C26      1.0000 0.01710  0.19530  0.42190  Biso   1.000  C
  C27      1.0000 0.01710  0.30470  0.92190  Biso   1.000  C
  C28      1.0000 0.98290  0.80470  0.57810  Biso   1.000  C
  C29      1.0000 0.12370  0.59980  0.10220  Biso   1.000  C
  C30      1.0000 0.87630  0.09980  0.39780  Biso   1.000  C
  C31      1.0000 0.87630  0.40020  0.89780  Biso   1.000  C
  C32      1.0000 0.12370  0.90020  0.60220  Biso   1.000  C
  O1       1.0000 0.91600  0.78050  0.99880  Biso   1.000  O
  O2       1.0000 0.08400  0.28050  0.50120  Biso   1.000  O
  O3       1.0000 0.08400  0.21950  0.00120  Biso   1.000  O
  O4       1.0000 0.91600  0.71950  0.49880  Biso   1.000  O
  O5       1.0000 0.14650  0.61300  0.03635  Biso   1.000  O
  O6       1.0000 0.85350  0.11300  0.46365  Biso   1.000  O
  O7       1.0000 0.85350  0.38700  0.96365  Biso   1.000  O
  O8       1.0000 0.14650  0.88700  0.53635  Biso   1.000  O
  O9       1.0000 0.94350  0.68440  0.13291  Biso   1.000  O
  O10      1.0000 0.05650  0.18440  0.36709  Biso   1.000  O
  O11      1.0000 0.05650  0.31560  0.86709  Biso   1.000  O
  O12      1.0000 0.94350  0.81560  0.63291  Biso   1.000  O
  O13      1.0000 0.19890  0.51870  0.17918  Biso   1.000  O
  O14      1.0000 0.80110  0.01870  0.32082  Biso   1.000  O
  O15      1.0000 0.80110  0.48130  0.82082  Biso   1.000  O
  O16      1.0000 0.19890  0.98130  0.67918  Biso   1.000  O
  O17      1.0000 0.18040  0.93420  0.99866  Biso   1.000  O
  O18      1.0000 0.81960  0.43420  0.50134  Biso   1.000  O
  O19      1.0000 0.81960  0.06580  0.00134  Biso   1.000  O
  O20      1.0000 0.18040  0.56580  0.49866  Biso   1.000  O
  H33      1.0000 0.27110  0.90010  0.04410  Biso   1.000  H
  H34      1.0000 0.72890  0.40010  0.45590  Biso   1.000  H
  H35      1.0000 0.72890  0.09990  0.95590  Biso   1.000  H
  H36      1.0000 0.27110  0.59990  0.54410  Biso   1.000  H
  H37      1.0000 0.15870  0.01430  0.00380  Biso   1.000  H
  H38      1.0000 0.84130  0.51430  0.49620  Biso   1.000  H
  H39      1.0000 0.84130  0.98570  0.99620  Biso   1.000  H
  H40      1.0000 0.15870  0.48570  0.50380  Biso   1.000  H
  O21      1.0000 0.48910  0.45860  0.37770  Biso   1.000  O
  O22      1.0000 0.51090  0.95860  0.12230  Biso   1.000  O
  O23      1.0000 0.51090  0.54140  0.62230  Biso   1.000  O
  O24      1.0000 0.48910  0.04140  0.87770  Biso   1.000  O
  H41      1.0000 0.42290  0.49030  0.32090  Biso   1.000  H
  H42      1.0000 0.57710  0.99030  0.17910  Biso   1.000  H
  H43      1.0000 0.57710  0.50970  0.67910  Biso   1.000  H
  H44      1.0000 0.42290  0.00970  0.82090  Biso   1.000  H
  H45      1.0000 0.45070  0.41140  0.39740  Biso   1.000  H
  H46      1.0000 0.54930  0.91140  0.10260  Biso   1.000  H
  H47      1.0000 0.54930  0.58860  0.60260  Biso   1.000  H
  H48      1.0000 0.45070  0.08860  0.89740  Biso   1.000  H
  O25      1.0000 0.63610  0.68500  0.54290  Biso   1.000  O
  O26      1.0000 0.36390  0.18500  0.95710  Biso   1.000  O
  O27      1.0000 0.36390  0.31500  0.45710  Biso   1.000  O
  O28      1.0000 0.63610  0.81500  0.04290  Biso   1.000  O
  H49      1.0000 0.72580  0.71730  0.57270  Biso   1.000  H
  H50      1.0000 0.27420  0.21730  0.92730  Biso   1.000  H
  H51      1.0000 0.27420  0.28270  0.42730  Biso   1.000  H
  H52      1.0000 0.72580  0.78270  0.07270  Biso   1.000  H
  H53      1.0000 0.60600  0.62690  0.49570  Biso   1.000  H
  H54      1.0000 0.39400  0.12690  0.00430  Biso   1.000  H
  H55      1.0000 0.39400  0.37310  0.50430  Biso   1.000  H
  H56      1.0000 0.60600  0.87310  0.99570  Biso   1.000  H
