data_image0
_cell_length_a       6.9716
_cell_length_b       17.1603
_cell_length_c       35.5558
_cell_angle_alpha    90
_cell_angle_beta     90
_cell_angle_gamma    90

_symmetry_space_group_name_H-M    "P 1"
_symmetry_int_tables_number       1

loop_
  _symmetry_equiv_pos_as_xyz
  'x, y, z'

loop_
  _atom_site_label
  _atom_site_occupancy
  _atom_site_fract_x
  _atom_site_fract_y
  _atom_site_fract_z
  _atom_site_thermal_displace_type
  _atom_site_B_iso_or_equiv
  _atom_site_type_symbol
  Cu1      1.0000 0.43729  0.32151  0.03282  Biso   1.000  Cu
  Cu2      1.0000 0.06271  0.67849  0.53282  Biso   1.000  Cu
  Cu3      1.0000 0.56271  0.82151  0.46718  Biso   1.000  Cu
  Cu4      1.0000 0.93729  0.17849  0.96718  Biso   1.000  Cu
  O1       1.0000 0.22000  0.26000  0.01510  Biso   1.000  O
  O2       1.0000 0.28000  0.74000  0.51510  Biso   1.000  O
  O3       1.0000 0.78000  0.76000  0.48490  Biso   1.000  O
  O4       1.0000 0.72000  0.24000  0.98490  Biso   1.000  O
  O5       1.0000 0.35080  0.32430  0.08370  Biso   1.000  O
  O6       1.0000 0.14920  0.67570  0.58370  Biso   1.000  O
  O7       1.0000 0.64920  0.82430  0.41630  Biso   1.000  O
  O8       1.0000 0.85080  0.17570  0.91630  Biso   1.000  O
  O9       1.0000 0.49860  0.32990  0.97910  Biso   1.000  O
  O10      1.0000 0.00140  0.67010  0.47910  Biso   1.000  O
  O11      1.0000 0.50140  0.82990  0.52090  Biso   1.000  O
  O12      1.0000 0.99860  0.17010  0.02090  Biso   1.000  O
  O13      1.0000 0.67260  0.37760  0.04120  Biso   1.000  O
  O14      1.0000 0.82740  0.62240  0.54120  Biso   1.000  O
  O15      1.0000 0.32740  0.87760  0.45880  Biso   1.000  O
  O16      1.0000 0.17260  0.12240  0.95880  Biso   1.000  O
  C1       1.0000 0.12540  0.21130  0.03460  Biso   1.000  C
  C2       1.0000 0.37460  0.78870  0.53460  Biso   1.000  C
  C3       1.0000 0.87460  0.71130  0.46540  Biso   1.000  C
  C4       1.0000 0.62540  0.28870  0.96540  Biso   1.000  C
  Cu5      1.0000 0.47784  0.37234  0.12635  Biso   1.000  Cu
  Cu6      1.0000 0.02216  0.62766  0.62635  Biso   1.000  Cu
  Cu7      1.0000 0.52216  0.87234  0.37365  Biso   1.000  Cu
  Cu8      1.0000 0.97784  0.12766  0.87365  Biso   1.000  Cu
  C5       1.0000 0.17930  0.28570  0.09420  Biso   1.000  C
  C6       1.0000 0.32070  0.71430  0.59420  Biso   1.000  C
  C7       1.0000 0.82070  0.78570  0.40580  Biso   1.000  C
  C8       1.0000 0.67930  0.21430  0.90580  Biso   1.000  C
  C9       1.0000 0.74940  0.41310  0.06780  Biso   1.000  C
  C10      1.0000 0.75060  0.58690  0.56780  Biso   1.000  C
  C11      1.0000 0.25060  0.91310  0.43220  Biso   1.000  C
  C12      1.0000 0.24940  0.08690  0.93220  Biso   1.000  C
  C13      1.0000 0.16420  0.20520  0.07580  Biso   1.000  C
  C14      1.0000 0.33580  0.79480  0.57580  Biso   1.000  C
  C15      1.0000 0.83580  0.70520  0.42420  Biso   1.000  C
  C16      1.0000 0.66420  0.29480  0.92420  Biso   1.000  C
  O17      1.0000 0.26640  0.32940  0.15530  Biso   1.000  O
  O18      1.0000 0.23360  0.67060  0.65530  Biso   1.000  O
  O19      1.0000 0.73360  0.82940  0.34470  Biso   1.000  O
  O20      1.0000 0.76640  0.17060  0.84470  Biso   1.000  O
  O21      1.0000 0.53400  0.43990  0.16940  Biso   1.000  O
  O22      1.0000 0.96600  0.56010  0.66940  Biso   1.000  O
  O23      1.0000 0.46600  0.93990  0.33060  Biso   1.000  O
  O24      1.0000 0.03400  0.06010  0.83060  Biso   1.000  O
  O25      1.0000 0.64440  0.25050  0.13400  Biso   1.000  O
  O26      1.0000 0.85560  0.74950  0.63400  Biso   1.000  O
  O27      1.0000 0.35560  0.75050  0.36600  Biso   1.000  O
  O28      1.0000 0.14440  0.24950  0.86600  Biso   1.000  O
  O29      1.0000 0.68870  0.42020  0.10020  Biso   1.000  O
  O30      1.0000 0.81130  0.57980  0.60020  Biso   1.000  O
  O31      1.0000 0.31130  0.92020  0.39980  Biso   1.000  O
  O32      1.0000 0.18870  0.07980  0.89980  Biso   1.000  O
  H1       1.0000 0.07000  0.31770  0.08460  Biso   1.000  H
  H2       1.0000 0.43000  0.68230  0.58460  Biso   1.000  H
  H3       1.0000 0.93000  0.81770  0.41540  Biso   1.000  H
  H4       1.0000 0.57000  0.18230  0.91540  Biso   1.000  H
  C17      1.0000 0.16020  0.28240  0.13690  Biso   1.000  C
  C18      1.0000 0.33980  0.71760  0.63690  Biso   1.000  C
  C19      1.0000 0.83980  0.78240  0.36310  Biso   1.000  C
  C20      1.0000 0.66020  0.21760  0.86310  Biso   1.000  C
  C21      1.0000 0.93860  0.45320  0.05950  Biso   1.000  C
  C22      1.0000 0.56140  0.54680  0.55950  Biso   1.000  C
  C23      1.0000 0.06140  0.95320  0.44050  Biso   1.000  C
  C24      1.0000 0.43860  0.04680  0.94050  Biso   1.000  C
  H5       1.0000 0.28560  0.17640  0.07980  Biso   1.000  H
  H6       1.0000 0.21440  0.82360  0.57980  Biso   1.000  H
  H7       1.0000 0.71440  0.67640  0.42020  Biso   1.000  H
  H8       1.0000 0.78560  0.32360  0.92020  Biso   1.000  H
  H9       1.0000 0.05970  0.17540  0.08800  Biso   1.000  H
  H10      1.0000 0.44030  0.82460  0.58800  Biso   1.000  H
  H11      1.0000 0.94030  0.67540  0.41200  Biso   1.000  H
  H12      1.0000 0.55970  0.32460  0.91200  Biso   1.000  H
  H13      1.0000 0.73220  0.22790  0.12210  Biso   1.000  H
  H14      1.0000 0.76780  0.77210  0.62210  Biso   1.000  H
  H15      1.0000 0.26780  0.72790  0.37790  Biso   1.000  H
  H16      1.0000 0.23220  0.27210  0.87790  Biso   1.000  H
  C25      1.0000 0.56600  0.19510  0.16570  Biso   1.000  C
  C26      1.0000 0.93400  0.80490  0.66570  Biso   1.000  C
  C27      1.0000 0.43400  0.69510  0.33430  Biso   1.000  C
  C28      1.0000 0.06600  0.30490  0.83430  Biso   1.000  C
  O33      1.0000 0.03640  0.23970  0.15180  Biso   1.000  O
  O34      1.0000 0.46360  0.76030  0.65180  Biso   1.000  O
  O35      1.0000 0.96360  0.73970  0.34820  Biso   1.000  O
  O36      1.0000 0.53640  0.26030  0.84820  Biso   1.000  O
  C29      1.0000 0.02020  0.44510  0.02350  Biso   1.000  C
  C30      1.0000 0.47980  0.55490  0.52350  Biso   1.000  C
  C31      1.0000 0.97980  0.94510  0.47650  Biso   1.000  C
  C32      1.0000 0.52020  0.05490  0.97650  Biso   1.000  C
  C33      1.0000 0.03000  0.49450  0.08710  Biso   1.000  C
  C34      1.0000 0.47000  0.50550  0.58710  Biso   1.000  C
  C35      1.0000 0.97000  0.99450  0.41290  Biso   1.000  C
  C36      1.0000 0.53000  0.00550  0.91290  Biso   1.000  C
  H17      1.0000 0.53710  0.22580  0.18820  Biso   1.000  H
  H18      1.0000 0.96290  0.77420  0.68820  Biso   1.000  H
  H19      1.0000 0.46290  0.72580  0.31180  Biso   1.000  H
  H20      1.0000 0.03710  0.27420  0.81180  Biso   1.000  H
  H21      1.0000 0.66400  0.15600  0.17180  Biso   1.000  H
  H22      1.0000 0.83600  0.84400  0.67180  Biso   1.000  H
  H23      1.0000 0.33600  0.65600  0.32820  Biso   1.000  H
  H24      1.0000 0.16400  0.34400  0.82820  Biso   1.000  H
  H25      1.0000 0.44980  0.16910  0.15690  Biso   1.000  H
  H26      1.0000 0.05020  0.83090  0.65690  Biso   1.000  H
  H27      1.0000 0.55020  0.66910  0.34310  Biso   1.000  H
  H28      1.0000 0.94980  0.33090  0.84310  Biso   1.000  H
  C37      1.0000 0.19310  0.48310  0.01630  Biso   1.000  C
  C38      1.0000 0.30690  0.51690  0.51630  Biso   1.000  C
  C39      1.0000 0.80690  0.98310  0.48370  Biso   1.000  C
  C40      1.0000 0.69310  0.01690  0.98370  Biso   1.000  C
  H29      1.0000 0.95930  0.41450  0.00470  Biso   1.000  H
  H30      1.0000 0.54070  0.58550  0.50470  Biso   1.000  H
  H31      1.0000 0.04070  0.91450  0.49530  Biso   1.000  H
  H32      1.0000 0.45930  0.08550  0.99530  Biso   1.000  H
  C41      1.0000 0.20300  0.53110  0.07890  Biso   1.000  C
  C42      1.0000 0.29700  0.46890  0.57890  Biso   1.000  C
  C43      1.0000 0.79700  0.03110  0.42110  Biso   1.000  C
  C44      1.0000 0.70300  0.96890  0.92110  Biso   1.000  C
  H33      1.0000 0.97540  0.49820  0.11150  Biso   1.000  H
  H34      1.0000 0.52460  0.50180  0.61150  Biso   1.000  H
  H35      1.0000 0.02460  0.99820  0.38850  Biso   1.000  H
  H36      1.0000 0.47540  0.00180  0.88850  Biso   1.000  H
  C45      1.0000 0.28880  0.52790  0.04340  Biso   1.000  C
  C46      1.0000 0.21120  0.47210  0.54340  Biso   1.000  C
  C47      1.0000 0.71120  0.02790  0.45660  Biso   1.000  C
  C48      1.0000 0.78880  0.97210  0.95660  Biso   1.000  C
  H37      1.0000 0.24840  0.47850  0.99190  Biso   1.000  H
  H38      1.0000 0.25160  0.52150  0.49190  Biso   1.000  H
  H39      1.0000 0.75160  0.97850  0.50810  Biso   1.000  H
  H40      1.0000 0.74840  0.02150  0.00810  Biso   1.000  H
  H41      1.0000 0.26560  0.55950  0.09830  Biso   1.000  H
  H42      1.0000 0.23440  0.44050  0.59830  Biso   1.000  H
  H43      1.0000 0.73440  0.05950  0.40170  Biso   1.000  H
  H44      1.0000 0.76560  0.94050  0.90170  Biso   1.000  H
  C49      1.0000 0.47190  0.56770  0.03510  Biso   1.000  C
  C50      1.0000 0.02810  0.43230  0.53510  Biso   1.000  C
  C51      1.0000 0.52810  0.06770  0.46490  Biso   1.000  C
  C52      1.0000 0.97190  0.93230  0.96490  Biso   1.000  C
  C53      1.0000 0.56130  0.56170  0.00050  Biso   1.000  C
  C54      1.0000 0.93870  0.43830  0.50050  Biso   1.000  C
  C55      1.0000 0.43870  0.06170  0.49950  Biso   1.000  C
  C56      1.0000 0.06130  0.93830  0.99950  Biso   1.000  C
  C57      1.0000 0.56010  0.61650  0.06180  Biso   1.000  C
  C58      1.0000 0.93990  0.38350  0.56180  Biso   1.000  C
  C59      1.0000 0.43990  0.11650  0.43820  Biso   1.000  C
  C60      1.0000 0.06010  0.88350  0.93820  Biso   1.000  C
  H45      1.0000 0.50530  0.52920  0.98180  Biso   1.000  H
  H46      1.0000 0.99470  0.47080  0.48180  Biso   1.000  H
  H47      1.0000 0.49470  0.02920  0.51820  Biso   1.000  H
  H48      1.0000 0.00530  0.97080  0.01820  Biso   1.000  H
  C61      1.0000 0.73310  0.60210  0.99160  Biso   1.000  C
  C62      1.0000 0.76690  0.39790  0.49160  Biso   1.000  C
  C63      1.0000 0.26690  0.10210  0.50840  Biso   1.000  C
  C64      1.0000 0.23310  0.89790  0.00840  Biso   1.000  C
  C65      1.0000 0.72950  0.65690  0.05460  Biso   1.000  C
  C66      1.0000 0.77050  0.34310  0.55460  Biso   1.000  C
  C67      1.0000 0.27050  0.15690  0.44540  Biso   1.000  C
  C68      1.0000 0.22950  0.84310  0.94540  Biso   1.000  C
  H49      1.0000 0.50170  0.62220  0.08580  Biso   1.000  H
  H50      1.0000 0.99830  0.37780  0.58580  Biso   1.000  H
  H51      1.0000 0.49830  0.12220  0.41420  Biso   1.000  H
  H52      1.0000 0.00170  0.87780  0.91420  Biso   1.000  H
  C69      1.0000 0.81320  0.64880  0.01940  Biso   1.000  C
  C70      1.0000 0.68680  0.35120  0.51940  Biso   1.000  C
  C71      1.0000 0.18680  0.14880  0.48060  Biso   1.000  C
  C72      1.0000 0.31320  0.85120  0.98060  Biso   1.000  C
  C73      1.0000 0.81810  0.59390  0.95380  Biso   1.000  C
  C74      1.0000 0.68190  0.40610  0.45380  Biso   1.000  C
  C75      1.0000 0.18190  0.09390  0.54620  Biso   1.000  C
  C76      1.0000 0.31810  0.90610  0.04620  Biso   1.000  C
  C77      1.0000 0.81650  0.70620  0.08460  Biso   1.000  C
  C78      1.0000 0.68350  0.29380  0.58460  Biso   1.000  C
  C79      1.0000 0.18350  0.20620  0.41540  Biso   1.000  C
  C80      1.0000 0.31650  0.79380  0.91540  Biso   1.000  C
  H53      1.0000 0.92880  0.67600  0.01410  Biso   1.000  H
  H54      1.0000 0.57120  0.32400  0.51410  Biso   1.000  H
  H55      1.0000 0.07120  0.17600  0.48590  Biso   1.000  H
  H56      1.0000 0.42880  0.82400  0.98590  Biso   1.000  H
  C81      1.0000 0.81680  0.52380  0.93490  Biso   1.000  C
  C82      1.0000 0.68320  0.47620  0.43490  Biso   1.000  C
  C83      1.0000 0.18320  0.02380  0.56510  Biso   1.000  C
  C84      1.0000 0.31680  0.97620  0.06510  Biso   1.000  C
  C85      1.0000 0.90170  0.65790  0.93590  Biso   1.000  C
  C86      1.0000 0.59830  0.34210  0.43590  Biso   1.000  C
  C87      1.0000 0.09830  0.15790  0.56410  Biso   1.000  C
  C88      1.0000 0.40170  0.84210  0.06410  Biso   1.000  C
  C89      1.0000 0.80760  0.68010  0.12190  Biso   1.000  C
  C90      1.0000 0.69240  0.31990  0.62190  Biso   1.000  C
  C91      1.0000 0.19240  0.18010  0.37810  Biso   1.000  C
  C92      1.0000 0.30760  0.81990  0.87810  Biso   1.000  C
  C93      1.0000 0.89940  0.77630  0.07760  Biso   1.000  C
  C94      1.0000 0.60060  0.22370  0.57760  Biso   1.000  C
  C95      1.0000 0.10060  0.27630  0.42240  Biso   1.000  C
  C96      1.0000 0.39940  0.72370  0.92240  Biso   1.000  C
  C97      1.0000 0.88590  0.51590  0.89880  Biso   1.000  C
  C98      1.0000 0.61410  0.48410  0.39880  Biso   1.000  C
  C99      1.0000 0.11410  0.01590  0.60120  Biso   1.000  C
  C100     1.0000 0.38590  0.98410  0.10120  Biso   1.000  C
  H57      1.0000 0.76620  0.47920  0.94720  Biso   1.000  H
  H58      1.0000 0.73380  0.52080  0.44720  Biso   1.000  H
  H59      1.0000 0.23380  0.97920  0.55280  Biso   1.000  H
  H60      1.0000 0.26620  0.02080  0.05280  Biso   1.000  H
  C101     1.0000 0.96260  0.65370  0.89860  Biso   1.000  C
  C102     1.0000 0.53740  0.34630  0.39860  Biso   1.000  C
  C103     1.0000 0.03740  0.15370  0.60140  Biso   1.000  C
  C104     1.0000 0.46260  0.84630  0.10140  Biso   1.000  C
  H61      1.0000 0.91740  0.70530  0.94940  Biso   1.000  H
  H62      1.0000 0.58260  0.29470  0.44940  Biso   1.000  H
  H63      1.0000 0.08260  0.20530  0.55060  Biso   1.000  H
  H64      1.0000 0.41740  0.79470  0.05060  Biso   1.000  H
  C105     1.0000 0.87480  0.72580  0.15120  Biso   1.000  C
  C106     1.0000 0.62520  0.27420  0.65120  Biso   1.000  C
  C107     1.0000 0.12520  0.22580  0.34880  Biso   1.000  C
  C108     1.0000 0.37480  0.77420  0.84880  Biso   1.000  C
  H65      1.0000 0.75460  0.63030  0.12720  Biso   1.000  H
  H66      1.0000 0.74540  0.36970  0.62720  Biso   1.000  H
  H67      1.0000 0.24540  0.13030  0.37280  Biso   1.000  H
  H68      1.0000 0.25460  0.86970  0.87280  Biso   1.000  H
  C109     1.0000 0.96610  0.82400  0.10670  Biso   1.000  C
  C110     1.0000 0.53390  0.17600  0.60670  Biso   1.000  C
  C111     1.0000 0.03390  0.32400  0.39330  Biso   1.000  C
  C112     1.0000 0.46610  0.67600  0.89330  Biso   1.000  C
  H69      1.0000 0.91250  0.79330  0.05230  Biso   1.000  H
  H70      1.0000 0.58750  0.20670  0.55230  Biso   1.000  H
  H71      1.0000 0.08750  0.29330  0.44770  Biso   1.000  H
  H72      1.0000 0.41250  0.70670  0.94770  Biso   1.000  H
  C113     1.0000 0.95720  0.58120  0.88080  Biso   1.000  C
  C114     1.0000 0.54280  0.41880  0.38080  Biso   1.000  C
  C115     1.0000 0.04280  0.08120  0.61920  Biso   1.000  C
  C116     1.0000 0.45720  0.91880  0.11920  Biso   1.000  C
  H73      1.0000 0.88460  0.46670  0.88650  Biso   1.000  H
  H74      1.0000 0.61540  0.53330  0.38650  Biso   1.000  H
  H75      1.0000 0.11540  0.96670  0.61350  Biso   1.000  H
  H76      1.0000 0.38460  0.03330  0.11350  Biso   1.000  H
  H77      1.0000 0.00660  0.69870  0.88570  Biso   1.000  H
  H78      1.0000 0.49340  0.30130  0.38570  Biso   1.000  H
  H79      1.0000 0.99340  0.19870  0.61430  Biso   1.000  H
  H80      1.0000 0.50660  0.80130  0.11430  Biso   1.000  H
  H81      1.0000 0.86740  0.70740  0.17630  Biso   1.000  H
  H82      1.0000 0.63260  0.29260  0.67630  Biso   1.000  H
  H83      1.0000 0.13260  0.20740  0.32370  Biso   1.000  H
  H84      1.0000 0.36740  0.79260  0.82370  Biso   1.000  H
  C117     1.0000 0.95260  0.79800  0.14380  Biso   1.000  C
  C118     1.0000 0.54740  0.20200  0.64380  Biso   1.000  C
  C119     1.0000 0.04740  0.29800  0.35620  Biso   1.000  C
  C120     1.0000 0.45260  0.70200  0.85620  Biso   1.000  C
  H85      1.0000 0.02010  0.87350  0.10120  Biso   1.000  H
  H86      1.0000 0.47990  0.12650  0.60120  Biso   1.000  H
  H87      1.0000 0.97990  0.37350  0.39880  Biso   1.000  H
  H88      1.0000 0.52010  0.62650  0.89880  Biso   1.000  H
  C121     1.0000 0.04800  0.56590  0.84130  Biso   1.000  C
  C122     1.0000 0.45200  0.43410  0.34130  Biso   1.000  C
  C123     1.0000 0.95200  0.06590  0.65870  Biso   1.000  C
  C124     1.0000 0.54800  0.93410  0.15870  Biso   1.000  C
  C125     1.0000 0.02160  0.84750  0.17580  Biso   1.000  C
  C126     1.0000 0.47840  0.15250  0.67580  Biso   1.000  C
  C127     1.0000 0.97840  0.34750  0.32420  Biso   1.000  C
  C128     1.0000 0.52160  0.65250  0.82420  Biso   1.000  C
  O37      1.0000 0.09300  0.62290  0.82250  Biso   1.000  O
  O38      1.0000 0.40700  0.37710  0.32250  Biso   1.000  O
  O39      1.0000 0.90700  0.12290  0.67750  Biso   1.000  O
  O40      1.0000 0.59300  0.87710  0.17750  Biso   1.000  O
  O41      1.0000 0.06700  0.49340  0.83060  Biso   1.000  O
  O42      1.0000 0.43300  0.50660  0.33060  Biso   1.000  O
  O43      1.0000 0.93300  0.99340  0.66940  Biso   1.000  O
  O44      1.0000 0.56700  0.00660  0.16940  Biso   1.000  O
  O45      1.0000 0.04860  0.91830  0.16920  Biso   1.000  O
  O46      1.0000 0.45140  0.08170  0.66920  Biso   1.000  O
  O47      1.0000 0.95140  0.41830  0.33080  Biso   1.000  O
  O48      1.0000 0.54860  0.58170  0.83080  Biso   1.000  O
  O49      1.0000 0.04630  0.81410  0.20650  Biso   1.000  O
  O50      1.0000 0.45370  0.18590  0.70650  Biso   1.000  O
  O51      1.0000 0.95370  0.31410  0.29350  Biso   1.000  O
  O52      1.0000 0.54630  0.68590  0.79350  Biso   1.000  O
  Cu9      1.0000 0.12720  0.00546  0.20006  Biso   1.000  Cu
  Cu10     1.0000 0.37280  0.99454  0.70006  Biso   1.000  Cu
  Cu11     1.0000 0.87280  0.50546  0.29994  Biso   1.000  Cu
  Cu12     1.0000 0.62720  0.49454  0.79994  Biso   1.000  Cu
  Cu13     1.0000 0.12330  0.84699  0.25639  Biso   1.000  Cu
  Cu14     1.0000 0.37670  0.15301  0.75639  Biso   1.000  Cu
  Cu15     1.0000 0.87670  0.34699  0.24361  Biso   1.000  Cu
  Cu16     1.0000 0.62330  0.65301  0.74361  Biso   1.000  Cu
  O53      1.0000 0.21570  0.94670  0.24260  Biso   1.000  O
  O54      1.0000 0.28430  0.05330  0.74260  Biso   1.000  O
  O55      1.0000 0.78430  0.44670  0.25740  Biso   1.000  O
  O56      1.0000 0.71570  0.55330  0.75740  Biso   1.000  O
  O57      1.0000 0.22370  0.10190  0.21950  Biso   1.000  O
  O58      1.0000 0.27630  0.89810  0.71950  Biso   1.000  O
  O59      1.0000 0.77630  0.60190  0.28050  Biso   1.000  O
  O60      1.0000 0.72370  0.39810  0.78050  Biso   1.000  O
  O61      1.0000 0.06050  0.06980  0.15540  Biso   1.000  O
  O62      1.0000 0.43950  0.93020  0.65540  Biso   1.000  O
  O63      1.0000 0.93950  0.56980  0.34460  Biso   1.000  O
  O64      1.0000 0.56050  0.43020  0.84460  Biso   1.000  O
  O65      1.0000 0.80440  0.02150  0.22900  Biso   1.000  O
  O66      1.0000 0.69560  0.97850  0.72900  Biso   1.000  O
  O67      1.0000 0.19560  0.52150  0.27100  Biso   1.000  O
  O68      1.0000 0.30440  0.47850  0.77100  Biso   1.000  O
  O69      1.0000 0.23590  0.86810  0.30560  Biso   1.000  O
  O70      1.0000 0.26410  0.13190  0.80560  Biso   1.000  O
  O71      1.0000 0.76410  0.36810  0.19440  Biso   1.000  O
  O72      1.0000 0.73590  0.63190  0.69440  Biso   1.000  O
  O73      1.0000 0.04010  0.74450  0.27460  Biso   1.000  O
  O74      1.0000 0.45990  0.25550  0.77460  Biso   1.000  O
  O75      1.0000 0.95990  0.24450  0.22540  Biso   1.000  O
  O76      1.0000 0.54010  0.75550  0.72540  Biso   1.000  O
  O77      1.0000 0.80010  0.89140  0.27300  Biso   1.000  O
  O78      1.0000 0.69990  0.10860  0.77300  Biso   1.000  O
  O79      1.0000 0.19990  0.39140  0.22700  Biso   1.000  O
  O80      1.0000 0.30010  0.60860  0.72700  Biso   1.000  O
  C129     1.0000 0.33200  0.97830  0.27130  Biso   1.000  C
  C130     1.0000 0.16800  0.02170  0.77130  Biso   1.000  C
  C131     1.0000 0.66800  0.47830  0.22870  Biso   1.000  C
  C132     1.0000 0.83200  0.52170  0.72870  Biso   1.000  C
  C133     1.0000 0.24460  0.11730  0.25380  Biso   1.000  C
  C134     1.0000 0.25540  0.88270  0.75380  Biso   1.000  C
  C135     1.0000 0.75540  0.61730  0.24620  Biso   1.000  C
  C136     1.0000 0.74460  0.38270  0.74620  Biso   1.000  C
  C137     1.0000 0.34880  0.92470  0.30570  Biso   1.000  C
  C138     1.0000 0.15120  0.07530  0.80570  Biso   1.000  C
  C139     1.0000 0.65120  0.42470  0.19430  Biso   1.000  C
  C140     1.0000 0.84880  0.57530  0.69430  Biso   1.000  C
  C141     1.0000 0.24600  0.05330  0.28400  Biso   1.000  C
  C142     1.0000 0.25400  0.94670  0.78400  Biso   1.000  C
  C143     1.0000 0.75400  0.55330  0.21600  Biso   1.000  C
  C144     1.0000 0.74600  0.44670  0.71600  Biso   1.000  C
  H89      1.0000 0.46340  0.98860  0.26100  Biso   1.000  H
  H90      1.0000 0.03660  0.01140  0.76100  Biso   1.000  H
  H91      1.0000 0.53660  0.48860  0.23900  Biso   1.000  H
  H92      1.0000 0.96340  0.51140  0.73900  Biso   1.000  H
  O81      1.0000 0.26130  0.18520  0.26490  Biso   1.000  O
  O82      1.0000 0.23870  0.81480  0.76490  Biso   1.000  O
  O83      1.0000 0.73870  0.68520  0.23510  Biso   1.000  O
  O84      1.0000 0.76130  0.31480  0.73510  Biso   1.000  O
  H93      1.0000 0.31770  0.07240  0.30610  Biso   1.000  H
  H94      1.0000 0.18230  0.92760  0.80610  Biso   1.000  H
  H95      1.0000 0.68230  0.57240  0.19390  Biso   1.000  H
  H96      1.0000 0.81770  0.42760  0.69390  Biso   1.000  H
  H97      1.0000 0.11200  0.04340  0.29210  Biso   1.000  H
  H98      1.0000 0.38800  0.95660  0.79210  Biso   1.000  H
  H99      1.0000 0.88800  0.54340  0.20790  Biso   1.000  H
  H100     1.0000 0.61200  0.45660  0.70790  Biso   1.000  H
  O85      1.0000 0.49800  0.30630  0.25750  Biso   1.000  O
  O86      1.0000 0.00200  0.69370  0.75750  Biso   1.000  O
  O87      1.0000 0.50200  0.80630  0.24250  Biso   1.000  O
  O88      1.0000 0.99800  0.19370  0.74250  Biso   1.000  O
  O89      1.0000 0.63930  0.16640  0.06590  Biso   1.000  O
  O90      1.0000 0.86070  0.83360  0.56590  Biso   1.000  O
  O91      1.0000 0.36070  0.66640  0.43410  Biso   1.000  O
  O92      1.0000 0.13930  0.33360  0.93410  Biso   1.000  O
  O93      1.0000 0.15470  0.53400  0.40730  Biso   1.000  O
  O94      1.0000 0.34530  0.46600  0.90730  Biso   1.000  O
  O95      1.0000 0.84530  0.03400  0.09270  Biso   1.000  O
  O96      1.0000 0.65470  0.96600  0.59270  Biso   1.000  O
  O97      1.0000 0.24200  0.63960  0.22150  Biso   1.000  O
  O98      1.0000 0.25800  0.36040  0.72150  Biso   1.000  O
  O99      1.0000 0.75800  0.13960  0.27850  Biso   1.000  O
  O100     1.0000 0.74200  0.86040  0.77850  Biso   1.000  O
  O101     1.0000 0.00900  0.15980  0.67570  Biso   1.000  O
  O102     1.0000 0.49100  0.84020  0.17570  Biso   1.000  O
  O103     1.0000 0.99100  0.65980  0.82430  Biso   1.000  O
  O104     1.0000 0.50900  0.34020  0.32430  Biso   1.000  O
  O105     1.0000 0.98300  0.03000  0.67620  Biso   1.000  O
  O106     1.0000 0.51700  0.97000  0.17620  Biso   1.000  O
  O107     1.0000 0.01700  0.53000  0.82380  Biso   1.000  O
  O108     1.0000 0.48300  0.47000  0.32380  Biso   1.000  O
  C145     1.0000 0.00400  0.08870  0.66000  Biso   1.000  C
  C146     1.0000 0.49600  0.91130  0.16000  Biso   1.000  C
  C147     1.0000 0.99600  0.58870  0.84000  Biso   1.000  C
  C148     1.0000 0.50400  0.41130  0.34000  Biso   1.000  C
  O109     1.0000 0.29500  0.63970  0.18680  Biso   1.000  O
  O110     1.0000 0.20500  0.36030  0.68680  Biso   1.000  O
  O111     1.0000 0.70500  0.13970  0.31320  Biso   1.000  O
  O112     1.0000 0.79500  0.86030  0.81320  Biso   1.000  O
