data_image0
_cell_length_a       12.7919
_cell_length_b       24.158
_cell_length_c       8.7705
_cell_angle_alpha    90
_cell_angle_beta     90
_cell_angle_gamma    90

_symmetry_space_group_name_H-M    "P 1"
_symmetry_int_tables_number       1

loop_
  _symmetry_equiv_pos_as_xyz
  'x, y, z'

loop_
  _atom_site_label
  _atom_site_occupancy
  _atom_site_fract_x
  _atom_site_fract_y
  _atom_site_fract_z
  _atom_site_thermal_displace_type
  _atom_site_B_iso_or_equiv
  _atom_site_type_symbol
  Cu1      1.0000 0.46809  0.54439  0.07073  Biso   1.000  Cu
  Cu2      1.0000 0.03191  0.95561  0.07073  Biso   1.000  Cu
  Cu3      1.0000 0.53191  0.04439  0.42927  Biso   1.000  Cu
  Cu4      1.0000 0.96809  0.45561  0.42927  Biso   1.000  Cu
  Cu5      1.0000 0.53191  0.45561  0.92927  Biso   1.000  Cu
  Cu6      1.0000 0.96809  0.04439  0.92927  Biso   1.000  Cu
  Cu7      1.0000 0.46809  0.95561  0.57073  Biso   1.000  Cu
  Cu8      1.0000 0.03191  0.54439  0.57073  Biso   1.000  Cu
  C1       1.0000 0.68380  0.53850  0.99340  Biso   1.000  C
  C2       1.0000 0.81620  0.96150  0.99340  Biso   1.000  C
  C3       1.0000 0.31620  0.03850  0.50660  Biso   1.000  C
  C4       1.0000 0.18380  0.46150  0.50660  Biso   1.000  C
  C5       1.0000 0.31620  0.46150  0.00660  Biso   1.000  C
  C6       1.0000 0.18380  0.03850  0.00660  Biso   1.000  C
  C7       1.0000 0.68380  0.96150  0.49340  Biso   1.000  C
  C8       1.0000 0.81620  0.53850  0.49340  Biso   1.000  C
  C9       1.0000 0.79380  0.56010  0.99490  Biso   1.000  C
  C10      1.0000 0.70620  0.93990  0.99490  Biso   1.000  C
  C11      1.0000 0.20620  0.06010  0.50510  Biso   1.000  C
  C12      1.0000 0.29380  0.43990  0.50510  Biso   1.000  C
  C13      1.0000 0.20620  0.43990  0.00510  Biso   1.000  C
  C14      1.0000 0.29380  0.06010  0.00510  Biso   1.000  C
  C15      1.0000 0.79380  0.93990  0.49490  Biso   1.000  C
  C16      1.0000 0.70620  0.56010  0.49490  Biso   1.000  C
  H1       1.0000 0.83310  0.54130  0.07260  Biso   1.000  H
  H2       1.0000 0.66690  0.95870  0.07260  Biso   1.000  H
  H3       1.0000 0.16690  0.04130  0.42740  Biso   1.000  H
  H4       1.0000 0.33310  0.45870  0.42740  Biso   1.000  H
  H5       1.0000 0.16690  0.45870  0.92740  Biso   1.000  H
  H6       1.0000 0.33310  0.04130  0.92740  Biso   1.000  H
  H7       1.0000 0.83310  0.95870  0.57260  Biso   1.000  H
  H8       1.0000 0.66690  0.54130  0.57260  Biso   1.000  H
  H9       1.0000 0.79300  0.59910  0.01580  Biso   1.000  H
  H10      1.0000 0.70700  0.90090  0.01580  Biso   1.000  H
  H11      1.0000 0.20700  0.09910  0.48420  Biso   1.000  H
  H12      1.0000 0.29300  0.40090  0.48420  Biso   1.000  H
  H13      1.0000 0.20700  0.40090  0.98420  Biso   1.000  H
  H14      1.0000 0.29300  0.09910  0.98420  Biso   1.000  H
  H15      1.0000 0.79300  0.90090  0.51580  Biso   1.000  H
  H16      1.0000 0.70700  0.59910  0.51580  Biso   1.000  H
  H17      1.0000 0.82560  0.55360  0.89740  Biso   1.000  H
  H18      1.0000 0.67440  0.94640  0.89740  Biso   1.000  H
  H19      1.0000 0.17440  0.05360  0.60260  Biso   1.000  H
  H20      1.0000 0.32560  0.44640  0.60260  Biso   1.000  H
  H21      1.0000 0.17440  0.44640  0.10260  Biso   1.000  H
  H22      1.0000 0.32560  0.05360  0.10260  Biso   1.000  H
  H23      1.0000 0.82560  0.94640  0.39740  Biso   1.000  H
  H24      1.0000 0.67440  0.55360  0.39740  Biso   1.000  H
  C17      1.0000 0.45830  0.54680  0.74900  Biso   1.000  C
  C18      1.0000 0.04170  0.95320  0.74900  Biso   1.000  C
  C19      1.0000 0.54170  0.04680  0.75100  Biso   1.000  C
  C20      1.0000 0.95830  0.45320  0.75100  Biso   1.000  C
  C21      1.0000 0.54170  0.45320  0.25100  Biso   1.000  C
  C22      1.0000 0.95830  0.04680  0.25100  Biso   1.000  C
  C23      1.0000 0.45830  0.95320  0.24900  Biso   1.000  C
  C24      1.0000 0.04170  0.54680  0.24900  Biso   1.000  C
  C25      1.0000 0.43230  0.57200  0.59870  Biso   1.000  C
  C26      1.0000 0.06770  0.92800  0.59870  Biso   1.000  C
  C27      1.0000 0.56770  0.07200  0.90130  Biso   1.000  C
  C28      1.0000 0.93230  0.42800  0.90130  Biso   1.000  C
  C29      1.0000 0.56770  0.42800  0.40130  Biso   1.000  C
  C30      1.0000 0.93230  0.07200  0.40130  Biso   1.000  C
  C31      1.0000 0.43230  0.92800  0.09870  Biso   1.000  C
  C32      1.0000 0.06770  0.57200  0.09870  Biso   1.000  C
  H25      1.0000 0.36090  0.56390  0.57340  Biso   1.000  H
  H26      1.0000 0.13910  0.93610  0.57340  Biso   1.000  H
  H27      1.0000 0.63910  0.06390  0.92660  Biso   1.000  H
  H28      1.0000 0.86090  0.43610  0.92660  Biso   1.000  H
  H29      1.0000 0.63910  0.43610  0.42660  Biso   1.000  H
  H30      1.0000 0.86090  0.06390  0.42660  Biso   1.000  H
  H31      1.0000 0.36090  0.93610  0.07340  Biso   1.000  H
  H32      1.0000 0.13910  0.56390  0.07340  Biso   1.000  H
  H33      1.0000 0.47750  0.55690  0.52170  Biso   1.000  H
  H34      1.0000 0.02250  0.94310  0.52170  Biso   1.000  H
  H35      1.0000 0.52250  0.05690  0.97830  Biso   1.000  H
  H36      1.0000 0.97750  0.44310  0.97830  Biso   1.000  H
  H37      1.0000 0.52250  0.44310  0.47830  Biso   1.000  H
  H38      1.0000 0.97750  0.05690  0.47830  Biso   1.000  H
  H39      1.0000 0.47750  0.94310  0.02170  Biso   1.000  H
  H40      1.0000 0.02250  0.55690  0.02170  Biso   1.000  H
  H41      1.0000 0.44180  0.61130  0.60400  Biso   1.000  H
  H42      1.0000 0.05820  0.88870  0.60400  Biso   1.000  H
  H43      1.0000 0.55820  0.11130  0.89600  Biso   1.000  H
  H44      1.0000 0.94180  0.38870  0.89600  Biso   1.000  H
  H45      1.0000 0.55820  0.38870  0.39600  Biso   1.000  H
  H46      1.0000 0.94180  0.11130  0.39600  Biso   1.000  H
  H47      1.0000 0.44180  0.88870  0.10400  Biso   1.000  H
  H48      1.0000 0.05820  0.61130  0.10400  Biso   1.000  H
  C33      1.0000 0.67870  0.38170  0.74440  Biso   1.000  C
  C34      1.0000 0.82130  0.11830  0.74440  Biso   1.000  C
  C35      1.0000 0.32130  0.88170  0.75560  Biso   1.000  C
  C36      1.0000 0.17870  0.61830  0.75560  Biso   1.000  C
  C37      1.0000 0.32130  0.61830  0.25560  Biso   1.000  C
  C38      1.0000 0.17870  0.88170  0.25560  Biso   1.000  C
  C39      1.0000 0.67870  0.11830  0.24440  Biso   1.000  C
  C40      1.0000 0.82130  0.38170  0.24440  Biso   1.000  C
  H49      1.0000 0.72670  0.40750  0.78060  Biso   1.000  H
  H50      1.0000 0.77330  0.09250  0.78060  Biso   1.000  H
  H51      1.0000 0.27330  0.90750  0.71940  Biso   1.000  H
  H52      1.0000 0.22670  0.59250  0.71940  Biso   1.000  H
  H53      1.0000 0.27330  0.59250  0.21940  Biso   1.000  H
  H54      1.0000 0.22670  0.90750  0.21940  Biso   1.000  H
  H55      1.0000 0.72670  0.09250  0.28060  Biso   1.000  H
  H56      1.0000 0.77330  0.40750  0.28060  Biso   1.000  H
  C41      1.0000 0.71350  0.34210  0.64530  Biso   1.000  C
  C42      1.0000 0.78650  0.15790  0.64530  Biso   1.000  C
  C43      1.0000 0.28650  0.84210  0.85470  Biso   1.000  C
  C44      1.0000 0.21350  0.65790  0.85470  Biso   1.000  C
  C45      1.0000 0.28650  0.65790  0.35470  Biso   1.000  C
  C46      1.0000 0.21350  0.84210  0.35470  Biso   1.000  C
  C47      1.0000 0.71350  0.15790  0.14530  Biso   1.000  C
  C48      1.0000 0.78650  0.34210  0.14530  Biso   1.000  C
  H57      1.0000 0.78320  0.34100  0.61560  Biso   1.000  H
  H58      1.0000 0.71680  0.15900  0.61560  Biso   1.000  H
  H59      1.0000 0.21680  0.84100  0.88440  Biso   1.000  H
  H60      1.0000 0.28320  0.65900  0.88440  Biso   1.000  H
  H61      1.0000 0.21680  0.65900  0.38440  Biso   1.000  H
  H62      1.0000 0.28320  0.84100  0.38440  Biso   1.000  H
  H63      1.0000 0.78320  0.15900  0.11560  Biso   1.000  H
  H64      1.0000 0.71680  0.34100  0.11560  Biso   1.000  H
  C49      1.0000 0.64290  0.30359  0.59020  Biso   1.000  C
  C50      1.0000 0.85710  0.19641  0.59020  Biso   1.000  C
  C51      1.0000 0.35710  0.80359  0.90980  Biso   1.000  C
  C52      1.0000 0.14290  0.69641  0.90980  Biso   1.000  C
  C53      1.0000 0.35710  0.69641  0.40980  Biso   1.000  C
  C54      1.0000 0.14290  0.80359  0.40980  Biso   1.000  C
  C55      1.0000 0.64290  0.19641  0.09020  Biso   1.000  C
  C56      1.0000 0.85710  0.30359  0.09020  Biso   1.000  C
  C57      1.0000 0.53930  0.30640  0.63840  Biso   1.000  C
  C58      1.0000 0.96070  0.19360  0.63840  Biso   1.000  C
  C59      1.0000 0.46070  0.80640  0.86160  Biso   1.000  C
  C60      1.0000 0.03930  0.69360  0.86160  Biso   1.000  C
  C61      1.0000 0.46070  0.69360  0.36160  Biso   1.000  C
  C62      1.0000 0.03930  0.80640  0.36160  Biso   1.000  C
  C63      1.0000 0.53930  0.19360  0.13840  Biso   1.000  C
  C64      1.0000 0.96070  0.30640  0.13840  Biso   1.000  C
  H65      1.0000 0.49030  0.28080  0.60460  Biso   1.000  H
  H66      1.0000 0.00970  0.21920  0.60460  Biso   1.000  H
  H67      1.0000 0.50970  0.78080  0.89540  Biso   1.000  H
  H68      1.0000 0.99030  0.71920  0.89540  Biso   1.000  H
  H69      1.0000 0.50970  0.71920  0.39540  Biso   1.000  H
  H70      1.0000 0.99030  0.78080  0.39540  Biso   1.000  H
  H71      1.0000 0.49030  0.21920  0.10460  Biso   1.000  H
  H72      1.0000 0.00970  0.28080  0.10460  Biso   1.000  H
  C65      1.0000 0.51130  0.34810  0.73770  Biso   1.000  C
  C66      1.0000 0.98870  0.15190  0.73770  Biso   1.000  C
  C67      1.0000 0.48870  0.84810  0.76230  Biso   1.000  C
  C68      1.0000 0.01130  0.65190  0.76230  Biso   1.000  C
  C69      1.0000 0.48870  0.65190  0.26230  Biso   1.000  C
  C70      1.0000 0.01130  0.84810  0.26230  Biso   1.000  C
  C71      1.0000 0.51130  0.15190  0.23770  Biso   1.000  C
  C72      1.0000 0.98870  0.34810  0.23770  Biso   1.000  C
  H73      1.0000 0.44180  0.35050  0.76810  Biso   1.000  H
  H74      1.0000 0.05820  0.14950  0.76810  Biso   1.000  H
  H75      1.0000 0.55820  0.85050  0.73190  Biso   1.000  H
  H76      1.0000 0.94180  0.64950  0.73190  Biso   1.000  H
  H77      1.0000 0.55820  0.64950  0.23190  Biso   1.000  H
  H78      1.0000 0.94180  0.85050  0.23190  Biso   1.000  H
  H79      1.0000 0.44180  0.14950  0.26810  Biso   1.000  H
  H80      1.0000 0.05820  0.35050  0.26810  Biso   1.000  H
  N1       1.0000 0.57930  0.38546  0.79260  Biso   1.000  N
  N2       1.0000 0.92070  0.11454  0.79260  Biso   1.000  N
  N3       1.0000 0.42070  0.88546  0.70740  Biso   1.000  N
  N4       1.0000 0.07930  0.61454  0.70740  Biso   1.000  N
  N5       1.0000 0.42070  0.61454  0.20740  Biso   1.000  N
  N6       1.0000 0.07930  0.88546  0.20740  Biso   1.000  N
  N7       1.0000 0.57930  0.11454  0.29260  Biso   1.000  N
  N8       1.0000 0.92070  0.38546  0.29260  Biso   1.000  N
  S1       1.0000 0.67105  0.25254  0.45135  Biso   1.000  S
  S2       1.0000 0.82895  0.24746  0.45135  Biso   1.000  S
  S3       1.0000 0.32895  0.75254  0.04865  Biso   1.000  S
  S4       1.0000 0.17105  0.74746  0.04865  Biso   1.000  S
  S5       1.0000 0.32895  0.74746  0.54865  Biso   1.000  S
  S6       1.0000 0.17105  0.75254  0.54865  Biso   1.000  S
  S7       1.0000 0.67105  0.24746  0.95135  Biso   1.000  S
  S8       1.0000 0.82895  0.25254  0.95135  Biso   1.000  S
  O1       1.0000 0.61440  0.56804  0.05220  Biso   1.000  O
  O2       1.0000 0.88560  0.93196  0.05220  Biso   1.000  O
  O3       1.0000 0.38560  0.06804  0.44780  Biso   1.000  O
  O4       1.0000 0.11440  0.43196  0.44780  Biso   1.000  O
  O5       1.0000 0.38560  0.43196  0.94780  Biso   1.000  O
  O6       1.0000 0.11440  0.06804  0.94780  Biso   1.000  O
  O7       1.0000 0.61440  0.93196  0.55220  Biso   1.000  O
  O8       1.0000 0.88560  0.56804  0.55220  Biso   1.000  O
  O9       1.0000 0.33080  0.50802  0.06450  Biso   1.000  O
  O10      1.0000 0.16920  0.99198  0.06450  Biso   1.000  O
  O11      1.0000 0.66920  0.00802  0.43550  Biso   1.000  O
  O12      1.0000 0.83080  0.49198  0.43550  Biso   1.000  O
  O13      1.0000 0.66920  0.49198  0.93550  Biso   1.000  O
  O14      1.0000 0.83080  0.00802  0.93550  Biso   1.000  O
  O15      1.0000 0.33080  0.99198  0.56450  Biso   1.000  O
  O16      1.0000 0.16920  0.50802  0.56450  Biso   1.000  O
  O17      1.0000 0.43970  0.57450  0.86720  Biso   1.000  O
  O18      1.0000 0.06030  0.92550  0.86720  Biso   1.000  O
  O19      1.0000 0.56030  0.07450  0.63280  Biso   1.000  O
  O20      1.0000 0.93970  0.42550  0.63280  Biso   1.000  O
  O21      1.0000 0.56030  0.42550  0.13280  Biso   1.000  O
  O22      1.0000 0.93970  0.07450  0.13280  Biso   1.000  O
  O23      1.0000 0.43970  0.92550  0.36720  Biso   1.000  O
  O24      1.0000 0.06030  0.57450  0.36720  Biso   1.000  O
  O25      1.0000 0.50400  0.50060  0.25150  Biso   1.000  O
  O26      1.0000 0.99600  0.99940  0.25150  Biso   1.000  O
  O27      1.0000 0.49600  0.00060  0.24850  Biso   1.000  O
  O28      1.0000 0.00400  0.49940  0.24850  Biso   1.000  O
  O29      1.0000 0.49600  0.49940  0.74850  Biso   1.000  O
  O30      1.0000 0.00400  0.00060  0.74850  Biso   1.000  O
  O31      1.0000 0.50400  0.99940  0.75150  Biso   1.000  O
  O32      1.0000 0.99600  0.50060  0.75150  Biso   1.000  O
