data_image0
_cell_length_a       6.9751
_cell_length_b       17.0801
_cell_length_c       35.5649
_cell_angle_alpha    90
_cell_angle_beta     90
_cell_angle_gamma    90

_symmetry_space_group_name_H-M    "P 1"
_symmetry_int_tables_number       1

loop_
  _symmetry_equiv_pos_as_xyz
  'x, y, z'

loop_
  _atom_site_label
  _atom_site_occupancy
  _atom_site_fract_x
  _atom_site_fract_y
  _atom_site_fract_z
  _atom_site_thermal_displace_type
  _atom_site_B_iso_or_equiv
  _atom_site_type_symbol
  Cu1      1.0000 0.93915  0.67837  0.53272  Biso   1.000  Cu
  Cu2      1.0000 0.56085  0.32163  0.03272  Biso   1.000  Cu
  Cu3      1.0000 0.06085  0.17837  0.96728  Biso   1.000  Cu
  Cu4      1.0000 0.43915  0.82163  0.46728  Biso   1.000  Cu
  Cu5      1.0000 0.98065  0.62739  0.62603  Biso   1.000  Cu
  Cu6      1.0000 0.51935  0.37261  0.12603  Biso   1.000  Cu
  Cu7      1.0000 0.01935  0.12739  0.87397  Biso   1.000  Cu
  Cu8      1.0000 0.48065  0.87261  0.37397  Biso   1.000  Cu
  Cu9      1.0000 0.62631  0.99303  0.70003  Biso   1.000  Cu
  Cu10     1.0000 0.87369  0.00697  0.20003  Biso   1.000  Cu
  Cu11     1.0000 0.37369  0.49303  0.79997  Biso   1.000  Cu
  Cu12     1.0000 0.12631  0.50697  0.29997  Biso   1.000  Cu
  Cu13     1.0000 0.62157  0.15187  0.75639  Biso   1.000  Cu
  Cu14     1.0000 0.87843  0.84813  0.25639  Biso   1.000  Cu
  Cu15     1.0000 0.37843  0.65187  0.74361  Biso   1.000  Cu
  Cu16     1.0000 0.12157  0.34813  0.24361  Biso   1.000  Cu
  O1       1.0000 0.72120  0.73960  0.51507  Biso   1.000  O
  O2       1.0000 0.77880  0.26040  0.01507  Biso   1.000  O
  O3       1.0000 0.27880  0.23960  0.98493  Biso   1.000  O
  O4       1.0000 0.22120  0.76040  0.48493  Biso   1.000  O
  O5       1.0000 0.50320  0.83070  0.52088  Biso   1.000  O
  O6       1.0000 0.99680  0.16930  0.02088  Biso   1.000  O
  O7       1.0000 0.49680  0.33070  0.97912  Biso   1.000  O
  O8       1.0000 0.00320  0.66930  0.47912  Biso   1.000  O
  O9       1.0000 0.85240  0.67460  0.58344  Biso   1.000  O
  O10      1.0000 0.64760  0.32540  0.08344  Biso   1.000  O
  O11      1.0000 0.14760  0.17460  0.91656  Biso   1.000  O
  O12      1.0000 0.35240  0.82540  0.41656  Biso   1.000  O
  O13      1.0000 0.77100  0.67140  0.65509  Biso   1.000  O
  O14      1.0000 0.72900  0.32860  0.15509  Biso   1.000  O
  O15      1.0000 0.22900  0.17140  0.84491  Biso   1.000  O
  O16      1.0000 0.27100  0.82860  0.34491  Biso   1.000  O
  O17      1.0000 0.53900  0.76030  0.65165  Biso   1.000  O
  O18      1.0000 0.96100  0.23970  0.15165  Biso   1.000  O
  O19      1.0000 0.46100  0.26030  0.84835  Biso   1.000  O
  O20      1.0000 0.03900  0.73970  0.34835  Biso   1.000  O
  C1       1.0000 0.62910  0.78810  0.53470  Biso   1.000  C
  C2       1.0000 0.87090  0.21190  0.03470  Biso   1.000  C
  C3       1.0000 0.37090  0.28810  0.96530  Biso   1.000  C
  C4       1.0000 0.12910  0.71190  0.46530  Biso   1.000  C
  C5       1.0000 0.66960  0.79520  0.57590  Biso   1.000  C
  C6       1.0000 0.83040  0.20480  0.07590  Biso   1.000  C
  C7       1.0000 0.33040  0.29520  0.92410  Biso   1.000  C
  C8       1.0000 0.16960  0.70480  0.42410  Biso   1.000  C
  H1       1.0000 0.56640  0.82570  0.58820  Biso   1.000  H
  H2       1.0000 0.93360  0.17430  0.08820  Biso   1.000  H
  H3       1.0000 0.43360  0.32570  0.91180  Biso   1.000  H
  H4       1.0000 0.06640  0.67430  0.41180  Biso   1.000  H
  H5       1.0000 0.79220  0.82330  0.57980  Biso   1.000  H
  H6       1.0000 0.70780  0.17670  0.07980  Biso   1.000  H
  H7       1.0000 0.20780  0.32330  0.92020  Biso   1.000  H
  H8       1.0000 0.29220  0.67670  0.42020  Biso   1.000  H
  C9       1.0000 0.68170  0.71370  0.59390  Biso   1.000  C
  C10      1.0000 0.81830  0.28630  0.09390  Biso   1.000  C
  C11      1.0000 0.31830  0.21370  0.90610  Biso   1.000  C
  C12      1.0000 0.18170  0.78630  0.40610  Biso   1.000  C
  H9       1.0000 0.57170  0.68230  0.58410  Biso   1.000  H
  H10      1.0000 0.92830  0.31770  0.08410  Biso   1.000  H
  H11      1.0000 0.42830  0.18230  0.91590  Biso   1.000  H
  H12      1.0000 0.07170  0.81770  0.41590  Biso   1.000  H
  C13      1.0000 0.66230  0.71730  0.63640  Biso   1.000  C
  C14      1.0000 0.83770  0.28270  0.13640  Biso   1.000  C
  C15      1.0000 0.33770  0.21730  0.86360  Biso   1.000  C
  C16      1.0000 0.16230  0.78270  0.36360  Biso   1.000  C
  O21      1.0000 0.72450  0.89710  0.71943  Biso   1.000  O
  O22      1.0000 0.77550  0.10290  0.21943  Biso   1.000  O
  O23      1.0000 0.27550  0.39710  0.78057  Biso   1.000  O
  O24      1.0000 0.22450  0.60290  0.28057  Biso   1.000  O
  O25      1.0000 0.76650  0.81260  0.76470  Biso   1.000  O
  O26      1.0000 0.73350  0.18740  0.26470  Biso   1.000  O
  O27      1.0000 0.23350  0.31260  0.73530  Biso   1.000  O
  O28      1.0000 0.26650  0.68740  0.23530  Biso   1.000  O
  O29      1.0000 0.71310  0.05240  0.74236  Biso   1.000  O
  O30      1.0000 0.78690  0.94760  0.24236  Biso   1.000  O
  O31      1.0000 0.28690  0.55240  0.75764  Biso   1.000  O
  O32      1.0000 0.21310  0.44760  0.25764  Biso   1.000  O
  O33      1.0000 0.73670  0.13150  0.80549  Biso   1.000  O
  O34      1.0000 0.76330  0.86850  0.30549  Biso   1.000  O
  O35      1.0000 0.26330  0.63150  0.69451  Biso   1.000  O
  O36      1.0000 0.23670  0.36850  0.19451  Biso   1.000  O
  O37      1.0000 0.96430  0.05940  0.83081  Biso   1.000  O
  O38      1.0000 0.53570  0.94060  0.33081  Biso   1.000  O
  O39      1.0000 0.03570  0.55940  0.66919  Biso   1.000  O
  O40      1.0000 0.46430  0.44060  0.16919  Biso   1.000  O
  C17      1.0000 0.84920  0.07500  0.80530  Biso   1.000  C
  C18      1.0000 0.65080  0.92500  0.30530  Biso   1.000  C
  C19      1.0000 0.15080  0.57500  0.69470  Biso   1.000  C
  C20      1.0000 0.34920  0.42500  0.19470  Biso   1.000  C
  C21      1.0000 0.83060  0.02030  0.77130  Biso   1.000  C
  C22      1.0000 0.66940  0.97970  0.27130  Biso   1.000  C
  C23      1.0000 0.16940  0.52030  0.72870  Biso   1.000  C
  C24      1.0000 0.33060  0.47970  0.22870  Biso   1.000  C
  H13      1.0000 0.96130  0.00990  0.76090  Biso   1.000  H
  H14      1.0000 0.53870  0.99010  0.26090  Biso   1.000  H
  H15      1.0000 0.03870  0.50990  0.73910  Biso   1.000  H
  H16      1.0000 0.46130  0.49010  0.23910  Biso   1.000  H
  C25      1.0000 0.74490  0.94470  0.78420  Biso   1.000  C
  C26      1.0000 0.75510  0.05530  0.28420  Biso   1.000  C
  C27      1.0000 0.25510  0.44470  0.71580  Biso   1.000  C
  C28      1.0000 0.24490  0.55530  0.21580  Biso   1.000  C
  H17      1.0000 0.61050  0.95410  0.79190  Biso   1.000  H
  H18      1.0000 0.88950  0.04590  0.29190  Biso   1.000  H
  H19      1.0000 0.38950  0.45410  0.70810  Biso   1.000  H
  H20      1.0000 0.11050  0.54590  0.20810  Biso   1.000  H
  H21      1.0000 0.81610  0.92600  0.80650  Biso   1.000  H
  H22      1.0000 0.68390  0.07400  0.30650  Biso   1.000  H
  H23      1.0000 0.18390  0.42600  0.69350  Biso   1.000  H
  H24      1.0000 0.31610  0.57400  0.19350  Biso   1.000  H
  C29      1.0000 0.74840  0.88090  0.75400  Biso   1.000  C
  C30      1.0000 0.75160  0.11910  0.25400  Biso   1.000  C
  C31      1.0000 0.25160  0.38090  0.74600  Biso   1.000  C
  C32      1.0000 0.24840  0.61910  0.24600  Biso   1.000  C
  O41      1.0000 0.17630  0.62350  0.54123  Biso   1.000  O
  O42      1.0000 0.32370  0.37650  0.04123  Biso   1.000  O
  O43      1.0000 0.82370  0.12350  0.95877  Biso   1.000  O
  O44      1.0000 0.67630  0.87650  0.45877  Biso   1.000  O
  O45      1.0000 0.18870  0.57780  0.60033  Biso   1.000  O
  O46      1.0000 0.31130  0.42220  0.10033  Biso   1.000  O
  O47      1.0000 0.81130  0.07780  0.89967  Biso   1.000  O
  O48      1.0000 0.68870  0.92220  0.39967  Biso   1.000  O
  O49      1.0000 0.54780  0.08020  0.66931  Biso   1.000  O
  O50      1.0000 0.95220  0.91980  0.16931  Biso   1.000  O
  O51      1.0000 0.45220  0.58020  0.83069  Biso   1.000  O
  O52      1.0000 0.04780  0.41980  0.33069  Biso   1.000  O
  O53      1.0000 0.54280  0.18490  0.70686  Biso   1.000  O
  O54      1.0000 0.95720  0.81510  0.20686  Biso   1.000  O
  O55      1.0000 0.45720  0.68490  0.79314  Biso   1.000  O
  O56      1.0000 0.04280  0.31510  0.29314  Biso   1.000  O
  O57      1.0000 0.49600  0.34280  0.32390  Biso   1.000  O
  O58      1.0000 0.00400  0.65720  0.82390  Biso   1.000  O
  O59      1.0000 0.50400  0.84280  0.17610  Biso   1.000  O
  O60      1.0000 0.99600  0.15720  0.67610  Biso   1.000  O
  O61      1.0000 0.51400  0.47200  0.32310  Biso   1.000  O
  O62      1.0000 0.98600  0.52800  0.82310  Biso   1.000  O
  O63      1.0000 0.48600  0.97200  0.17690  Biso   1.000  O
  O64      1.0000 0.01400  0.02800  0.67690  Biso   1.000  O
  C33      1.0000 0.25170  0.58570  0.56740  Biso   1.000  C
  C34      1.0000 0.24830  0.41430  0.06740  Biso   1.000  C
  C35      1.0000 0.74830  0.08570  0.93260  Biso   1.000  C
  C36      1.0000 0.75170  0.91430  0.43260  Biso   1.000  C
  C37      1.0000 0.44010  0.54760  0.55860  Biso   1.000  C
  C38      1.0000 0.05990  0.45240  0.05860  Biso   1.000  C
  C39      1.0000 0.55990  0.04760  0.94140  Biso   1.000  C
  C40      1.0000 0.94010  0.95240  0.44140  Biso   1.000  C
  C41      1.0000 0.53420  0.50410  0.58630  Biso   1.000  C
  C42      1.0000 0.96580  0.49590  0.08630  Biso   1.000  C
  C43      1.0000 0.46580  0.00410  0.91370  Biso   1.000  C
  C44      1.0000 0.03420  0.99590  0.41370  Biso   1.000  C
  H25      1.0000 0.47830  0.49860  0.61050  Biso   1.000  H
  H26      1.0000 0.02170  0.50140  0.11050  Biso   1.000  H
  H27      1.0000 0.52170  0.99860  0.88950  Biso   1.000  H
  H28      1.0000 0.97830  0.00140  0.38950  Biso   1.000  H
  C45      1.0000 0.70610  0.46970  0.57860  Biso   1.000  C
  C46      1.0000 0.79390  0.53030  0.07860  Biso   1.000  C
  C47      1.0000 0.29390  0.96970  0.92140  Biso   1.000  C
  C48      1.0000 0.20610  0.03030  0.42140  Biso   1.000  C
  H29      1.0000 0.77070  0.44280  0.59830  Biso   1.000  H
  H30      1.0000 0.72930  0.55720  0.09830  Biso   1.000  H
  H31      1.0000 0.22930  0.94280  0.90170  Biso   1.000  H
  H32      1.0000 0.27070  0.05720  0.40170  Biso   1.000  H
  C49      1.0000 0.79180  0.47210  0.54300  Biso   1.000  C
  C50      1.0000 0.70820  0.52790  0.04300  Biso   1.000  C
  C51      1.0000 0.20820  0.97210  0.95700  Biso   1.000  C
  C52      1.0000 0.29180  0.02790  0.45700  Biso   1.000  C
  C53      1.0000 0.69640  0.51710  0.51630  Biso   1.000  C
  C54      1.0000 0.80360  0.48290  0.01630  Biso   1.000  C
  C55      1.0000 0.30360  0.01710  0.98370  Biso   1.000  C
  C56      1.0000 0.19640  0.98290  0.48370  Biso   1.000  C
  H33      1.0000 0.75190  0.52300  0.49200  Biso   1.000  H
  H34      1.0000 0.74810  0.47700  0.99200  Biso   1.000  H
  H35      1.0000 0.24810  0.02300  0.00800  Biso   1.000  H
  H36      1.0000 0.25190  0.97700  0.50800  Biso   1.000  H
  C57      1.0000 0.52420  0.55330  0.52370  Biso   1.000  C
  C58      1.0000 0.97580  0.44670  0.02370  Biso   1.000  C
  C59      1.0000 0.47580  0.05330  0.97630  Biso   1.000  C
  C60      1.0000 0.02420  0.94670  0.47630  Biso   1.000  C
  H37      1.0000 0.46260  0.58260  0.50450  Biso   1.000  H
  H38      1.0000 0.03740  0.41740  0.00450  Biso   1.000  H
  H39      1.0000 0.53740  0.08260  0.99550  Biso   1.000  H
  H40      1.0000 0.96260  0.91740  0.49550  Biso   1.000  H
  C61      1.0000 0.52030  0.15130  0.67570  Biso   1.000  C
  C62      1.0000 0.97970  0.84870  0.17570  Biso   1.000  C
  C63      1.0000 0.47970  0.65130  0.82430  Biso   1.000  C
  C64      1.0000 0.02030  0.34870  0.32430  Biso   1.000  C
  C65      1.0000 0.45280  0.20090  0.64370  Biso   1.000  C
  C66      1.0000 0.04720  0.79910  0.14370  Biso   1.000  C
  C67      1.0000 0.54720  0.70090  0.85630  Biso   1.000  C
  C68      1.0000 0.95280  0.29910  0.35630  Biso   1.000  C
  C69      1.0000 0.46690  0.17540  0.60640  Biso   1.000  C
  C70      1.0000 0.03310  0.82460  0.10640  Biso   1.000  C
  C71      1.0000 0.53310  0.67540  0.89360  Biso   1.000  C
  C72      1.0000 0.96690  0.32460  0.39360  Biso   1.000  C
  H41      1.0000 0.52130  0.12570  0.60080  Biso   1.000  H
  H42      1.0000 0.97870  0.87430  0.10080  Biso   1.000  H
  H43      1.0000 0.47870  0.62570  0.89920  Biso   1.000  H
  H44      1.0000 0.02130  0.37430  0.39920  Biso   1.000  H
  C73      1.0000 0.40150  0.22250  0.57780  Biso   1.000  C
  C74      1.0000 0.09850  0.77750  0.07780  Biso   1.000  C
  C75      1.0000 0.59850  0.72250  0.92220  Biso   1.000  C
  C76      1.0000 0.90150  0.27750  0.42220  Biso   1.000  C
  H45      1.0000 0.41320  0.20500  0.55260  Biso   1.000  H
  H46      1.0000 0.08680  0.79500  0.05260  Biso   1.000  H
  H47      1.0000 0.58680  0.70500  0.94740  Biso   1.000  H
  H48      1.0000 0.91320  0.29500  0.44740  Biso   1.000  H
  C77      1.0000 0.31930  0.29470  0.58470  Biso   1.000  C
  C78      1.0000 0.18070  0.70530  0.08470  Biso   1.000  C
  C79      1.0000 0.68070  0.79470  0.91530  Biso   1.000  C
  C80      1.0000 0.81930  0.20530  0.41530  Biso   1.000  C
  C81      1.0000 0.31170  0.32090  0.62170  Biso   1.000  C
  C82      1.0000 0.18830  0.67910  0.12170  Biso   1.000  C
  C83      1.0000 0.68830  0.82090  0.87830  Biso   1.000  C
  C84      1.0000 0.81170  0.17910  0.37830  Biso   1.000  C
  H49      1.0000 0.26020  0.37120  0.62700  Biso   1.000  H
  H50      1.0000 0.23980  0.62880  0.12700  Biso   1.000  H
  H51      1.0000 0.73980  0.87120  0.87300  Biso   1.000  H
  H52      1.0000 0.76020  0.12880  0.37300  Biso   1.000  H
  C85      1.0000 0.37850  0.27440  0.65090  Biso   1.000  C
  C86      1.0000 0.12150  0.72560  0.15090  Biso   1.000  C
  C87      1.0000 0.62150  0.77440  0.84910  Biso   1.000  C
  C88      1.0000 0.87850  0.22560  0.34910  Biso   1.000  C
  H53      1.0000 0.37300  0.29320  0.67600  Biso   1.000  H
  H54      1.0000 0.12700  0.70680  0.17600  Biso   1.000  H
  H55      1.0000 0.62700  0.79320  0.82400  Biso   1.000  H
  H56      1.0000 0.87300  0.20680  0.32400  Biso   1.000  H
  C89      1.0000 0.49400  0.41280  0.34010  Biso   1.000  C
  C90      1.0000 0.00600  0.58720  0.84010  Biso   1.000  C
  C91      1.0000 0.50600  0.91280  0.15990  Biso   1.000  C
  C92      1.0000 0.99400  0.08720  0.65990  Biso   1.000  C
  C93      1.0000 0.45600  0.41740  0.38060  Biso   1.000  C
  C94      1.0000 0.04400  0.58260  0.88060  Biso   1.000  C
  C95      1.0000 0.54400  0.91740  0.11940  Biso   1.000  C
  C96      1.0000 0.95600  0.08260  0.61940  Biso   1.000  C
  C97      1.0000 0.46490  0.34740  0.39880  Biso   1.000  C
  C98      1.0000 0.03510  0.65260  0.89880  Biso   1.000  C
  C99      1.0000 0.53510  0.84740  0.10120  Biso   1.000  C
  C100     1.0000 0.96490  0.15260  0.60120  Biso   1.000  C
  H57      1.0000 0.51460  0.30270  0.38630  Biso   1.000  H
  H58      1.0000 0.98540  0.69730  0.88630  Biso   1.000  H
  H59      1.0000 0.48540  0.80270  0.11370  Biso   1.000  H
  H60      1.0000 0.01460  0.19730  0.61370  Biso   1.000  H
  C101     1.0000 0.40080  0.34150  0.43600  Biso   1.000  C
  C102     1.0000 0.09920  0.65850  0.93600  Biso   1.000  C
  C103     1.0000 0.59920  0.84150  0.06400  Biso   1.000  C
  C104     1.0000 0.90080  0.15850  0.56400  Biso   1.000  C
  H61      1.0000 0.41220  0.29320  0.44910  Biso   1.000  H
  H62      1.0000 0.08780  0.70680  0.94910  Biso   1.000  H
  H63      1.0000 0.58780  0.79320  0.05090  Biso   1.000  H
  H64      1.0000 0.91220  0.20680  0.55090  Biso   1.000  H
  C105     1.0000 0.32080  0.40590  0.45380  Biso   1.000  C
  C106     1.0000 0.17920  0.59410  0.95380  Biso   1.000  C
  C107     1.0000 0.67920  0.90590  0.04620  Biso   1.000  C
  C108     1.0000 0.82080  0.09410  0.54620  Biso   1.000  C
  C109     1.0000 0.31780  0.47720  0.43480  Biso   1.000  C
  C110     1.0000 0.18220  0.52280  0.93480  Biso   1.000  C
  C111     1.0000 0.68220  0.97720  0.06520  Biso   1.000  C
  C112     1.0000 0.81780  0.02280  0.56520  Biso   1.000  C
  H65      1.0000 0.26700  0.52210  0.44700  Biso   1.000  H
  H66      1.0000 0.23300  0.47790  0.94700  Biso   1.000  H
  H67      1.0000 0.73300  0.02210  0.05300  Biso   1.000  H
  H68      1.0000 0.76700  0.97790  0.55300  Biso   1.000  H
  C113     1.0000 0.38610  0.48410  0.39890  Biso   1.000  C
  C114     1.0000 0.11390  0.51590  0.89890  Biso   1.000  C
  C115     1.0000 0.61390  0.98410  0.10110  Biso   1.000  C
  C116     1.0000 0.88610  0.01590  0.60110  Biso   1.000  C
  H69      1.0000 0.38620  0.53340  0.38650  Biso   1.000  H
  H70      1.0000 0.11380  0.46660  0.88650  Biso   1.000  H
  H71      1.0000 0.61380  0.03340  0.11350  Biso   1.000  H
  H72      1.0000 0.88620  0.96660  0.61350  Biso   1.000  H
  C117     1.0000 0.97510  0.43180  0.53470  Biso   1.000  C
  C118     1.0000 0.52490  0.56820  0.03470  Biso   1.000  C
  C119     1.0000 0.02490  0.93180  0.96530  Biso   1.000  C
  C120     1.0000 0.47510  0.06820  0.46530  Biso   1.000  C
  C121     1.0000 0.06290  0.38320  0.56160  Biso   1.000  C
  C122     1.0000 0.43710  0.61680  0.06160  Biso   1.000  C
  C123     1.0000 0.93710  0.88320  0.93840  Biso   1.000  C
  C124     1.0000 0.56290  0.11680  0.43840  Biso   1.000  C
  H73      1.0000 0.00400  0.37720  0.58550  Biso   1.000  H
  H74      1.0000 0.49600  0.62280  0.08550  Biso   1.000  H
  H75      1.0000 0.99600  0.87720  0.91450  Biso   1.000  H
  H76      1.0000 0.50400  0.12280  0.41450  Biso   1.000  H
  C125     1.0000 0.23230  0.34380  0.55430  Biso   1.000  C
  C126     1.0000 0.26770  0.65620  0.05430  Biso   1.000  C
  C127     1.0000 0.76770  0.84380  0.94570  Biso   1.000  C
  C128     1.0000 0.73230  0.15620  0.44570  Biso   1.000  C
  C129     1.0000 0.31690  0.35040  0.51900  Biso   1.000  C
  C130     1.0000 0.18310  0.64960  0.01900  Biso   1.000  C
  C131     1.0000 0.68310  0.85040  0.98100  Biso   1.000  C
  C132     1.0000 0.81690  0.14960  0.48100  Biso   1.000  C
  H77      1.0000 0.43140  0.32250  0.51350  Biso   1.000  H
  H78      1.0000 0.06860  0.67750  0.01350  Biso   1.000  H
  H79      1.0000 0.56860  0.82250  0.98650  Biso   1.000  H
  H80      1.0000 0.93140  0.17750  0.48650  Biso   1.000  H
  C133     1.0000 0.23380  0.39770  0.49190  Biso   1.000  C
  C134     1.0000 0.26620  0.60230  0.99190  Biso   1.000  C
  C135     1.0000 0.76620  0.89770  0.00810  Biso   1.000  C
  C136     1.0000 0.73380  0.10230  0.50810  Biso   1.000  C
  C137     1.0000 0.06460  0.43780  0.50000  Biso   1.000  C
  C138     1.0000 0.43540  0.56220  0.00000  Biso   1.000  C
  C139     1.0000 0.93540  0.93780  0.00000  Biso   1.000  C
  C140     1.0000 0.56460  0.06220  0.50000  Biso   1.000  C
  H81      1.0000 0.00900  0.47010  0.48120  Biso   1.000  H
  H82      1.0000 0.49100  0.52990  0.98120  Biso   1.000  H
  H83      1.0000 0.99100  0.97010  0.01880  Biso   1.000  H
  H84      1.0000 0.50900  0.02990  0.51880  Biso   1.000  H
  C141     1.0000 0.06400  0.80930  0.66750  Biso   1.000  C
  C142     1.0000 0.43600  0.19070  0.16750  Biso   1.000  C
  C143     1.0000 0.93600  0.30930  0.83250  Biso   1.000  C
  C144     1.0000 0.56400  0.69070  0.33250  Biso   1.000  C
  H85      1.0000 0.14140  0.85720  0.66840  Biso   1.000  H
  H86      1.0000 0.35860  0.14280  0.16840  Biso   1.000  H
  H87      1.0000 0.85860  0.35720  0.83160  Biso   1.000  H
  H88      1.0000 0.64140  0.64280  0.33160  Biso   1.000  H
  H89      1.0000 0.93050  0.82280  0.66180  Biso   1.000  H
  H90      1.0000 0.56950  0.17720  0.16180  Biso   1.000  H
  H91      1.0000 0.06950  0.32280  0.83820  Biso   1.000  H
  H92      1.0000 0.43050  0.67720  0.33820  Biso   1.000  H
  H93      1.0000 0.07030  0.78260  0.69180  Biso   1.000  H
  H94      1.0000 0.42970  0.21740  0.19180  Biso   1.000  H
  H95      1.0000 0.92970  0.28260  0.80820  Biso   1.000  H
  H96      1.0000 0.57030  0.71740  0.30820  Biso   1.000  H
  O65      1.0000 0.15080  0.74890  0.63320  Biso   1.000  O
  O66      1.0000 0.34920  0.25110  0.13320  Biso   1.000  O
  O67      1.0000 0.84920  0.24890  0.86680  Biso   1.000  O
  O68      1.0000 0.65080  0.75110  0.36680  Biso   1.000  O
  H97      1.0000 0.20000  0.76300  0.60950  Biso   1.000  H
  H98      1.0000 0.30000  0.23700  0.10950  Biso   1.000  H
  H99      1.0000 0.80000  0.26300  0.89050  Biso   1.000  H
  H100     1.0000 0.70000  0.73700  0.39050  Biso   1.000  H
  O69      1.0000 0.55850  0.92870  0.65514  Biso   1.000  O
  O70      1.0000 0.94150  0.07130  0.15514  Biso   1.000  O
  O71      1.0000 0.44150  0.42870  0.84486  Biso   1.000  O
  O72      1.0000 0.05850  0.57130  0.34486  Biso   1.000  O
  O73      1.0000 0.30560  0.97630  0.72870  Biso   1.000  O
  O74      1.0000 0.19440  0.02370  0.22870  Biso   1.000  O
  O75      1.0000 0.69440  0.47630  0.77130  Biso   1.000  O
  O76      1.0000 0.80560  0.52370  0.27130  Biso   1.000  O
  O77      1.0000 0.53770  0.25430  0.77431  Biso   1.000  O
  O78      1.0000 0.96230  0.74570  0.27431  Biso   1.000  O
  O79      1.0000 0.46230  0.75430  0.72569  Biso   1.000  O
  O80      1.0000 0.03770  0.24570  0.22569  Biso   1.000  O
  O81      1.0000 0.30070  0.10590  0.77330  Biso   1.000  O
  O82      1.0000 0.19930  0.89410  0.27330  Biso   1.000  O
  O83      1.0000 0.69930  0.60590  0.72670  Biso   1.000  O
  O84      1.0000 0.80070  0.39410  0.22670  Biso   1.000  O
  O85      1.0000 0.59500  0.37690  0.32150  Biso   1.000  O
  O86      1.0000 0.90500  0.62310  0.82150  Biso   1.000  O
  O87      1.0000 0.40500  0.87690  0.17850  Biso   1.000  O
  O88      1.0000 0.09500  0.12310  0.67850  Biso   1.000  O
  O89      1.0000 0.57000  0.50690  0.33030  Biso   1.000  O
  O90      1.0000 0.93000  0.49310  0.83030  Biso   1.000  O
  O91      1.0000 0.43000  0.00690  0.16970  Biso   1.000  O
  O92      1.0000 0.07000  0.99310  0.66970  Biso   1.000  O
  C145     1.0000 0.55200  0.43410  0.34060  Biso   1.000  C
  C146     1.0000 0.94800  0.56590  0.84060  Biso   1.000  C
  C147     1.0000 0.44800  0.93410  0.15940  Biso   1.000  C
  C148     1.0000 0.05200  0.06590  0.65940  Biso   1.000  C
  O93      1.0000 0.14230  0.83500  0.56550  Biso   1.000  O
  O94      1.0000 0.35770  0.16500  0.06550  Biso   1.000  O
  O95      1.0000 0.85770  0.33500  0.93450  Biso   1.000  O
  O96      1.0000 0.64230  0.66500  0.43450  Biso   1.000  O
  O97      1.0000 0.01010  0.18930  0.74330  Biso   1.000  O
  O98      1.0000 0.48990  0.81070  0.24330  Biso   1.000  O
  O99      1.0000 0.98990  0.68930  0.75670  Biso   1.000  O
  O100     1.0000 0.51010  0.31070  0.25670  Biso   1.000  O
  O101     1.0000 0.34580  0.96590  0.59250  Biso   1.000  O
  O102     1.0000 0.15420  0.03410  0.09250  Biso   1.000  O
  O103     1.0000 0.65420  0.46590  0.90750  Biso   1.000  O
  O104     1.0000 0.84580  0.53410  0.40750  Biso   1.000  O
  O105     1.0000 0.79800  0.35880  0.68540  Biso   1.000  O
  O106     1.0000 0.70200  0.64120  0.18540  Biso   1.000  O
  O107     1.0000 0.20200  0.85880  0.81460  Biso   1.000  O
  O108     1.0000 0.29800  0.14120  0.31460  Biso   1.000  O
  O109     1.0000 0.74100  0.35850  0.72080  Biso   1.000  O
  O110     1.0000 0.75900  0.64150  0.22080  Biso   1.000  O
  O111     1.0000 0.25900  0.85850  0.77920  Biso   1.000  O
  O112     1.0000 0.24100  0.14150  0.27920  Biso   1.000  O
