data_image0
_cell_length_a       13.949
_cell_length_b       27.592
_cell_length_c       16.714
_cell_angle_alpha    90
_cell_angle_beta     107.134
_cell_angle_gamma    90

_symmetry_space_group_name_H-M    "P 1"
_symmetry_int_tables_number       1

loop_
  _symmetry_equiv_pos_as_xyz
  'x, y, z'

loop_
  _atom_site_label
  _atom_site_occupancy
  _atom_site_fract_x
  _atom_site_fract_y
  _atom_site_fract_z
  _atom_site_thermal_displace_type
  _atom_site_B_iso_or_equiv
  _atom_site_type_symbol
  Bi1      1.0000 0.63176  0.13884  0.02421  Biso   1.000  Bi
  Bi2      1.0000 0.86824  0.63884  0.47579  Biso   1.000  Bi
  Bi3      1.0000 0.36824  0.86116  0.97579  Biso   1.000  Bi
  Bi4      1.0000 0.13176  0.36116  0.52421  Biso   1.000  Bi
  Bi5      1.0000 0.69062  0.18484  0.74933  Biso   1.000  Bi
  Bi6      1.0000 0.80938  0.68484  0.75067  Biso   1.000  Bi
  Bi7      1.0000 0.30938  0.81516  0.25067  Biso   1.000  Bi
  Bi8      1.0000 0.19062  0.31516  0.24933  Biso   1.000  Bi
  Br1      1.0000 0.79303  0.08155  0.07518  Biso   1.000  Br
  Br2      1.0000 0.70697  0.58155  0.42482  Biso   1.000  Br
  Br3      1.0000 0.20697  0.91845  0.92482  Biso   1.000  Br
  Br4      1.0000 0.29303  0.41845  0.57518  Biso   1.000  Br
  Br5      1.0000 0.54468  0.10088  0.13105  Biso   1.000  Br
  Br6      1.0000 0.95532  0.60088  0.36895  Biso   1.000  Br
  Br7      1.0000 0.45532  0.89912  0.86895  Biso   1.000  Br
  Br8      1.0000 0.04468  0.39912  0.63105  Biso   1.000  Br
  Br9      1.0000 0.71937  0.20971  0.12614  Biso   1.000  Br
  Br10     1.0000 0.78063  0.70971  0.37386  Biso   1.000  Br
  Br11     1.0000 0.28063  0.79029  0.87386  Biso   1.000  Br
  Br12     1.0000 0.21937  0.29029  0.62614  Biso   1.000  Br
  Br13     1.0000 0.76872  0.26407  0.70833  Biso   1.000  Br
  Br14     1.0000 0.73128  0.76407  0.79167  Biso   1.000  Br
  Br15     1.0000 0.23128  0.73593  0.29167  Biso   1.000  Br
  Br16     1.0000 0.26872  0.23593  0.20833  Biso   1.000  Br
  Br17     1.0000 0.72632  0.21463  0.90792  Biso   1.000  Br
  Br18     1.0000 0.77368  0.71463  0.59208  Biso   1.000  Br
  Br19     1.0000 0.27368  0.78537  0.09208  Biso   1.000  Br
  Br20     1.0000 0.22632  0.28537  0.40792  Biso   1.000  Br
  Br21     1.0000 0.86071  0.13539  0.78645  Biso   1.000  Br
  Br22     1.0000 0.63929  0.63539  0.71355  Biso   1.000  Br
  Br23     1.0000 0.13929  0.86461  0.21355  Biso   1.000  Br
  Br24     1.0000 0.36071  0.36461  0.28645  Biso   1.000  Br
  C1       1.0000 0.29820  0.47710  0.87443  Biso   1.000  C
  C2       1.0000 0.20180  0.97710  0.62557  Biso   1.000  C
  C3       1.0000 0.70180  0.52290  0.12557  Biso   1.000  C
  C4       1.0000 0.79820  0.02290  0.37443  Biso   1.000  C
  C5       1.0000 0.24450  0.43896  0.82100  Biso   1.000  C
  C6       1.0000 0.25550  0.93896  0.67900  Biso   1.000  C
  C7       1.0000 0.75550  0.56104  0.17900  Biso   1.000  C
  C8       1.0000 0.74450  0.06104  0.32100  Biso   1.000  C
  H1       1.0000 0.17750  0.44040  0.78510  Biso   1.000  H
  H2       1.0000 0.32250  0.94040  0.71490  Biso   1.000  H
  H3       1.0000 0.82250  0.55960  0.21490  Biso   1.000  H
  H4       1.0000 0.67750  0.05960  0.28510  Biso   1.000  H
  C9       1.0000 0.30720  0.40090  0.83140  Biso   1.000  C
  C10      1.0000 0.19280  0.90090  0.66860  Biso   1.000  C
  C11      1.0000 0.69280  0.59910  0.16860  Biso   1.000  C
  C12      1.0000 0.80720  0.09910  0.33140  Biso   1.000  C
  H5       1.0000 0.29300  0.37040  0.80410  Biso   1.000  H
  H6       1.0000 0.20700  0.87040  0.69590  Biso   1.000  H
  H7       1.0000 0.70700  0.62960  0.19590  Biso   1.000  H
  H8       1.0000 0.79300  0.12960  0.30410  Biso   1.000  H
  C13      1.0000 0.40010  0.41504  0.89193  Biso   1.000  C
  C14      1.0000 0.09990  0.91504  0.60807  Biso   1.000  C
  C15      1.0000 0.59990  0.58496  0.10807  Biso   1.000  C
  C16      1.0000 0.90010  0.08496  0.39193  Biso   1.000  C
  C17      1.0000 0.48200  0.38463  0.92267  Biso   1.000  C
  C18      1.0000 0.01800  0.88463  0.57733  Biso   1.000  C
  C19      1.0000 0.51800  0.61537  0.07733  Biso   1.000  C
  C20      1.0000 0.98200  0.11537  0.42267  Biso   1.000  C
  C21      1.0000 0.57110  0.39780  0.98161  Biso   1.000  C
  C22      1.0000 0.92890  0.89780  0.51839  Biso   1.000  C
  C23      1.0000 0.42890  0.60220  0.01839  Biso   1.000  C
  C24      1.0000 0.07110  0.10220  0.48161  Biso   1.000  C
  C25      1.0000 0.65480  0.36579  0.01300  Biso   1.000  C
  C26      1.0000 0.84520  0.86579  0.48700  Biso   1.000  C
  C27      1.0000 0.34520  0.63421  0.98700  Biso   1.000  C
  C28      1.0000 0.15480  0.13421  0.51300  Biso   1.000  C
  H9       1.0000 0.65830  0.33270  0.99820  Biso   1.000  H
  H10      1.0000 0.84170  0.83270  0.50180  Biso   1.000  H
  H11      1.0000 0.34170  0.66730  0.00180  Biso   1.000  H
  H12      1.0000 0.15830  0.16730  0.49820  Biso   1.000  H
  C29      1.0000 0.72750  0.39137  0.06750  Biso   1.000  C
  C30      1.0000 0.77250  0.89137  0.43250  Biso   1.000  C
  C31      1.0000 0.27250  0.60863  0.93250  Biso   1.000  C
  C32      1.0000 0.22750  0.10863  0.56750  Biso   1.000  C
  H13      1.0000 0.79180  0.37970  0.09850  Biso   1.000  H
  H14      1.0000 0.70820  0.87970  0.40150  Biso   1.000  H
  H15      1.0000 0.20820  0.62030  0.90150  Biso   1.000  H
  H16      1.0000 0.29180  0.12030  0.59850  Biso   1.000  H
  C33      1.0000 0.68960  0.43973  0.06999  Biso   1.000  C
  C34      1.0000 0.81040  0.93973  0.43001  Biso   1.000  C
  C35      1.0000 0.31040  0.56027  0.93001  Biso   1.000  C
  C36      1.0000 0.18960  0.06027  0.56999  Biso   1.000  C
  C37      1.0000 0.25780  0.52318  0.87939  Biso   1.000  C
  C38      1.0000 0.24220  0.02318  0.62061  Biso   1.000  C
  C39      1.0000 0.74220  0.47682  0.12061  Biso   1.000  C
  C40      1.0000 0.75780  0.97682  0.37939  Biso   1.000  C
  C41      1.0000 0.47400  0.33311  0.89375  Biso   1.000  C
  C42      1.0000 0.02600  0.83311  0.60625  Biso   1.000  C
  C43      1.0000 0.52600  0.66689  0.10625  Biso   1.000  C
  C44      1.0000 0.97400  0.16689  0.39375  Biso   1.000  C
  C45      1.0000 0.46360  0.29732  0.94920  Biso   1.000  C
  C46      1.0000 0.03640  0.79732  0.55080  Biso   1.000  C
  C47      1.0000 0.53640  0.70268  0.05080  Biso   1.000  C
  C48      1.0000 0.96360  0.20268  0.44920  Biso   1.000  C
  H17      1.0000 0.45930  0.30600  0.00300  Biso   1.000  H
  H18      1.0000 0.04070  0.80600  0.49700  Biso   1.000  H
  H19      1.0000 0.54070  0.69400  0.99700  Biso   1.000  H
  H20      1.0000 0.95930  0.19400  0.50300  Biso   1.000  H
  C49      1.0000 0.45970  0.24879  0.92603  Biso   1.000  C
  C50      1.0000 0.04030  0.74879  0.57397  Biso   1.000  C
  C51      1.0000 0.54030  0.75121  0.07397  Biso   1.000  C
  C52      1.0000 0.95970  0.25121  0.42603  Biso   1.000  C
  C53      1.0000 0.46780  0.23627  0.84750  Biso   1.000  C
  C54      1.0000 0.03220  0.73627  0.65250  Biso   1.000  C
  C55      1.0000 0.53220  0.76373  0.15250  Biso   1.000  C
  C56      1.0000 0.96780  0.26373  0.34750  Biso   1.000  C
  C57      1.0000 0.47810  0.27215  0.79155  Biso   1.000  C
  C58      1.0000 0.02190  0.77215  0.70845  Biso   1.000  C
  C59      1.0000 0.52190  0.72785  0.20845  Biso   1.000  C
  C60      1.0000 0.97810  0.22785  0.29155  Biso   1.000  C
  C61      1.0000 0.47950  0.32072  0.81470  Biso   1.000  C
  C62      1.0000 0.02050  0.82072  0.68530  Biso   1.000  C
  C63      1.0000 0.52050  0.67928  0.18530  Biso   1.000  C
  C64      1.0000 0.97950  0.17928  0.31470  Biso   1.000  C
  H21      1.0000 0.48420  0.34540  0.77640  Biso   1.000  H
  H22      1.0000 0.01580  0.84540  0.72360  Biso   1.000  H
  H23      1.0000 0.51580  0.65460  0.22360  Biso   1.000  H
  H24      1.0000 0.98420  0.15460  0.27640  Biso   1.000  H
  C65      1.0000 0.44520  0.23185  0.08720  Biso   1.000  C
  C66      1.0000 0.05480  0.73185  0.41280  Biso   1.000  C
  C67      1.0000 0.55480  0.76815  0.91280  Biso   1.000  C
  C68      1.0000 0.94520  0.26815  0.58720  Biso   1.000  C
  H25      1.0000 0.50860  0.24960  0.10740  Biso   1.000  H
  H26      1.0000 0.99140  0.74960  0.39260  Biso   1.000  H
  H27      1.0000 0.49140  0.75040  0.89260  Biso   1.000  H
  H28      1.0000 0.00860  0.25040  0.60740  Biso   1.000  H
  H29      1.0000 0.44060  0.20790  0.12920  Biso   1.000  H
  H30      1.0000 0.05940  0.70790  0.37080  Biso   1.000  H
  H31      1.0000 0.55940  0.79210  0.87080  Biso   1.000  H
  H32      1.0000 0.94060  0.29210  0.62920  Biso   1.000  H
  H33      1.0000 0.38890  0.25460  0.07730  Biso   1.000  H
  H34      1.0000 0.11110  0.75460  0.42270  Biso   1.000  H
  H35      1.0000 0.61110  0.74540  0.92270  Biso   1.000  H
  H36      1.0000 0.88890  0.24540  0.57730  Biso   1.000  H
  C69      1.0000 0.33680  0.16432  0.77190  Biso   1.000  C
  C70      1.0000 0.16320  0.66432  0.72810  Biso   1.000  C
  C71      1.0000 0.66320  0.83568  0.22810  Biso   1.000  C
  C72      1.0000 0.83680  0.33568  0.27190  Biso   1.000  C
  H37      1.0000 0.30090  0.17030  0.81320  Biso   1.000  H
  H38      1.0000 0.19910  0.67030  0.68680  Biso   1.000  H
  H39      1.0000 0.69910  0.82970  0.18680  Biso   1.000  H
  H40      1.0000 0.80090  0.32970  0.31320  Biso   1.000  H
  H41      1.0000 0.32570  0.13080  0.75220  Biso   1.000  H
  H42      1.0000 0.17430  0.63080  0.74780  Biso   1.000  H
  H43      1.0000 0.67430  0.86920  0.24780  Biso   1.000  H
  H44      1.0000 0.82570  0.36920  0.25220  Biso   1.000  H
  H45      1.0000 0.31210  0.18650  0.72440  Biso   1.000  H
  H46      1.0000 0.18790  0.68650  0.77560  Biso   1.000  H
  H47      1.0000 0.68790  0.81350  0.27560  Biso   1.000  H
  H48      1.0000 0.81210  0.31350  0.22440  Biso   1.000  H
  C73      1.0000 0.50560  0.30780  0.64350  Biso   1.000  C
  C74      1.0000 0.99440  0.80780  0.85650  Biso   1.000  C
  C75      1.0000 0.49440  0.69220  0.35650  Biso   1.000  C
  C76      1.0000 0.00560  0.19220  0.14350  Biso   1.000  C
  H49      1.0000 0.44560  0.32800  0.63520  Biso   1.000  H
  H50      1.0000 0.05440  0.82800  0.86480  Biso   1.000  H
  H51      1.0000 0.55440  0.67200  0.36480  Biso   1.000  H
  H52      1.0000 0.94560  0.17200  0.13520  Biso   1.000  H
  H53      1.0000 0.51540  0.30040  0.58900  Biso   1.000  H
  H54      1.0000 0.98460  0.80040  0.91100  Biso   1.000  H
  H55      1.0000 0.48460  0.69960  0.41100  Biso   1.000  H
  H56      1.0000 0.01540  0.19960  0.08900  Biso   1.000  H
  H57      1.0000 0.56430  0.32530  0.67830  Biso   1.000  H
  H58      1.0000 0.93570  0.82530  0.82170  Biso   1.000  H
  H59      1.0000 0.43570  0.67470  0.32170  Biso   1.000  H
  H60      1.0000 0.06430  0.17470  0.17830  Biso   1.000  H
  C77      1.0000 0.15470  0.53422  0.82512  Biso   1.000  C
  C78      1.0000 0.34530  0.03422  0.67488  Biso   1.000  C
  C79      1.0000 0.84530  0.46578  0.17488  Biso   1.000  C
  C80      1.0000 0.65470  0.96578  0.32512  Biso   1.000  C
  C81      1.0000 0.13540  0.53356  0.73820  Biso   1.000  C
  C82      1.0000 0.36460  0.03356  0.76180  Biso   1.000  C
  C83      1.0000 0.86460  0.46644  0.26180  Biso   1.000  C
  C84      1.0000 0.63540  0.96644  0.23820  Biso   1.000  C
  H61      1.0000 0.18620  0.52330  0.71470  Biso   1.000  H
  H62      1.0000 0.31380  0.02330  0.78530  Biso   1.000  H
  H63      1.0000 0.81380  0.47670  0.28530  Biso   1.000  H
  H64      1.0000 0.68620  0.97670  0.21470  Biso   1.000  H
  C85      1.0000 0.04170  0.54786  0.68547  Biso   1.000  C
  C86      1.0000 0.45830  0.04786  0.81453  Biso   1.000  C
  C87      1.0000 0.95830  0.45214  0.31453  Biso   1.000  C
  C88      1.0000 0.54170  0.95214  0.18547  Biso   1.000  C
  C89      1.0000 0.96680  0.56198  0.72060  Biso   1.000  C
  C90      1.0000 0.53320  0.06198  0.77940  Biso   1.000  C
  C91      1.0000 0.03320  0.43802  0.27940  Biso   1.000  C
  C92      1.0000 0.46680  0.93802  0.22060  Biso   1.000  C
  C93      1.0000 0.98470  0.56167  0.80793  Biso   1.000  C
  C94      1.0000 0.51530  0.06167  0.69207  Biso   1.000  C
  C95      1.0000 0.01530  0.43833  0.19207  Biso   1.000  C
  C96      1.0000 0.48470  0.93833  0.30793  Biso   1.000  C
  C97      1.0000 0.07870  0.54755  0.85950  Biso   1.000  C
  C98      1.0000 0.42130  0.04755  0.64050  Biso   1.000  C
  C99      1.0000 0.92130  0.45245  0.14050  Biso   1.000  C
  C100     1.0000 0.57870  0.95245  0.35950  Biso   1.000  C
  H65      1.0000 0.09100  0.54700  0.91850  Biso   1.000  H
  H66      1.0000 0.40900  0.04700  0.58150  Biso   1.000  H
  H67      1.0000 0.90900  0.45300  0.08150  Biso   1.000  H
  H68      1.0000 0.59100  0.95300  0.41850  Biso   1.000  H
  C101     1.0000 0.13570  0.54337  0.55950  Biso   1.000  C
  C102     1.0000 0.36430  0.04337  0.94050  Biso   1.000  C
  C103     1.0000 0.86430  0.45663  0.44050  Biso   1.000  C
  C104     1.0000 0.63570  0.95663  0.05950  Biso   1.000  C
  H69      1.0000 0.16190  0.51060  0.57500  Biso   1.000  H
  H70      1.0000 0.33810  0.01060  0.92500  Biso   1.000  H
  H71      1.0000 0.83810  0.48940  0.42500  Biso   1.000  H
  H72      1.0000 0.66190  0.98940  0.07500  Biso   1.000  H
  H73      1.0000 0.13000  0.54930  0.50050  Biso   1.000  H
  H74      1.0000 0.37000  0.04930  0.99950  Biso   1.000  H
  H75      1.0000 0.87000  0.45070  0.49950  Biso   1.000  H
  H76      1.0000 0.63000  0.95070  0.00050  Biso   1.000  H
  H77      1.0000 0.18150  0.56720  0.59440  Biso   1.000  H
  H78      1.0000 0.31850  0.06720  0.90560  Biso   1.000  H
  H79      1.0000 0.81850  0.43280  0.40560  Biso   1.000  H
  H80      1.0000 0.68150  0.93280  0.09440  Biso   1.000  H
  C105     1.0000 0.76830  0.53280  0.64400  Biso   1.000  C
  C106     1.0000 0.73170  0.03280  0.85600  Biso   1.000  C
  C107     1.0000 0.23170  0.46720  0.35600  Biso   1.000  C
  C108     1.0000 0.26830  0.96720  0.14400  Biso   1.000  C
  H81      1.0000 0.75910  0.52490  0.69850  Biso   1.000  H
  H82      1.0000 0.74090  0.02490  0.80150  Biso   1.000  H
  H83      1.0000 0.24090  0.47510  0.30150  Biso   1.000  H
  H84      1.0000 0.25910  0.97510  0.19850  Biso   1.000  H
  H85      1.0000 0.70320  0.54040  0.60400  Biso   1.000  H
  H86      1.0000 0.79680  0.04040  0.89600  Biso   1.000  H
  H87      1.0000 0.29680  0.45960  0.39600  Biso   1.000  H
  H88      1.0000 0.20320  0.95960  0.10400  Biso   1.000  H
  H89      1.0000 0.79810  0.50500  0.62370  Biso   1.000  H
  H90      1.0000 0.70190  0.00500  0.87630  Biso   1.000  H
  H91      1.0000 0.20190  0.49500  0.37630  Biso   1.000  H
  H92      1.0000 0.29810  0.99500  0.12370  Biso   1.000  H
  C109     1.0000 0.93540  0.57457  0.95770  Biso   1.000  C
  C110     1.0000 0.56460  0.07457  0.54230  Biso   1.000  C
  C111     1.0000 0.06460  0.42543  0.04230  Biso   1.000  C
  C112     1.0000 0.43540  0.92543  0.45770  Biso   1.000  C
  H93      1.0000 0.99350  0.59610  0.97710  Biso   1.000  H
  H94      1.0000 0.50650  0.09610  0.52290  Biso   1.000  H
  H95      1.0000 0.00650  0.40390  0.02290  Biso   1.000  H
  H96      1.0000 0.49350  0.90390  0.47710  Biso   1.000  H
  H97      1.0000 0.88410  0.58390  0.98410  Biso   1.000  H
  H98      1.0000 0.61590  0.08390  0.51590  Biso   1.000  H
  H99      1.0000 0.11590  0.41610  0.01590  Biso   1.000  H
  H100     1.0000 0.38410  0.91610  0.48410  Biso   1.000  H
  H101     1.0000 0.95630  0.54100  0.97260  Biso   1.000  H
  H102     1.0000 0.54370  0.04100  0.52740  Biso   1.000  H
  H103     1.0000 0.04370  0.45900  0.02740  Biso   1.000  H
  H104     1.0000 0.45630  0.95900  0.47260  Biso   1.000  H
  N1       1.0000 0.44550  0.61638  0.80560  Biso   1.000  N
  N2       1.0000 0.05450  0.11638  0.69440  Biso   1.000  N
  N3       1.0000 0.55450  0.38362  0.19440  Biso   1.000  N
  N4       1.0000 0.94550  0.88362  0.30560  Biso   1.000  N
  O1       1.0000 0.49030  0.64690  0.85560  Biso   1.000  O
  O2       1.0000 0.00970  0.14690  0.64440  Biso   1.000  O
  O3       1.0000 0.50970  0.35310  0.14440  Biso   1.000  O
  O4       1.0000 0.99030  0.85310  0.35560  Biso   1.000  O
  O5       1.0000 0.36640  0.62372  0.75140  Biso   1.000  O
  O6       1.0000 0.13360  0.12372  0.74860  Biso   1.000  O
  O7       1.0000 0.63360  0.37628  0.24860  Biso   1.000  O
  O8       1.0000 0.86640  0.87628  0.25140  Biso   1.000  O
  C113     1.0000 0.48990  0.56899  0.80810  Biso   1.000  C
  C114     1.0000 0.01010  0.06899  0.69190  Biso   1.000  C
  C115     1.0000 0.51010  0.43101  0.19190  Biso   1.000  C
  C116     1.0000 0.98990  0.93101  0.30810  Biso   1.000  C
  C117     1.0000 0.58300  0.55952  0.86500  Biso   1.000  C
  C118     1.0000 0.91700  0.05952  0.63500  Biso   1.000  C
  C119     1.0000 0.41700  0.44048  0.13500  Biso   1.000  C
  C120     1.0000 0.08300  0.94048  0.36500  Biso   1.000  C
  H105     1.0000 0.61600  0.58380  0.90350  Biso   1.000  H
  H106     1.0000 0.88400  0.08380  0.59650  Biso   1.000  H
  H107     1.0000 0.38400  0.41620  0.09650  Biso   1.000  H
  H108     1.0000 0.11600  0.91620  0.40350  Biso   1.000  H
  C121     1.0000 0.62780  0.51448  0.86550  Biso   1.000  C
  C122     1.0000 0.87220  0.01448  0.63450  Biso   1.000  C
  C123     1.0000 0.37220  0.48552  0.13450  Biso   1.000  C
  C124     1.0000 0.12780  0.98552  0.36550  Biso   1.000  C
  H109     1.0000 0.69140  0.50800  0.90430  Biso   1.000  H
  H110     1.0000 0.80860  0.00800  0.59570  Biso   1.000  H
  H111     1.0000 0.30860  0.49200  0.09570  Biso   1.000  H
  H112     1.0000 0.19140  0.99200  0.40430  Biso   1.000  H
  C125     1.0000 0.57950  0.47891  0.80900  Biso   1.000  C
  C126     1.0000 0.92050  0.97891  0.69100  Biso   1.000  C
  C127     1.0000 0.42050  0.52109  0.19100  Biso   1.000  C
  C128     1.0000 0.07950  0.02109  0.30900  Biso   1.000  C
  H113     1.0000 0.61010  0.44810  0.80940  Biso   1.000  H
  H114     1.0000 0.88990  0.94810  0.69060  Biso   1.000  H
  H115     1.0000 0.38990  0.55190  0.19060  Biso   1.000  H
  H116     1.0000 0.11010  0.05190  0.30940  Biso   1.000  H
  C129     1.0000 0.48640  0.48838  0.75210  Biso   1.000  C
  C130     1.0000 0.01360  0.98838  0.74790  Biso   1.000  C
  C131     1.0000 0.51360  0.51162  0.24790  Biso   1.000  C
  C132     1.0000 0.98640  0.01162  0.25210  Biso   1.000  C
  H117     1.0000 0.45340  0.46410  0.71360  Biso   1.000  H
  H118     1.0000 0.04660  0.96410  0.78640  Biso   1.000  H
  H119     1.0000 0.54660  0.53590  0.28640  Biso   1.000  H
  H120     1.0000 0.95340  0.03590  0.21360  Biso   1.000  H
  C133     1.0000 0.44160  0.53342  0.75160  Biso   1.000  C
  C134     1.0000 0.05840  0.03342  0.74840  Biso   1.000  C
  C135     1.0000 0.55840  0.46658  0.24840  Biso   1.000  C
  C136     1.0000 0.94160  0.96658  0.25160  Biso   1.000  C
  H121     1.0000 0.37790  0.53990  0.71270  Biso   1.000  H
  H122     1.0000 0.12210  0.03990  0.78730  Biso   1.000  H
  H123     1.0000 0.62210  0.46010  0.28730  Biso   1.000  H
  H124     1.0000 0.87790  0.96010  0.21270  Biso   1.000  H
  N5       1.0000 0.52550  0.61780  0.86560  Biso   1.000  N
  N6       1.0000 0.97450  0.11780  0.63440  Biso   1.000  N
  N7       1.0000 0.47450  0.38220  0.13440  Biso   1.000  N
  N8       1.0000 0.02550  0.88220  0.36560  Biso   1.000  N
  O9       1.0000 0.60230  0.62360  0.92310  Biso   1.000  O
  O10      1.0000 0.89770  0.12360  0.57690  Biso   1.000  O
  O11      1.0000 0.39770  0.37640  0.07690  Biso   1.000  O
  O12      1.0000 0.10230  0.87640  0.42310  Biso   1.000  O
  O13      1.0000 0.46000  0.64850  0.84500  Biso   1.000  O
  O14      1.0000 0.04000  0.14850  0.65500  Biso   1.000  O
  O15      1.0000 0.54000  0.35150  0.15500  Biso   1.000  O
  O16      1.0000 0.96000  0.85150  0.34500  Biso   1.000  O
  C137     1.0000 0.51550  0.57060  0.82700  Biso   1.000  C
  C138     1.0000 0.98450  0.07060  0.67300  Biso   1.000  C
  C139     1.0000 0.48450  0.42940  0.17300  Biso   1.000  C
  C140     1.0000 0.01550  0.92940  0.32700  Biso   1.000  C
  C141     1.0000 0.58640  0.53400  0.85220  Biso   1.000  C
  C142     1.0000 0.91360  0.03400  0.64780  Biso   1.000  C
  C143     1.0000 0.41360  0.46600  0.14780  Biso   1.000  C
  C144     1.0000 0.08640  0.96600  0.35220  Biso   1.000  C
  H125     1.0000 0.64640  0.53960  0.89620  Biso   1.000  H
  H126     1.0000 0.85360  0.03960  0.60380  Biso   1.000  H
  H127     1.0000 0.35360  0.46040  0.10380  Biso   1.000  H
  H128     1.0000 0.14640  0.96040  0.39620  Biso   1.000  H
  C145     1.0000 0.56950  0.48900  0.81310  Biso   1.000  C
  C146     1.0000 0.93050  0.98900  0.68690  Biso   1.000  C
  C147     1.0000 0.43050  0.51100  0.18690  Biso   1.000  C
  C148     1.0000 0.06950  0.01100  0.31310  Biso   1.000  C
  H129     1.0000 0.61790  0.46390  0.83030  Biso   1.000  H
  H130     1.0000 0.88210  0.96390  0.66970  Biso   1.000  H
  H131     1.0000 0.38210  0.53610  0.16970  Biso   1.000  H
  H132     1.0000 0.11790  0.03610  0.33030  Biso   1.000  H
  C149     1.0000 0.48180  0.48070  0.74870  Biso   1.000  C
  C150     1.0000 0.01820  0.98070  0.75130  Biso   1.000  C
  C151     1.0000 0.51820  0.51930  0.25130  Biso   1.000  C
  C152     1.0000 0.98180  0.01930  0.24870  Biso   1.000  C
  H133     1.0000 0.47020  0.45000  0.72190  Biso   1.000  H
  H134     1.0000 0.02980  0.95000  0.77810  Biso   1.000  H
  H135     1.0000 0.52980  0.55000  0.27810  Biso   1.000  H
  H136     1.0000 0.97020  0.05000  0.22190  Biso   1.000  H
  C153     1.0000 0.41090  0.51730  0.72350  Biso   1.000  C
  C154     1.0000 0.08910  0.01730  0.77650  Biso   1.000  C
  C155     1.0000 0.58910  0.48270  0.27650  Biso   1.000  C
  C156     1.0000 0.91090  0.98270  0.22350  Biso   1.000  C
  H137     1.0000 0.35090  0.51170  0.67950  Biso   1.000  H
  H138     1.0000 0.14910  0.01170  0.82050  Biso   1.000  H
  H139     1.0000 0.64910  0.48830  0.32050  Biso   1.000  H
  H140     1.0000 0.85090  0.98830  0.17950  Biso   1.000  H
  C157     1.0000 0.42780  0.56230  0.76270  Biso   1.000  C
  C158     1.0000 0.07220  0.06230  0.73730  Biso   1.000  C
  C159     1.0000 0.57220  0.43770  0.23730  Biso   1.000  C
  C160     1.0000 0.92780  0.93770  0.26270  Biso   1.000  C
  H141     1.0000 0.37940  0.58740  0.74540  Biso   1.000  H
  H142     1.0000 0.12060  0.08740  0.75460  Biso   1.000  H
  H143     1.0000 0.62060  0.41260  0.25460  Biso   1.000  H
  H144     1.0000 0.87940  0.91260  0.24540  Biso   1.000  H
  C161     1.0000 0.63900  0.21789  0.45540  Biso   1.000  C
  C162     1.0000 0.86100  0.71789  0.04460  Biso   1.000  C
  C163     1.0000 0.36100  0.78211  0.54460  Biso   1.000  C
  C164     1.0000 0.13900  0.28211  0.95540  Biso   1.000  C
  C165     1.0000 0.71050  0.20305  0.41860  Biso   1.000  C
  C166     1.0000 0.78950  0.70305  0.08140  Biso   1.000  C
  C167     1.0000 0.28950  0.79695  0.58140  Biso   1.000  C
  C168     1.0000 0.21050  0.29695  0.91860  Biso   1.000  C
  H145     1.0000 0.75950  0.17950  0.44460  Biso   1.000  H
  H146     1.0000 0.74050  0.67950  0.05540  Biso   1.000  H
  H147     1.0000 0.24050  0.82050  0.55540  Biso   1.000  H
  H148     1.0000 0.25950  0.32050  0.94460  Biso   1.000  H
  C169     1.0000 0.70850  0.22353  0.34260  Biso   1.000  C
  C170     1.0000 0.79150  0.72353  0.15740  Biso   1.000  C
  C171     1.0000 0.29150  0.77647  0.65740  Biso   1.000  C
  C172     1.0000 0.20850  0.27647  0.84260  Biso   1.000  C
  H149     1.0000 0.75700  0.21420  0.31580  Biso   1.000  H
  H150     1.0000 0.74300  0.71420  0.18420  Biso   1.000  H
  H151     1.0000 0.24300  0.78580  0.68420  Biso   1.000  H
  H152     1.0000 0.25700  0.28580  0.81580  Biso   1.000  H
  C173     1.0000 0.63610  0.25760  0.30540  Biso   1.000  C
  C174     1.0000 0.86390  0.75760  0.19460  Biso   1.000  C
  C175     1.0000 0.36390  0.74240  0.69460  Biso   1.000  C
  C176     1.0000 0.13610  0.24240  0.80540  Biso   1.000  C
  H153     1.0000 0.63510  0.27140  0.25300  Biso   1.000  H
  H154     1.0000 0.86490  0.77140  0.24700  Biso   1.000  H
  H155     1.0000 0.36490  0.72860  0.74700  Biso   1.000  H
  H156     1.0000 0.13510  0.22860  0.75300  Biso   1.000  H
  C177     1.0000 0.56590  0.27164  0.34350  Biso   1.000  C
  C178     1.0000 0.93410  0.77164  0.15650  Biso   1.000  C
  C179     1.0000 0.43410  0.72836  0.65650  Biso   1.000  C
  C180     1.0000 0.06590  0.22836  0.84350  Biso   1.000  C
  H157     1.0000 0.51640  0.29490  0.31720  Biso   1.000  H
  H158     1.0000 0.98360  0.79490  0.18280  Biso   1.000  H
  H159     1.0000 0.48360  0.70510  0.68280  Biso   1.000  H
  H160     1.0000 0.01640  0.20510  0.81720  Biso   1.000  H
  C181     1.0000 0.56650  0.25224  0.41990  Biso   1.000  C
  C182     1.0000 0.93350  0.75224  0.08010  Biso   1.000  C
  C183     1.0000 0.43350  0.74776  0.58010  Biso   1.000  C
  C184     1.0000 0.06650  0.24776  0.91990  Biso   1.000  C
  H161     1.0000 0.51870  0.26210  0.44710  Biso   1.000  H
  H162     1.0000 0.98130  0.76210  0.05290  Biso   1.000  H
  H163     1.0000 0.48130  0.73790  0.55290  Biso   1.000  H
  H164     1.0000 0.01870  0.23790  0.94710  Biso   1.000  H
  N9       1.0000 0.63960  0.19619  0.53525  Biso   1.000  N
  N10      1.0000 0.86040  0.69619  0.96475  Biso   1.000  N
  N11      1.0000 0.36040  0.80381  0.46475  Biso   1.000  N
  N12      1.0000 0.13960  0.30381  0.03525  Biso   1.000  N
  O17      1.0000 0.56890  0.20412  0.56312  Biso   1.000  O
  O18      1.0000 0.93110  0.70412  0.93688  Biso   1.000  O
  O19      1.0000 0.43110  0.79588  0.43688  Biso   1.000  O
  O20      1.0000 0.06890  0.29588  0.06312  Biso   1.000  O
  O21      1.0000 0.71140  0.17045  0.57242  Biso   1.000  O
  O22      1.0000 0.78860  0.67045  0.92758  Biso   1.000  O
  O23      1.0000 0.28860  0.82955  0.42758  Biso   1.000  O
  O24      1.0000 0.21140  0.32955  0.07242  Biso   1.000  O
  C185     1.0000 0.61580  0.38789  0.46750  Biso   1.000  C
  C186     1.0000 0.88420  0.88789  0.03250  Biso   1.000  C
  C187     1.0000 0.38420  0.61211  0.53250  Biso   1.000  C
  C188     1.0000 0.11580  0.11211  0.96750  Biso   1.000  C
  H165     1.0000 0.59530  0.37800  0.41050  Biso   1.000  H
  H166     1.0000 0.90470  0.87800  0.08950  Biso   1.000  H
  H167     1.0000 0.40470  0.62200  0.58950  Biso   1.000  H
  H168     1.0000 0.09530  0.12200  0.91050  Biso   1.000  H
  C189     1.0000 0.55770  0.41900  0.49630  Biso   1.000  C
  C190     1.0000 0.94230  0.91900  0.00370  Biso   1.000  C
  C191     1.0000 0.44230  0.58100  0.50370  Biso   1.000  C
  C192     1.0000 0.05770  0.08100  0.99630  Biso   1.000  C
  H169     1.0000 0.49640  0.43060  0.45940  Biso   1.000  H
  H170     1.0000 0.00360  0.93060  0.04060  Biso   1.000  H
  H171     1.0000 0.50360  0.56940  0.54060  Biso   1.000  H
  H172     1.0000 0.99640  0.06940  0.95940  Biso   1.000  H
  C193     1.0000 0.58720  0.43340  0.57700  Biso   1.000  C
  C194     1.0000 0.91280  0.93340  0.92300  Biso   1.000  C
  C195     1.0000 0.41280  0.56660  0.42300  Biso   1.000  C
  C196     1.0000 0.08720  0.06660  0.07700  Biso   1.000  C
  H173     1.0000 0.54700  0.45560  0.59640  Biso   1.000  H
  H174     1.0000 0.95300  0.95560  0.90360  Biso   1.000  H
  H175     1.0000 0.45300  0.54440  0.40360  Biso   1.000  H
  H176     1.0000 0.04700  0.04440  0.09640  Biso   1.000  H
  C197     1.0000 0.67150  0.41710  0.62920  Biso   1.000  C
  C198     1.0000 0.82850  0.91710  0.87080  Biso   1.000  C
  C199     1.0000 0.32850  0.58290  0.37080  Biso   1.000  C
  C200     1.0000 0.17150  0.08290  0.12920  Biso   1.000  C
  H177     1.0000 0.69050  0.42730  0.68600  Biso   1.000  H
  H178     1.0000 0.80950  0.92730  0.81400  Biso   1.000  H
  H179     1.0000 0.30950  0.57270  0.31400  Biso   1.000  H
  H180     1.0000 0.19050  0.07270  0.18600  Biso   1.000  H
  C201     1.0000 0.73170  0.38580  0.60330  Biso   1.000  C
  C202     1.0000 0.76830  0.88580  0.89670  Biso   1.000  C
  C203     1.0000 0.26830  0.61420  0.39670  Biso   1.000  C
  C204     1.0000 0.23170  0.11420  0.10330  Biso   1.000  C
  H181     1.0000 0.79230  0.37430  0.64130  Biso   1.000  H
  H182     1.0000 0.70770  0.87430  0.85870  Biso   1.000  H
  H183     1.0000 0.20770  0.62570  0.35870  Biso   1.000  H
  H184     1.0000 0.29230  0.12570  0.14130  Biso   1.000  H
  C205     1.0000 0.70290  0.37098  0.52020  Biso   1.000  C
  C206     1.0000 0.79710  0.87098  0.97980  Biso   1.000  C
  C207     1.0000 0.29710  0.62902  0.47980  Biso   1.000  C
  C208     1.0000 0.20290  0.12902  0.02020  Biso   1.000  C
  H185     1.0000 0.74370  0.34920  0.50060  Biso   1.000  H
  H186     1.0000 0.75630  0.84920  0.99940  Biso   1.000  H
  H187     1.0000 0.25630  0.65080  0.49940  Biso   1.000  H
  H188     1.0000 0.24370  0.15080  0.00060  Biso   1.000  H
  C209     1.0000 0.59190  0.84739  0.64250  Biso   1.000  C
  C210     1.0000 0.90810  0.34739  0.85750  Biso   1.000  C
  C211     1.0000 0.40810  0.15261  0.35750  Biso   1.000  C
  C212     1.0000 0.09190  0.65261  0.14250  Biso   1.000  C
  H189     1.0000 0.57730  0.81370  0.64120  Biso   1.000  H
  H190     1.0000 0.92270  0.31370  0.85880  Biso   1.000  H
  H191     1.0000 0.42270  0.18630  0.35880  Biso   1.000  H
  H192     1.0000 0.07730  0.68630  0.14120  Biso   1.000  H
  C213     1.0000 0.66540  0.86396  0.60970  Biso   1.000  C
  C214     1.0000 0.83460  0.36396  0.89030  Biso   1.000  C
  C215     1.0000 0.33460  0.13604  0.39030  Biso   1.000  C
  C216     1.0000 0.16540  0.63604  0.10970  Biso   1.000  C
  H193     1.0000 0.70160  0.84180  0.58600  Biso   1.000  H
  H194     1.0000 0.79840  0.34180  0.91400  Biso   1.000  H
  H195     1.0000 0.29840  0.15820  0.41400  Biso   1.000  H
  H196     1.0000 0.20160  0.65820  0.08600  Biso   1.000  H
  C217     1.0000 0.68640  0.91309  0.61130  Biso   1.000  C
  C218     1.0000 0.81360  0.41309  0.88870  Biso   1.000  C
  C219     1.0000 0.31360  0.08691  0.38870  Biso   1.000  C
  C220     1.0000 0.18640  0.58691  0.11130  Biso   1.000  C
  H197     1.0000 0.73660  0.92480  0.58830  Biso   1.000  H
  H198     1.0000 0.76340  0.42480  0.91170  Biso   1.000  H
  H199     1.0000 0.26340  0.07520  0.41170  Biso   1.000  H
  H200     1.0000 0.23660  0.57520  0.08830  Biso   1.000  H
  C221     1.0000 0.63390  0.94500  0.64660  Biso   1.000  C
  C222     1.0000 0.86610  0.44500  0.85340  Biso   1.000  C
  C223     1.0000 0.36610  0.05500  0.35340  Biso   1.000  C
  C224     1.0000 0.13390  0.55500  0.14660  Biso   1.000  C
  H201     1.0000 0.64830  0.97870  0.64800  Biso   1.000  H
  H202     1.0000 0.85170  0.47870  0.85200  Biso   1.000  H
  H203     1.0000 0.35170  0.02130  0.35200  Biso   1.000  H
  H204     1.0000 0.14830  0.52130  0.14800  Biso   1.000  H
  C225     1.0000 0.56100  0.92809  0.67960  Biso   1.000  C
  C226     1.0000 0.93900  0.42809  0.82040  Biso   1.000  C
  C227     1.0000 0.43900  0.07191  0.32040  Biso   1.000  C
  C228     1.0000 0.06100  0.57191  0.17960  Biso   1.000  C
  H205     1.0000 0.52540  0.95010  0.70420  Biso   1.000  H
  H206     1.0000 0.97460  0.45010  0.79580  Biso   1.000  H
  H207     1.0000 0.47460  0.04990  0.29580  Biso   1.000  H
  H208     1.0000 0.02540  0.54990  0.20420  Biso   1.000  H
  C229     1.0000 0.53930  0.87914  0.67700  Biso   1.000  C
  C230     1.0000 0.96070  0.37914  0.82300  Biso   1.000  C
  C231     1.0000 0.46070  0.12086  0.32300  Biso   1.000  C
  C232     1.0000 0.03930  0.62086  0.17700  Biso   1.000  C
  H209     1.0000 0.48830  0.86750  0.69910  Biso   1.000  H
  H210     1.0000 0.01170  0.36750  0.80090  Biso   1.000  H
  H211     1.0000 0.51170  0.13250  0.30090  Biso   1.000  H
  H212     1.0000 0.98830  0.63250  0.19910  Biso   1.000  H
  N13      1.0000 0.39357  0.46236  0.91760  Biso   1.000  N
  N14      1.0000 0.10643  0.96236  0.58240  Biso   1.000  N
  N15      1.0000 0.60643  0.53764  0.08240  Biso   1.000  N
  N16      1.0000 0.89357  0.03764  0.41760  Biso   1.000  N
  N17      1.0000 0.59299  0.44287  0.01742  Biso   1.000  N
  N18      1.0000 0.90701  0.94287  0.48258  Biso   1.000  N
  N19      1.0000 0.40701  0.55713  0.98258  Biso   1.000  N
  N20      1.0000 0.09299  0.05713  0.51742  Biso   1.000  N
  S1       1.0000 0.44062  0.20130  0.99066  Biso   1.000  S
  S2       1.0000 0.05938  0.70130  0.50934  Biso   1.000  S
  S3       1.0000 0.55938  0.79870  0.00934  Biso   1.000  S
  S4       1.0000 0.94062  0.29870  0.49066  Biso   1.000  S
  S5       1.0000 0.46968  0.17431  0.81975  Biso   1.000  S
  S6       1.0000 0.03032  0.67431  0.68025  Biso   1.000  S
  S7       1.0000 0.53032  0.82569  0.18025  Biso   1.000  S
  S8       1.0000 0.96968  0.32569  0.31975  Biso   1.000  S
  S9       1.0000 0.48997  0.25234  0.69459  Biso   1.000  S
  S10      1.0000 0.01003  0.75234  0.80541  Biso   1.000  S
  S11      1.0000 0.51003  0.74766  0.30541  Biso   1.000  S
  S12      1.0000 0.98997  0.24766  0.19459  Biso   1.000  S
  S13      1.0000 0.01395  0.54888  0.57542  Biso   1.000  S
  S14      1.0000 0.48605  0.04888  0.92458  Biso   1.000  S
  S15      1.0000 0.98605  0.45112  0.42458  Biso   1.000  S
  S16      1.0000 0.51395  0.95112  0.07542  Biso   1.000  S
  S17      1.0000 0.85104  0.58478  0.65521  Biso   1.000  S
  S18      1.0000 0.64896  0.08478  0.84479  Biso   1.000  S
  S19      1.0000 0.14896  0.41522  0.34479  Biso   1.000  S
  S20      1.0000 0.35104  0.91522  0.15521  Biso   1.000  S
  S21      1.0000 0.88456  0.57951  0.84555  Biso   1.000  S
  S22      1.0000 0.61544  0.07951  0.65445  Biso   1.000  S
  S23      1.0000 0.11544  0.42049  0.15445  Biso   1.000  S
  S24      1.0000 0.38456  0.92049  0.34555  Biso   1.000  S
  Cu1      1.0000 0.50000  0.50000  0.00000  Biso   1.000  Cu
  Cu2      1.0000 0.00000  0.00000  0.50000  Biso   1.000  Cu
