data_image0
_cell_length_a       21.141
_cell_length_b       10.4028
_cell_length_c       19.25
_cell_angle_alpha    90
_cell_angle_beta     90
_cell_angle_gamma    90

_symmetry_space_group_name_H-M    "P 1"
_symmetry_int_tables_number       1

loop_
  _symmetry_equiv_pos_as_xyz
  'x, y, z'

loop_
  _atom_site_label
  _atom_site_occupancy
  _atom_site_fract_x
  _atom_site_fract_y
  _atom_site_fract_z
  _atom_site_thermal_displace_type
  _atom_site_B_iso_or_equiv
  _atom_site_type_symbol
  H1       1.0000 0.71608  0.75000  0.52690  Biso   1.000  H
  H2       1.0000 0.78392  0.75000  0.52690  Biso   1.000  H
  H3       1.0000 0.28392  0.25000  0.97310  Biso   1.000  H
  H4       1.0000 0.21608  0.25000  0.97310  Biso   1.000  H
  H5       1.0000 0.28392  0.25000  0.47310  Biso   1.000  H
  H6       1.0000 0.21608  0.25000  0.47310  Biso   1.000  H
  H7       1.0000 0.71608  0.75000  0.02690  Biso   1.000  H
  H8       1.0000 0.78392  0.75000  0.02690  Biso   1.000  H
  H9       1.0000 0.78390  0.24200  0.73690  Biso   1.000  H
  H10      1.0000 0.71610  0.25800  0.73690  Biso   1.000  H
  H11      1.0000 0.21610  0.74200  0.76310  Biso   1.000  H
  H12      1.0000 0.28390  0.75800  0.76310  Biso   1.000  H
  H13      1.0000 0.21610  0.75800  0.26310  Biso   1.000  H
  H14      1.0000 0.28390  0.74200  0.26310  Biso   1.000  H
  H15      1.0000 0.78390  0.25800  0.23690  Biso   1.000  H
  H16      1.0000 0.71610  0.24200  0.23690  Biso   1.000  H
  O1       1.0000 0.75000  0.25000  0.71260  Biso   1.000  O
  O2       1.0000 0.25000  0.75000  0.78740  Biso   1.000  O
  O3       1.0000 0.25000  0.75000  0.28740  Biso   1.000  O
  O4       1.0000 0.75000  0.25000  0.21260  Biso   1.000  O
  O5       1.0000 0.94380  0.03130  0.95900  Biso   1.000  O
  O6       1.0000 0.55620  0.46870  0.95900  Biso   1.000  O
  O7       1.0000 0.05620  0.53130  0.54100  Biso   1.000  O
  O8       1.0000 0.44380  0.96870  0.54100  Biso   1.000  O
  O9       1.0000 0.05620  0.96870  0.04100  Biso   1.000  O
  O10      1.0000 0.44380  0.53130  0.04100  Biso   1.000  O
  O11      1.0000 0.94380  0.46870  0.45900  Biso   1.000  O
  O12      1.0000 0.55620  0.03130  0.45900  Biso   1.000  O
  H17      1.0000 0.81000  0.14500  0.98600  Biso   1.000  H
  H18      1.0000 0.69000  0.35500  0.98600  Biso   1.000  H
  H19      1.0000 0.19000  0.64500  0.51400  Biso   1.000  H
  H20      1.0000 0.31000  0.85500  0.51400  Biso   1.000  H
  H21      1.0000 0.19000  0.85500  0.01400  Biso   1.000  H
  H22      1.0000 0.31000  0.64500  0.01400  Biso   1.000  H
  H23      1.0000 0.81000  0.35500  0.48600  Biso   1.000  H
  H24      1.0000 0.69000  0.14500  0.48600  Biso   1.000  H
  O13      1.0000 0.81730  0.20340  0.95600  Biso   1.000  O
  O14      1.0000 0.68270  0.29660  0.95600  Biso   1.000  O
  O15      1.0000 0.18270  0.70340  0.54400  Biso   1.000  O
  O16      1.0000 0.31730  0.79660  0.54400  Biso   1.000  O
  O17      1.0000 0.18270  0.79660  0.04400  Biso   1.000  O
  O18      1.0000 0.31730  0.70340  0.04400  Biso   1.000  O
  O19      1.0000 0.81730  0.29660  0.45600  Biso   1.000  O
  O20      1.0000 0.68270  0.20340  0.45600  Biso   1.000  O
  O21      1.0000 0.75000  0.75000  0.55150  Biso   1.000  O
  O22      1.0000 0.25000  0.25000  0.94850  Biso   1.000  O
  O23      1.0000 0.25000  0.25000  0.44850  Biso   1.000  O
  O24      1.0000 0.75000  0.75000  0.05150  Biso   1.000  O
  H25      1.0000 0.75500  0.11000  0.52600  Biso   1.000  H
  H26      1.0000 0.74500  0.39000  0.52600  Biso   1.000  H
  H27      1.0000 0.24500  0.61000  0.97400  Biso   1.000  H
  H28      1.0000 0.25500  0.89000  0.97400  Biso   1.000  H
  H29      1.0000 0.24500  0.89000  0.47400  Biso   1.000  H
  H30      1.0000 0.25500  0.61000  0.47400  Biso   1.000  H
  H31      1.0000 0.75500  0.39000  0.02600  Biso   1.000  H
  H32      1.0000 0.74500  0.11000  0.02600  Biso   1.000  H
  H33      1.0000 0.78210  0.11600  0.59250  Biso   1.000  H
  H34      1.0000 0.71790  0.38400  0.59250  Biso   1.000  H
  H35      1.0000 0.21790  0.61600  0.90750  Biso   1.000  H
  H36      1.0000 0.28210  0.88400  0.90750  Biso   1.000  H
  H37      1.0000 0.21790  0.88400  0.40750  Biso   1.000  H
  H38      1.0000 0.28210  0.61600  0.40750  Biso   1.000  H
  H39      1.0000 0.78210  0.38400  0.09250  Biso   1.000  H
  H40      1.0000 0.71790  0.11600  0.09250  Biso   1.000  H
  O25      1.0000 0.75560  0.15200  0.56470  Biso   1.000  O
  O26      1.0000 0.74440  0.34800  0.56470  Biso   1.000  O
  O27      1.0000 0.24440  0.65200  0.93530  Biso   1.000  O
  O28      1.0000 0.25560  0.84800  0.93530  Biso   1.000  O
  O29      1.0000 0.24440  0.84800  0.43530  Biso   1.000  O
  O30      1.0000 0.25560  0.65200  0.43530  Biso   1.000  O
  O31      1.0000 0.75560  0.34800  0.06470  Biso   1.000  O
  O32      1.0000 0.74440  0.15200  0.06470  Biso   1.000  O
  H41      1.0000 0.81390  0.56200  0.58850  Biso   1.000  H
  H42      1.0000 0.68610  0.93800  0.58850  Biso   1.000  H
  H43      1.0000 0.18610  0.06200  0.91150  Biso   1.000  H
  H44      1.0000 0.31390  0.43800  0.91150  Biso   1.000  H
  H45      1.0000 0.18610  0.43800  0.41150  Biso   1.000  H
  H46      1.0000 0.31390  0.06200  0.41150  Biso   1.000  H
  H47      1.0000 0.81390  0.93800  0.08850  Biso   1.000  H
  H48      1.0000 0.68610  0.56200  0.08850  Biso   1.000  H
  H49      1.0000 0.82100  0.57000  0.51600  Biso   1.000  H
  H50      1.0000 0.67900  0.93000  0.51600  Biso   1.000  H
  H51      1.0000 0.17900  0.07000  0.98400  Biso   1.000  H
  H52      1.0000 0.32100  0.43000  0.98400  Biso   1.000  H
  H53      1.0000 0.17900  0.43000  0.48400  Biso   1.000  H
  H54      1.0000 0.32100  0.07000  0.48400  Biso   1.000  H
  H55      1.0000 0.82100  0.93000  0.01600  Biso   1.000  H
  H56      1.0000 0.67900  0.57000  0.01600  Biso   1.000  H
  O33      1.0000 0.83140  0.52750  0.55270  Biso   1.000  O
  O34      1.0000 0.66860  0.97250  0.55270  Biso   1.000  O
  O35      1.0000 0.16860  0.02750  0.94730  Biso   1.000  O
  O36      1.0000 0.33140  0.47250  0.94730  Biso   1.000  O
  O37      1.0000 0.16860  0.47250  0.44730  Biso   1.000  O
  O38      1.0000 0.33140  0.02750  0.44730  Biso   1.000  O
  O39      1.0000 0.83140  0.97250  0.05270  Biso   1.000  O
  O40      1.0000 0.66860  0.52750  0.05270  Biso   1.000  O
  Cu1      1.0000 0.96934  0.77508  0.69133  Biso   1.000  Cu
  Cu2      1.0000 0.53066  0.72492  0.69133  Biso   1.000  Cu
  Cu3      1.0000 0.03066  0.27508  0.80867  Biso   1.000  Cu
  Cu4      1.0000 0.46934  0.22492  0.80867  Biso   1.000  Cu
  Cu5      1.0000 0.03066  0.22492  0.30867  Biso   1.000  Cu
  Cu6      1.0000 0.46934  0.27508  0.30867  Biso   1.000  Cu
  Cu7      1.0000 0.96934  0.72492  0.19133  Biso   1.000  Cu
  Cu8      1.0000 0.53066  0.77508  0.19133  Biso   1.000  Cu
  N1       1.0000 0.88953  0.83930  0.73468  Biso   1.000  N
  N2       1.0000 0.61047  0.66070  0.73468  Biso   1.000  N
  N3       1.0000 0.11047  0.33930  0.76532  Biso   1.000  N
  N4       1.0000 0.38953  0.16070  0.76532  Biso   1.000  N
  N5       1.0000 0.11047  0.16070  0.26532  Biso   1.000  N
  N6       1.0000 0.38953  0.33930  0.26532  Biso   1.000  N
  N7       1.0000 0.88953  0.66070  0.23468  Biso   1.000  N
  N8       1.0000 0.61047  0.83930  0.23468  Biso   1.000  N
  N9       1.0000 0.55328  0.84260  0.09717  Biso   1.000  N
  N10      1.0000 0.94672  0.65740  0.09717  Biso   1.000  N
  N11      1.0000 0.44672  0.34260  0.40283  Biso   1.000  N
  N12      1.0000 0.05328  0.15740  0.40283  Biso   1.000  N
  N13      1.0000 0.44672  0.15740  0.90283  Biso   1.000  N
  N14      1.0000 0.05328  0.34260  0.90283  Biso   1.000  N
  N15      1.0000 0.55328  0.65740  0.59717  Biso   1.000  N
  N16      1.0000 0.94672  0.84260  0.59717  Biso   1.000  N
  C1       1.0000 0.55840  0.96750  0.08320  Biso   1.000  C
  C2       1.0000 0.94160  0.53250  0.08320  Biso   1.000  C
  C3       1.0000 0.44160  0.46750  0.41680  Biso   1.000  C
  C4       1.0000 0.05840  0.03250  0.41680  Biso   1.000  C
  C5       1.0000 0.44160  0.03250  0.91680  Biso   1.000  C
  C6       1.0000 0.05840  0.46750  0.91680  Biso   1.000  C
  C7       1.0000 0.55840  0.53250  0.58320  Biso   1.000  C
  C8       1.0000 0.94160  0.96750  0.58320  Biso   1.000  C
  H57      1.0000 0.54560  0.02630  0.11670  Biso   1.000  H
  H58      1.0000 0.95440  0.47370  0.11670  Biso   1.000  H
  H59      1.0000 0.45440  0.52630  0.38330  Biso   1.000  H
  H60      1.0000 0.04560  0.97370  0.38330  Biso   1.000  H
  H61      1.0000 0.45440  0.97370  0.88330  Biso   1.000  H
  H62      1.0000 0.04560  0.52630  0.88330  Biso   1.000  H
  H63      1.0000 0.54560  0.47370  0.61670  Biso   1.000  H
  H64      1.0000 0.95440  0.02630  0.61670  Biso   1.000  H
  C9       1.0000 0.88702  0.87700  0.80076  Biso   1.000  C
  C10      1.0000 0.61298  0.62300  0.80076  Biso   1.000  C
  C11      1.0000 0.11298  0.37700  0.69924  Biso   1.000  C
  C12      1.0000 0.38702  0.12300  0.69924  Biso   1.000  C
  C13      1.0000 0.11298  0.12300  0.19924  Biso   1.000  C
  C14      1.0000 0.38702  0.37700  0.19924  Biso   1.000  C
  C15      1.0000 0.88702  0.62300  0.30076  Biso   1.000  C
  C16      1.0000 0.61298  0.87700  0.30076  Biso   1.000  C
  H65      1.0000 0.92340  0.87190  0.82770  Biso   1.000  H
  H66      1.0000 0.57660  0.62810  0.82770  Biso   1.000  H
  H67      1.0000 0.07660  0.37190  0.67230  Biso   1.000  H
  H68      1.0000 0.42340  0.12810  0.67230  Biso   1.000  H
  H69      1.0000 0.07660  0.12810  0.17230  Biso   1.000  H
  H70      1.0000 0.42340  0.37190  0.17230  Biso   1.000  H
  H71      1.0000 0.92340  0.62810  0.32770  Biso   1.000  H
  H72      1.0000 0.57660  0.87190  0.32770  Biso   1.000  H
  C17      1.0000 0.69238  0.93130  0.88700  Biso   1.000  C
  C18      1.0000 0.80762  0.56870  0.88700  Biso   1.000  C
  C19      1.0000 0.30762  0.43130  0.61300  Biso   1.000  C
  C20      1.0000 0.19238  0.06870  0.61300  Biso   1.000  C
  C21      1.0000 0.30762  0.06870  0.11300  Biso   1.000  C
  C22      1.0000 0.19238  0.43130  0.11300  Biso   1.000  C
  C23      1.0000 0.69238  0.56870  0.38700  Biso   1.000  C
  C24      1.0000 0.80762  0.93130  0.38700  Biso   1.000  C
  H73      1.0000 0.71980  0.95910  0.92440  Biso   1.000  H
  H74      1.0000 0.78020  0.54090  0.92440  Biso   1.000  H
  H75      1.0000 0.28020  0.45910  0.57560  Biso   1.000  H
  H76      1.0000 0.21980  0.04090  0.57560  Biso   1.000  H
  H77      1.0000 0.28020  0.04090  0.07560  Biso   1.000  H
  H78      1.0000 0.21980  0.45910  0.07560  Biso   1.000  H
  H79      1.0000 0.71980  0.54090  0.42440  Biso   1.000  H
  H80      1.0000 0.78020  0.95910  0.42440  Biso   1.000  H
  H81      1.0000 0.69360  0.83820  0.88510  Biso   1.000  H
  H82      1.0000 0.80640  0.66180  0.88510  Biso   1.000  H
  H83      1.0000 0.30640  0.33820  0.61490  Biso   1.000  H
  H84      1.0000 0.19360  0.16180  0.61490  Biso   1.000  H
  H85      1.0000 0.30640  0.16180  0.11490  Biso   1.000  H
  H86      1.0000 0.19360  0.33820  0.11490  Biso   1.000  H
  H87      1.0000 0.69360  0.66180  0.38510  Biso   1.000  H
  H88      1.0000 0.80640  0.83820  0.38510  Biso   1.000  H
  C25      1.0000 0.59914  0.92990  0.96980  Biso   1.000  C
  C26      1.0000 0.90086  0.57010  0.96980  Biso   1.000  C
  C27      1.0000 0.40086  0.42990  0.53020  Biso   1.000  C
  C28      1.0000 0.09914  0.07010  0.53020  Biso   1.000  C
  C29      1.0000 0.40086  0.07010  0.03020  Biso   1.000  C
  C30      1.0000 0.09914  0.42990  0.03020  Biso   1.000  C
  C31      1.0000 0.59914  0.57010  0.46980  Biso   1.000  C
  C32      1.0000 0.90086  0.92990  0.46980  Biso   1.000  C
  C33      1.0000 0.83220  0.92330  0.83050  Biso   1.000  C
  C34      1.0000 0.66780  0.57670  0.83050  Biso   1.000  C
  C35      1.0000 0.16780  0.42330  0.66950  Biso   1.000  C
  C36      1.0000 0.33220  0.07670  0.66950  Biso   1.000  C
  C37      1.0000 0.16780  0.07670  0.16950  Biso   1.000  C
  C38      1.0000 0.33220  0.42330  0.16950  Biso   1.000  C
  C39      1.0000 0.83220  0.57670  0.33050  Biso   1.000  C
  C40      1.0000 0.66780  0.92330  0.33050  Biso   1.000  C
  H89      1.0000 0.83210  0.94830  0.87690  Biso   1.000  H
  H90      1.0000 0.66790  0.55170  0.87690  Biso   1.000  H
  H91      1.0000 0.16790  0.44830  0.62310  Biso   1.000  H
  H92      1.0000 0.33210  0.05170  0.62310  Biso   1.000  H
  H93      1.0000 0.16790  0.05170  0.12310  Biso   1.000  H
  H94      1.0000 0.33210  0.44830  0.12310  Biso   1.000  H
  H95      1.0000 0.83210  0.55170  0.37690  Biso   1.000  H
  H96      1.0000 0.66790  0.94830  0.37690  Biso   1.000  H
  C41      1.0000 0.83597  0.84810  0.69770  Biso   1.000  C
  C42      1.0000 0.66403  0.65190  0.69770  Biso   1.000  C
  C43      1.0000 0.16403  0.34810  0.80230  Biso   1.000  C
  C44      1.0000 0.33597  0.15190  0.80230  Biso   1.000  C
  C45      1.0000 0.16403  0.15190  0.30230  Biso   1.000  C
  C46      1.0000 0.33597  0.34810  0.30230  Biso   1.000  C
  C47      1.0000 0.83597  0.65190  0.19770  Biso   1.000  C
  C48      1.0000 0.66403  0.84810  0.19770  Biso   1.000  C
  H97      1.0000 0.83640  0.81990  0.65190  Biso   1.000  H
  H98      1.0000 0.66360  0.68010  0.65190  Biso   1.000  H
  H99      1.0000 0.16360  0.31990  0.84810  Biso   1.000  H
  H100     1.0000 0.33640  0.18010  0.84810  Biso   1.000  H
  H101     1.0000 0.16360  0.18010  0.34810  Biso   1.000  H
  H102     1.0000 0.33640  0.31990  0.34810  Biso   1.000  H
  H103     1.0000 0.83640  0.68010  0.15190  Biso   1.000  H
  H104     1.0000 0.66360  0.81990  0.15190  Biso   1.000  H
  C49      1.0000 0.71620  0.98480  0.81980  Biso   1.000  C
  C50      1.0000 0.78380  0.51520  0.81980  Biso   1.000  C
  C51      1.0000 0.28380  0.48480  0.68020  Biso   1.000  C
  C52      1.0000 0.21620  0.01520  0.68020  Biso   1.000  C
  C53      1.0000 0.28380  0.01520  0.18020  Biso   1.000  C
  C54      1.0000 0.21620  0.48480  0.18020  Biso   1.000  C
  C55      1.0000 0.71620  0.51520  0.31980  Biso   1.000  C
  C56      1.0000 0.78380  0.98480  0.31980  Biso   1.000  C
  H105     1.0000 0.72090  0.07690  0.82530  Biso   1.000  H
  H106     1.0000 0.77910  0.42310  0.82530  Biso   1.000  H
  H107     1.0000 0.27910  0.57690  0.67470  Biso   1.000  H
  H108     1.0000 0.22090  0.92310  0.67470  Biso   1.000  H
  H109     1.0000 0.27910  0.92310  0.17470  Biso   1.000  H
  H110     1.0000 0.22090  0.57690  0.17470  Biso   1.000  H
  H111     1.0000 0.72090  0.42310  0.32530  Biso   1.000  H
  H112     1.0000 0.77910  0.07690  0.32530  Biso   1.000  H
  H113     1.0000 0.68380  0.97100  0.78490  Biso   1.000  H
  H114     1.0000 0.81620  0.52900  0.78490  Biso   1.000  H
  H115     1.0000 0.31620  0.47100  0.71510  Biso   1.000  H
  H116     1.0000 0.18380  0.02900  0.71510  Biso   1.000  H
  H117     1.0000 0.31620  0.02900  0.21510  Biso   1.000  H
  H118     1.0000 0.18380  0.47100  0.21510  Biso   1.000  H
  H119     1.0000 0.68380  0.52900  0.28490  Biso   1.000  H
  H120     1.0000 0.81620  0.97100  0.28490  Biso   1.000  H
  C57      1.0000 0.77731  0.93260  0.79190  Biso   1.000  C
  C58      1.0000 0.72269  0.56740  0.79190  Biso   1.000  C
  C59      1.0000 0.22269  0.43260  0.70810  Biso   1.000  C
  C60      1.0000 0.27731  0.06740  0.70810  Biso   1.000  C
  C61      1.0000 0.22269  0.06740  0.20810  Biso   1.000  C
  C62      1.0000 0.27731  0.43260  0.20810  Biso   1.000  C
  C63      1.0000 0.77731  0.56740  0.29190  Biso   1.000  C
  C64      1.0000 0.72269  0.93260  0.29190  Biso   1.000  C
  C65      1.0000 0.78090  0.89600  0.72380  Biso   1.000  C
  C66      1.0000 0.71910  0.60400  0.72380  Biso   1.000  C
  C67      1.0000 0.21910  0.39600  0.77620  Biso   1.000  C
  C68      1.0000 0.28090  0.10400  0.77620  Biso   1.000  C
  C69      1.0000 0.21910  0.10400  0.27620  Biso   1.000  C
  C70      1.0000 0.28090  0.39600  0.27620  Biso   1.000  C
  C71      1.0000 0.78090  0.60400  0.22380  Biso   1.000  C
  C72      1.0000 0.71910  0.89600  0.22380  Biso   1.000  C
  H121     1.0000 0.74570  0.90380  0.69520  Biso   1.000  H
  H122     1.0000 0.75430  0.59620  0.69520  Biso   1.000  H
  H123     1.0000 0.25430  0.40380  0.80480  Biso   1.000  H
  H124     1.0000 0.24570  0.09620  0.80480  Biso   1.000  H
  H125     1.0000 0.25430  0.09620  0.30480  Biso   1.000  H
  H126     1.0000 0.24570  0.40380  0.30480  Biso   1.000  H
  H127     1.0000 0.74570  0.59620  0.19520  Biso   1.000  H
  H128     1.0000 0.75430  0.90380  0.19520  Biso   1.000  H
  C73      1.0000 0.58170  0.01300  0.02170  Biso   1.000  C
  C74      1.0000 0.91830  0.48700  0.02170  Biso   1.000  C
  C75      1.0000 0.41830  0.51300  0.47830  Biso   1.000  C
  C76      1.0000 0.08170  0.98700  0.47830  Biso   1.000  C
  C77      1.0000 0.41830  0.98700  0.97830  Biso   1.000  C
  C78      1.0000 0.08170  0.51300  0.97830  Biso   1.000  C
  C79      1.0000 0.58170  0.48700  0.52170  Biso   1.000  C
  C80      1.0000 0.91830  0.01300  0.52170  Biso   1.000  C
  H129     1.0000 0.58580  0.10110  0.01490  Biso   1.000  H
  H130     1.0000 0.91420  0.39890  0.01490  Biso   1.000  H
  H131     1.0000 0.41420  0.60110  0.48510  Biso   1.000  H
  H132     1.0000 0.08580  0.89890  0.48510  Biso   1.000  H
  H133     1.0000 0.41420  0.89890  0.98510  Biso   1.000  H
  H134     1.0000 0.08580  0.60110  0.98510  Biso   1.000  H
  H135     1.0000 0.58580  0.39890  0.51490  Biso   1.000  H
  H136     1.0000 0.91420  0.10110  0.51490  Biso   1.000  H
  C81      1.0000 0.56770  0.76200  0.04610  Biso   1.000  C
  C82      1.0000 0.93230  0.73800  0.04610  Biso   1.000  C
  C83      1.0000 0.43230  0.26200  0.45390  Biso   1.000  C
  C84      1.0000 0.06770  0.23800  0.45390  Biso   1.000  C
  C85      1.0000 0.43230  0.23800  0.95390  Biso   1.000  C
  C86      1.0000 0.06770  0.26200  0.95390  Biso   1.000  C
  C87      1.0000 0.56770  0.73800  0.54610  Biso   1.000  C
  C88      1.0000 0.93230  0.76200  0.54610  Biso   1.000  C
  H137     1.0000 0.56260  0.67430  0.05350  Biso   1.000  H
  H138     1.0000 0.93740  0.82570  0.05350  Biso   1.000  H
  H139     1.0000 0.43740  0.17430  0.44650  Biso   1.000  H
  H140     1.0000 0.06260  0.32570  0.44650  Biso   1.000  H
  H141     1.0000 0.43740  0.32570  0.94650  Biso   1.000  H
  H142     1.0000 0.06260  0.17430  0.94650  Biso   1.000  H
  H143     1.0000 0.56260  0.82570  0.55350  Biso   1.000  H
  H144     1.0000 0.93740  0.67430  0.55350  Biso   1.000  H
  C89      1.0000 0.62510  0.97530  0.90160  Biso   1.000  C
  C90      1.0000 0.87490  0.52470  0.90160  Biso   1.000  C
  C91      1.0000 0.37490  0.47530  0.59840  Biso   1.000  C
  C92      1.0000 0.12510  0.02470  0.59840  Biso   1.000  C
  C93      1.0000 0.37490  0.02470  0.09840  Biso   1.000  C
  C94      1.0000 0.12510  0.47530  0.09840  Biso   1.000  C
  C95      1.0000 0.62510  0.52470  0.40160  Biso   1.000  C
  C96      1.0000 0.87490  0.97530  0.40160  Biso   1.000  C
  H145     1.0000 0.62400  0.06850  0.90080  Biso   1.000  H
  H146     1.0000 0.87600  0.43150  0.90080  Biso   1.000  H
  H147     1.0000 0.37600  0.56850  0.59920  Biso   1.000  H
  H148     1.0000 0.12400  0.93150  0.59920  Biso   1.000  H
  H149     1.0000 0.37600  0.93150  0.09920  Biso   1.000  H
  H150     1.0000 0.12400  0.56850  0.09920  Biso   1.000  H
  H151     1.0000 0.62400  0.43150  0.40080  Biso   1.000  H
  H152     1.0000 0.87600  0.06850  0.40080  Biso   1.000  H
  H153     1.0000 0.59780  0.94450  0.86470  Biso   1.000  H
  H154     1.0000 0.90220  0.55550  0.86470  Biso   1.000  H
  H155     1.0000 0.40220  0.44450  0.63530  Biso   1.000  H
  H156     1.0000 0.09780  0.05550  0.63530  Biso   1.000  H
  H157     1.0000 0.40220  0.05550  0.13530  Biso   1.000  H
  H158     1.0000 0.09780  0.44450  0.13530  Biso   1.000  H
  H159     1.0000 0.59780  0.55550  0.36470  Biso   1.000  H
  H160     1.0000 0.90220  0.94450  0.36470  Biso   1.000  H
  C97      1.0000 0.58980  0.80230  0.98330  Biso   1.000  C
  C98      1.0000 0.91020  0.69770  0.98330  Biso   1.000  C
  C99      1.0000 0.41020  0.30230  0.51670  Biso   1.000  C
  C100     1.0000 0.08980  0.19770  0.51670  Biso   1.000  C
  C101     1.0000 0.41020  0.19770  0.01670  Biso   1.000  C
  C102     1.0000 0.08980  0.30230  0.01670  Biso   1.000  C
  C103     1.0000 0.58980  0.69770  0.48330  Biso   1.000  C
  C104     1.0000 0.91020  0.80230  0.48330  Biso   1.000  C
  H161     1.0000 0.59870  0.74200  0.94900  Biso   1.000  H
  H162     1.0000 0.90130  0.75800  0.94900  Biso   1.000  H
  H163     1.0000 0.40130  0.24200  0.55100  Biso   1.000  H
  H164     1.0000 0.09870  0.25800  0.55100  Biso   1.000  H
  H165     1.0000 0.40130  0.25800  0.05100  Biso   1.000  H
  H166     1.0000 0.09870  0.24200  0.05100  Biso   1.000  H
  H167     1.0000 0.59870  0.75800  0.44900  Biso   1.000  H
  H168     1.0000 0.90130  0.74200  0.44900  Biso   1.000  H
  O41      1.0000 0.92294  0.56590  0.67464  Biso   1.000  O
  O42      1.0000 0.57706  0.93410  0.67464  Biso   1.000  O
  O43      1.0000 0.07706  0.06590  0.82536  Biso   1.000  O
  O44      1.0000 0.42294  0.43410  0.82536  Biso   1.000  O
  O45      1.0000 0.07706  0.43410  0.32536  Biso   1.000  O
  O46      1.0000 0.42294  0.06590  0.32536  Biso   1.000  O
  O47      1.0000 0.92294  0.93410  0.17464  Biso   1.000  O
  O48      1.0000 0.57706  0.56590  0.17464  Biso   1.000  O
  O49      1.0000 0.94878  0.22200  0.84480  Biso   1.000  O
  O50      1.0000 0.55122  0.27800  0.84480  Biso   1.000  O
  O51      1.0000 0.05122  0.72200  0.65520  Biso   1.000  O
  O52      1.0000 0.44878  0.77800  0.65520  Biso   1.000  O
  O53      1.0000 0.05122  0.77800  0.15520  Biso   1.000  O
  O54      1.0000 0.44878  0.72200  0.15520  Biso   1.000  O
  O55      1.0000 0.94878  0.27800  0.34480  Biso   1.000  O
  O56      1.0000 0.55122  0.22200  0.34480  Biso   1.000  O
  O57      1.0000 0.97501  0.46680  0.75927  Biso   1.000  O
  O58      1.0000 0.52499  0.03320  0.75927  Biso   1.000  O
  O59      1.0000 0.02499  0.96680  0.74073  Biso   1.000  O
  O60      1.0000 0.47501  0.53320  0.74073  Biso   1.000  O
  O61      1.0000 0.02499  0.53320  0.24073  Biso   1.000  O
  O62      1.0000 0.47501  0.96680  0.24073  Biso   1.000  O
  O63      1.0000 0.97501  0.03320  0.25927  Biso   1.000  O
  O64      1.0000 0.52499  0.46680  0.25927  Biso   1.000  O
  O65      1.0000 0.99493  0.20250  0.71913  Biso   1.000  O
  O66      1.0000 0.50507  0.29750  0.71913  Biso   1.000  O
  O67      1.0000 0.00507  0.70250  0.78087  Biso   1.000  O
  O68      1.0000 0.49493  0.79750  0.78087  Biso   1.000  O
  O69      1.0000 0.00507  0.79750  0.28087  Biso   1.000  O
  O70      1.0000 0.49493  0.70250  0.28087  Biso   1.000  O
  O71      1.0000 0.99493  0.29750  0.21913  Biso   1.000  O
  O72      1.0000 0.50507  0.20250  0.21913  Biso   1.000  O
  O73      1.0000 0.84813  0.22520  0.80996  Biso   1.000  O
  O74      1.0000 0.65187  0.27480  0.80996  Biso   1.000  O
  O75      1.0000 0.15187  0.72520  0.69004  Biso   1.000  O
  O76      1.0000 0.34813  0.77480  0.69004  Biso   1.000  O
  O77      1.0000 0.15187  0.77480  0.19004  Biso   1.000  O
  O78      1.0000 0.34813  0.72520  0.19004  Biso   1.000  O
  O79      1.0000 0.84813  0.27480  0.30996  Biso   1.000  O
  O80      1.0000 0.65187  0.22520  0.30996  Biso   1.000  O
  C105     1.0000 0.92770  0.22090  0.72310  Biso   1.000  C
  C106     1.0000 0.57230  0.27910  0.72310  Biso   1.000  C
  C107     1.0000 0.07230  0.72090  0.77690  Biso   1.000  C
  C108     1.0000 0.42770  0.77910  0.77690  Biso   1.000  C
  C109     1.0000 0.07230  0.77910  0.27690  Biso   1.000  C
  C110     1.0000 0.42770  0.72090  0.27690  Biso   1.000  C
  C111     1.0000 0.92770  0.27910  0.22310  Biso   1.000  C
  C112     1.0000 0.57230  0.22090  0.22310  Biso   1.000  C
  H169     1.0000 0.90730  0.14720  0.70070  Biso   1.000  H
  H170     1.0000 0.59270  0.35280  0.70070  Biso   1.000  H
  H171     1.0000 0.09270  0.64720  0.79930  Biso   1.000  H
  H172     1.0000 0.40730  0.85280  0.79930  Biso   1.000  H
  H173     1.0000 0.09270  0.85280  0.29930  Biso   1.000  H
  H174     1.0000 0.40730  0.64720  0.29930  Biso   1.000  H
  H175     1.0000 0.90730  0.35280  0.20070  Biso   1.000  H
  H176     1.0000 0.59270  0.14720  0.20070  Biso   1.000  H
  C113     1.0000 0.90571  0.22510  0.79840  Biso   1.000  C
  C114     1.0000 0.59429  0.27490  0.79840  Biso   1.000  C
  C115     1.0000 0.09429  0.72510  0.70160  Biso   1.000  C
  C116     1.0000 0.40571  0.77490  0.70160  Biso   1.000  C
  C117     1.0000 0.09429  0.77490  0.20160  Biso   1.000  C
  C118     1.0000 0.40571  0.72510  0.20160  Biso   1.000  C
  C119     1.0000 0.90571  0.27490  0.29840  Biso   1.000  C
  C120     1.0000 0.59429  0.22510  0.29840  Biso   1.000  C
  C121     1.0000 0.93818  0.46750  0.70695  Biso   1.000  C
  C122     1.0000 0.56182  0.03250  0.70695  Biso   1.000  C
  C123     1.0000 0.06182  0.96750  0.79305  Biso   1.000  C
  C124     1.0000 0.43818  0.53250  0.79305  Biso   1.000  C
  C125     1.0000 0.06182  0.53250  0.29305  Biso   1.000  C
  C126     1.0000 0.43818  0.96750  0.29305  Biso   1.000  C
  C127     1.0000 0.93818  0.03250  0.20695  Biso   1.000  C
  C128     1.0000 0.56182  0.46750  0.20695  Biso   1.000  C
  C129     1.0000 0.91067  0.34120  0.68170  Biso   1.000  C
  C130     1.0000 0.58933  0.15880  0.68170  Biso   1.000  C
  C131     1.0000 0.08933  0.84120  0.81830  Biso   1.000  C
  C132     1.0000 0.41067  0.65880  0.81830  Biso   1.000  C
  C133     1.0000 0.08933  0.65880  0.31830  Biso   1.000  C
  C134     1.0000 0.41067  0.84120  0.31830  Biso   1.000  C
  C135     1.0000 0.91067  0.15880  0.18170  Biso   1.000  C
  C136     1.0000 0.58933  0.34120  0.18170  Biso   1.000  C
  H177     1.0000 0.92420  0.32820  0.63410  Biso   1.000  H
  H178     1.0000 0.57580  0.17180  0.63410  Biso   1.000  H
  H179     1.0000 0.07580  0.82820  0.86590  Biso   1.000  H
  H180     1.0000 0.42420  0.67180  0.86590  Biso   1.000  H
  H181     1.0000 0.07580  0.67180  0.36590  Biso   1.000  H
  H182     1.0000 0.42420  0.82820  0.36590  Biso   1.000  H
  H183     1.0000 0.92420  0.17180  0.13410  Biso   1.000  H
  H184     1.0000 0.57580  0.32820  0.13410  Biso   1.000  H
  H185     1.0000 0.86500  0.34920  0.68130  Biso   1.000  H
  H186     1.0000 0.63500  0.15080  0.68130  Biso   1.000  H
  H187     1.0000 0.13500  0.84920  0.81870  Biso   1.000  H
  H188     1.0000 0.36500  0.65080  0.81870  Biso   1.000  H
  H189     1.0000 0.13500  0.65080  0.31870  Biso   1.000  H
  H190     1.0000 0.36500  0.84920  0.31870  Biso   1.000  H
  H191     1.0000 0.86500  0.15080  0.18130  Biso   1.000  H
  H192     1.0000 0.63500  0.34920  0.18130  Biso   1.000  H
  H193     1.0000 0.94700  0.10800  0.97600  Biso   1.000  H
  H194     1.0000 0.55300  0.39200  0.97600  Biso   1.000  H
  H195     1.0000 0.05300  0.60800  0.52400  Biso   1.000  H
  H196     1.0000 0.44700  0.89200  0.52400  Biso   1.000  H
  H197     1.0000 0.05300  0.89200  0.02400  Biso   1.000  H
  H198     1.0000 0.44700  0.60800  0.02400  Biso   1.000  H
  H199     1.0000 0.94700  0.39200  0.47600  Biso   1.000  H
  H200     1.0000 0.55300  0.10800  0.47600  Biso   1.000  H
  H201     1.0000 0.98050  0.00600  0.94600  Biso   1.000  H
  H202     1.0000 0.51950  0.49400  0.94600  Biso   1.000  H
  H203     1.0000 0.01950  0.50600  0.55400  Biso   1.000  H
  H204     1.0000 0.48050  0.99400  0.55400  Biso   1.000  H
  H205     1.0000 0.01950  0.99400  0.05400  Biso   1.000  H
  H206     1.0000 0.48050  0.50600  0.05400  Biso   1.000  H
  H207     1.0000 0.98050  0.49400  0.44600  Biso   1.000  H
  H208     1.0000 0.51950  0.00600  0.44600  Biso   1.000  H
  H209     1.0000 0.81500  0.27700  0.97600  Biso   1.000  H
  H210     1.0000 0.68500  0.22300  0.97600  Biso   1.000  H
  H211     1.0000 0.18500  0.77700  0.52400  Biso   1.000  H
  H212     1.0000 0.31500  0.72300  0.52400  Biso   1.000  H
  H213     1.0000 0.18500  0.72300  0.02400  Biso   1.000  H
  H214     1.0000 0.31500  0.77700  0.02400  Biso   1.000  H
  H215     1.0000 0.81500  0.22300  0.47600  Biso   1.000  H
  H216     1.0000 0.68500  0.27700  0.47600  Biso   1.000  H
  H217     1.0000 0.00500  0.12570  0.72100  Biso   1.000  H
  H218     1.0000 0.49500  0.37430  0.72100  Biso   1.000  H
  H219     1.0000 0.99500  0.62570  0.77900  Biso   1.000  H
  H220     1.0000 0.50500  0.87430  0.77900  Biso   1.000  H
  H221     1.0000 0.99500  0.87430  0.27900  Biso   1.000  H
  H222     1.0000 0.50500  0.62570  0.27900  Biso   1.000  H
  H223     1.0000 0.00500  0.37430  0.22100  Biso   1.000  H
  H224     1.0000 0.49500  0.12570  0.22100  Biso   1.000  H
