data_image0
_cell_length_a       6.8906
_cell_length_b       10.5373
_cell_length_c       21.1159
_cell_angle_alpha    90
_cell_angle_beta     90
_cell_angle_gamma    90

_symmetry_space_group_name_H-M    "P 1"
_symmetry_int_tables_number       1

loop_
  _symmetry_equiv_pos_as_xyz
  'x, y, z'

loop_
  _atom_site_label
  _atom_site_occupancy
  _atom_site_fract_x
  _atom_site_fract_y
  _atom_site_fract_z
  _atom_site_thermal_displace_type
  _atom_site_B_iso_or_equiv
  _atom_site_type_symbol
  Cu1      1.0000 0.85454  0.63004  0.17460  Biso   1.000  Cu
  Cu2      1.0000 0.14546  0.36996  0.67460  Biso   1.000  Cu
  Cu3      1.0000 0.64546  0.13004  0.67460  Biso   1.000  Cu
  Cu4      1.0000 0.35454  0.86996  0.17460  Biso   1.000  Cu
  Cl1      1.0000 0.73410  0.83103  0.15957  Biso   1.000  Cl
  Cl2      1.0000 0.26590  0.16897  0.65957  Biso   1.000  Cl
  Cl3      1.0000 0.76590  0.33103  0.65957  Biso   1.000  Cl
  Cl4      1.0000 0.23410  0.66897  0.15957  Biso   1.000  Cl
  Cl5      1.0000 0.80318  0.42142  0.19168  Biso   1.000  Cl
  Cl6      1.0000 0.19682  0.57858  0.69168  Biso   1.000  Cl
  Cl7      1.0000 0.69682  0.92142  0.69168  Biso   1.000  Cl
  Cl8      1.0000 0.30318  0.07858  0.19168  Biso   1.000  Cl
  N1       1.0000 0.89240  0.76720  0.35595  Biso   1.000  N
  N2       1.0000 0.10760  0.23280  0.85595  Biso   1.000  N
  N3       1.0000 0.60760  0.26720  0.85595  Biso   1.000  N
  N4       1.0000 0.39240  0.73280  0.35595  Biso   1.000  N
  N5       1.0000 0.77920  0.56670  0.86853  Biso   1.000  N
  N6       1.0000 0.22080  0.43330  0.36853  Biso   1.000  N
  N7       1.0000 0.72080  0.06670  0.36853  Biso   1.000  N
  N8       1.0000 0.27920  0.93330  0.86853  Biso   1.000  N
  N9       1.0000 0.79330  0.60510  0.98032  Biso   1.000  N
  N10      1.0000 0.20670  0.39490  0.48032  Biso   1.000  N
  N11      1.0000 0.70670  0.10510  0.48032  Biso   1.000  N
  N12      1.0000 0.29330  0.89490  0.98032  Biso   1.000  N
  N13      1.0000 0.65740  0.50750  0.43819  Biso   1.000  N
  N14      1.0000 0.34260  0.49250  0.93819  Biso   1.000  N
  N15      1.0000 0.84260  0.00750  0.93819  Biso   1.000  N
  N16      1.0000 0.15740  0.99250  0.43819  Biso   1.000  N
  N17      1.0000 0.67620  0.61820  0.52193  Biso   1.000  N
  N18      1.0000 0.32380  0.38180  0.02193  Biso   1.000  N
  N19      1.0000 0.82380  0.11820  0.02193  Biso   1.000  N
  N20      1.0000 0.17620  0.88180  0.52193  Biso   1.000  N
  N21      1.0000 0.68530  0.63150  0.82407  Biso   1.000  N
  N22      1.0000 0.31470  0.36850  0.32407  Biso   1.000  N
  N23      1.0000 0.81470  0.13150  0.32407  Biso   1.000  N
  N24      1.0000 0.18530  0.86850  0.82407  Biso   1.000  N
  N25      1.0000 0.87350  0.65690  0.26925  Biso   1.000  N
  N26      1.0000 0.12650  0.34310  0.76925  Biso   1.000  N
  N27      1.0000 0.62650  0.15690  0.76925  Biso   1.000  N
  N28      1.0000 0.37350  0.84310  0.26925  Biso   1.000  N
  N29      1.0000 0.82160  0.64980  0.36887  Biso   1.000  N
  N30      1.0000 0.17840  0.35020  0.86887  Biso   1.000  N
  N31      1.0000 0.67840  0.14980  0.86887  Biso   1.000  N
  N32      1.0000 0.32160  0.85020  0.36887  Biso   1.000  N
  N33      1.0000 0.84220  0.60030  0.08043  Biso   1.000  N
  N34      1.0000 0.15780  0.39970  0.58043  Biso   1.000  N
  N35      1.0000 0.65780  0.10030  0.58043  Biso   1.000  N
  N36      1.0000 0.34220  0.89970  0.08043  Biso   1.000  N
  N37      1.0000 0.60970  0.50960  0.49909  Biso   1.000  N
  N38      1.0000 0.39030  0.49040  0.99909  Biso   1.000  N
  N39      1.0000 0.89030  0.00960  0.99909  Biso   1.000  N
  N40      1.0000 0.10970  0.99040  0.49909  Biso   1.000  N
  N41      1.0000 0.91960  0.49400  0.05257  Biso   1.000  N
  N42      1.0000 0.08040  0.50600  0.55257  Biso   1.000  N
  N43      1.0000 0.58040  0.99400  0.55257  Biso   1.000  N
  N44      1.0000 0.41960  0.00600  0.05257  Biso   1.000  N
  C1       1.0000 0.75090  0.61710  0.42910  Biso   1.000  C
  C2       1.0000 0.24910  0.38290  0.92910  Biso   1.000  C
  C3       1.0000 0.74910  0.11710  0.92910  Biso   1.000  C
  C4       1.0000 0.25090  0.88290  0.42910  Biso   1.000  C
  N45      1.0000 0.58860  0.73130  0.84587  Biso   1.000  N
  N46      1.0000 0.41140  0.26870  0.34587  Biso   1.000  N
  N47      1.0000 0.91140  0.23130  0.34587  Biso   1.000  N
  N48      1.0000 0.08860  0.76870  0.84587  Biso   1.000  N
  N49      1.0000 0.61730  0.73460  0.90758  Biso   1.000  N
  N50      1.0000 0.38270  0.26540  0.40758  Biso   1.000  N
  N51      1.0000 0.88270  0.23460  0.40758  Biso   1.000  N
  N52      1.0000 0.11730  0.76540  0.90758  Biso   1.000  N
  N53      1.0000 0.92370  0.77060  0.29644  Biso   1.000  N
  N54      1.0000 0.07630  0.22940  0.79644  Biso   1.000  N
  N55      1.0000 0.57630  0.27060  0.79644  Biso   1.000  N
  N56      1.0000 0.42370  0.72940  0.29644  Biso   1.000  N
  N57      1.0000 0.76750  0.68970  0.47978  Biso   1.000  N
  N58      1.0000 0.23250  0.31030  0.97978  Biso   1.000  N
  N59      1.0000 0.73250  0.18970  0.97978  Biso   1.000  N
  N60      1.0000 0.26750  0.81030  0.47978  Biso   1.000  N
  C5       1.0000 0.76630  0.66690  0.03451  Biso   1.000  C
  C6       1.0000 0.23370  0.33310  0.53451  Biso   1.000  C
  C7       1.0000 0.73370  0.16690  0.53451  Biso   1.000  C
  C8       1.0000 0.26630  0.83310  0.03451  Biso   1.000  C
  C9       1.0000 0.65540  0.65270  0.58834  Biso   1.000  C
  C10      1.0000 0.34460  0.34730  0.08834  Biso   1.000  C
  C11      1.0000 0.84460  0.15270  0.08834  Biso   1.000  C
  C12      1.0000 0.15540  0.84730  0.58834  Biso   1.000  C
  H1       1.0000 0.54470  0.60720  0.60660  Biso   1.000  H
  H2       1.0000 0.45530  0.39280  0.10660  Biso   1.000  H
  H3       1.0000 0.95530  0.10720  0.10660  Biso   1.000  H
  H4       1.0000 0.04470  0.89280  0.60660  Biso   1.000  H
  H5       1.0000 0.63350  0.74440  0.59180  Biso   1.000  H
  H6       1.0000 0.36650  0.25560  0.09180  Biso   1.000  H
  H7       1.0000 0.86650  0.24440  0.09180  Biso   1.000  H
  H8       1.0000 0.13350  0.75560  0.59180  Biso   1.000  H
  H9       1.0000 0.77390  0.62990  0.61130  Biso   1.000  H
  H10      1.0000 0.22610  0.37010  0.11130  Biso   1.000  H
  H11      1.0000 0.72610  0.12990  0.11130  Biso   1.000  H
  H12      1.0000 0.27390  0.87010  0.61130  Biso   1.000  H
  C13      1.0000 0.81220  0.58440  0.31493  Biso   1.000  C
  C14      1.0000 0.18780  0.41560  0.81493  Biso   1.000  C
  C15      1.0000 0.68780  0.08440  0.81493  Biso   1.000  C
  C16      1.0000 0.31220  0.91560  0.31493  Biso   1.000  C
  C17      1.0000 0.69500  0.59960  0.75715  Biso   1.000  C
  C18      1.0000 0.30500  0.40040  0.25715  Biso   1.000  C
  C19      1.0000 0.80500  0.09960  0.25715  Biso   1.000  C
  C20      1.0000 0.19500  0.90040  0.75715  Biso   1.000  C
  H13      1.0000 0.59970  0.65020  0.73370  Biso   1.000  H
  H14      1.0000 0.40030  0.34980  0.23370  Biso   1.000  H
  H15      1.0000 0.90030  0.15020  0.23370  Biso   1.000  H
  H16      1.0000 0.09970  0.84980  0.73370  Biso   1.000  H
  H17      1.0000 0.66640  0.50920  0.75150  Biso   1.000  H
  H18      1.0000 0.33360  0.49080  0.25150  Biso   1.000  H
  H19      1.0000 0.83360  0.00920  0.25150  Biso   1.000  H
  H20      1.0000 0.16640  0.99080  0.75150  Biso   1.000  H
  H21      1.0000 0.82550  0.61790  0.74110  Biso   1.000  H
  H22      1.0000 0.17450  0.38210  0.24110  Biso   1.000  H
  H23      1.0000 0.67450  0.11790  0.24110  Biso   1.000  H
  H24      1.0000 0.32550  0.88210  0.74110  Biso   1.000  H
  C21      1.0000 0.73160  0.63520  0.91900  Biso   1.000  C
  C22      1.0000 0.26840  0.36480  0.41900  Biso   1.000  C
  C23      1.0000 0.76840  0.13520  0.41900  Biso   1.000  C
  C24      1.0000 0.23160  0.86480  0.91900  Biso   1.000  C
  N61      1.0000 0.88960  0.49570  0.99281  Biso   1.000  N
  N62      1.0000 0.11040  0.50430  0.49281  Biso   1.000  N
  N63      1.0000 0.61040  0.99570  0.49281  Biso   1.000  N
  N64      1.0000 0.38960  0.00430  0.99281  Biso   1.000  N
  H25      1.0000 0.76800  0.50800  0.31280  Biso   1.000  H
  H26      1.0000 0.23200  0.49200  0.81280  Biso   1.000  H
  H27      1.0000 0.73200  0.00800  0.81280  Biso   1.000  H
  H28      1.0000 0.26800  0.99200  0.31280  Biso   1.000  H
  H29      1.0000 0.71600  0.74700  0.03490  Biso   1.000  H
  H30      1.0000 0.28400  0.25300  0.53490  Biso   1.000  H
  H31      1.0000 0.78400  0.24700  0.53490  Biso   1.000  H
  H32      1.0000 0.21600  0.75300  0.03490  Biso   1.000  H
