data_image0
_cell_length_a       18.2466
_cell_length_b       18.2466
_cell_length_c       16.911
_cell_angle_alpha    90
_cell_angle_beta     90
_cell_angle_gamma    90

_symmetry_space_group_name_H-M    "P 1"
_symmetry_int_tables_number       1

loop_
  _symmetry_equiv_pos_as_xyz
  'x, y, z'

loop_
  _atom_site_label
  _atom_site_occupancy
  _atom_site_fract_x
  _atom_site_fract_y
  _atom_site_fract_z
  _atom_site_thermal_displace_type
  _atom_site_B_iso_or_equiv
  _atom_site_type_symbol
  Cu1      1.0000 0.20141  0.72434  0.05321  Biso   1.000  Cu
  Cu2      1.0000 0.77566  0.70141  0.05321  Biso   1.000  Cu
  Cu3      1.0000 0.70141  0.77566  0.94679  Biso   1.000  Cu
  Cu4      1.0000 0.79859  0.27566  0.05321  Biso   1.000  Cu
  Cu5      1.0000 0.27566  0.79859  0.94679  Biso   1.000  Cu
  Cu6      1.0000 0.72434  0.20141  0.94679  Biso   1.000  Cu
  Cu7      1.0000 0.22434  0.29859  0.05321  Biso   1.000  Cu
  Cu8      1.0000 0.29859  0.22434  0.94679  Biso   1.000  Cu
  O1       1.0000 0.23300  0.64310  0.98500  Biso   1.000  O
  O2       1.0000 0.85690  0.73300  0.98500  Biso   1.000  O
  O3       1.0000 0.73300  0.85690  0.01500  Biso   1.000  O
  O4       1.0000 0.76700  0.35690  0.98500  Biso   1.000  O
  O5       1.0000 0.35690  0.76700  0.01500  Biso   1.000  O
  O6       1.0000 0.64310  0.23300  0.01500  Biso   1.000  O
  O7       1.0000 0.14310  0.26700  0.98500  Biso   1.000  O
  O8       1.0000 0.26700  0.14310  0.01500  Biso   1.000  O
  O9       1.0000 0.24540  0.38070  0.98320  Biso   1.000  O
  O10      1.0000 0.11930  0.74540  0.98320  Biso   1.000  O
  O11      1.0000 0.74540  0.11930  0.01680  Biso   1.000  O
  O12      1.0000 0.75460  0.61930  0.98320  Biso   1.000  O
  O13      1.0000 0.61930  0.75460  0.01680  Biso   1.000  O
  O14      1.0000 0.38070  0.24540  0.01680  Biso   1.000  O
  O15      1.0000 0.88070  0.25460  0.98320  Biso   1.000  O
  O16      1.0000 0.25460  0.88070  0.01680  Biso   1.000  O
  O17      1.0000 0.28910  0.70740  0.88990  Biso   1.000  O
  O18      1.0000 0.79260  0.78910  0.88990  Biso   1.000  O
  O19      1.0000 0.78910  0.79260  0.11010  Biso   1.000  O
  O20      1.0000 0.71090  0.29260  0.88990  Biso   1.000  O
  O21      1.0000 0.29260  0.71090  0.11010  Biso   1.000  O
  O22      1.0000 0.70740  0.28910  0.11010  Biso   1.000  O
  O23      1.0000 0.20740  0.21090  0.88990  Biso   1.000  O
  O24      1.0000 0.21090  0.20740  0.11010  Biso   1.000  O
  O25      1.0000 0.31290  0.31980  0.89280  Biso   1.000  O
  O26      1.0000 0.18020  0.81290  0.89280  Biso   1.000  O
  O27      1.0000 0.81290  0.18020  0.10720  Biso   1.000  O
  O28      1.0000 0.68710  0.68020  0.89280  Biso   1.000  O
  O29      1.0000 0.68020  0.68710  0.10720  Biso   1.000  O
  O30      1.0000 0.31980  0.31290  0.10720  Biso   1.000  O
  O31      1.0000 0.81980  0.18710  0.89280  Biso   1.000  O
  O32      1.0000 0.18710  0.81980  0.10720  Biso   1.000  O
  C1       1.0000 0.33650  0.45070  0.80780  Biso   1.000  C
  C2       1.0000 0.04930  0.83650  0.80780  Biso   1.000  C
  C3       1.0000 0.83650  0.04930  0.19220  Biso   1.000  C
  C4       1.0000 0.66350  0.54930  0.80780  Biso   1.000  C
  C5       1.0000 0.54930  0.66350  0.19220  Biso   1.000  C
  C6       1.0000 0.45070  0.33650  0.19220  Biso   1.000  C
  C7       1.0000 0.95070  0.16350  0.80780  Biso   1.000  C
  C8       1.0000 0.16350  0.95070  0.19220  Biso   1.000  C
  H1       1.0000 0.35520  0.40850  0.78430  Biso   1.000  H
  H2       1.0000 0.09150  0.85520  0.78430  Biso   1.000  H
  H3       1.0000 0.85520  0.09150  0.21570  Biso   1.000  H
  H4       1.0000 0.64480  0.59150  0.78430  Biso   1.000  H
  H5       1.0000 0.59150  0.64480  0.21570  Biso   1.000  H
  H6       1.0000 0.40850  0.35520  0.21570  Biso   1.000  H
  H7       1.0000 0.90850  0.14480  0.78430  Biso   1.000  H
  H8       1.0000 0.14480  0.90850  0.21570  Biso   1.000  H
  C9       1.0000 0.29860  0.44660  0.88030  Biso   1.000  C
  C10      1.0000 0.05340  0.79860  0.88030  Biso   1.000  C
  C11      1.0000 0.79860  0.05340  0.11970  Biso   1.000  C
  C12      1.0000 0.70140  0.55340  0.88030  Biso   1.000  C
  C13      1.0000 0.55340  0.70140  0.11970  Biso   1.000  C
  C14      1.0000 0.44660  0.29860  0.11970  Biso   1.000  C
  C15      1.0000 0.94660  0.20140  0.88030  Biso   1.000  C
  C16      1.0000 0.20140  0.94660  0.11970  Biso   1.000  C
  C17      1.0000 0.27670  0.51230  0.91540  Biso   1.000  C
  C18      1.0000 0.98770  0.77670  0.91540  Biso   1.000  C
  C19      1.0000 0.77670  0.98770  0.08460  Biso   1.000  C
  C20      1.0000 0.72330  0.48770  0.91540  Biso   1.000  C
  C21      1.0000 0.48770  0.72330  0.08460  Biso   1.000  C
  C22      1.0000 0.51230  0.27670  0.08460  Biso   1.000  C
  C23      1.0000 0.01230  0.22330  0.91540  Biso   1.000  C
  C24      1.0000 0.22330  0.01230  0.08460  Biso   1.000  C
  H9       1.0000 0.25330  0.51120  0.96430  Biso   1.000  H
  H10      1.0000 0.98880  0.75330  0.96430  Biso   1.000  H
  H11      1.0000 0.75330  0.98880  0.03570  Biso   1.000  H
  H12      1.0000 0.74670  0.48880  0.96430  Biso   1.000  H
  H13      1.0000 0.48880  0.74670  0.03570  Biso   1.000  H
  H14      1.0000 0.51120  0.25330  0.03570  Biso   1.000  H
  H15      1.0000 0.01120  0.24670  0.96430  Biso   1.000  H
  H16      1.0000 0.24670  0.01120  0.03570  Biso   1.000  H
  O33      1.0000 0.47360  0.59030  0.74290  Biso   1.000  O
  O34      1.0000 0.90970  0.97360  0.74290  Biso   1.000  O
  O35      1.0000 0.97360  0.90970  0.25710  Biso   1.000  O
  O36      1.0000 0.52640  0.40970  0.74290  Biso   1.000  O
  O37      1.0000 0.40970  0.52640  0.25710  Biso   1.000  O
  O38      1.0000 0.59030  0.47360  0.25710  Biso   1.000  O
  O39      1.0000 0.09030  0.02640  0.74290  Biso   1.000  O
  O40      1.0000 0.02640  0.09030  0.25710  Biso   1.000  O
  N1       1.0000 0.37670  0.52120  0.69310  Biso   1.000  N
  N2       1.0000 0.97880  0.87670  0.69310  Biso   1.000  N
  N3       1.0000 0.87670  0.97880  0.30690  Biso   1.000  N
  N4       1.0000 0.62330  0.47880  0.69310  Biso   1.000  N
  N5       1.0000 0.47880  0.62330  0.30690  Biso   1.000  N
  N6       1.0000 0.52120  0.37670  0.30690  Biso   1.000  N
  N7       1.0000 0.02120  0.12330  0.69310  Biso   1.000  N
  N8       1.0000 0.12330  0.02120  0.30690  Biso   1.000  N
  C25      1.0000 0.32180  0.58120  0.80700  Biso   1.000  C
  C26      1.0000 0.91880  0.82180  0.80700  Biso   1.000  C
  C27      1.0000 0.82180  0.91880  0.19300  Biso   1.000  C
  C28      1.0000 0.67820  0.41880  0.80700  Biso   1.000  C
  C29      1.0000 0.41880  0.67820  0.19300  Biso   1.000  C
  C30      1.0000 0.58120  0.32180  0.19300  Biso   1.000  C
  C31      1.0000 0.08120  0.17820  0.80700  Biso   1.000  C
  C32      1.0000 0.17820  0.08120  0.19300  Biso   1.000  C
  H17      1.0000 0.32820  0.62570  0.78100  Biso   1.000  H
  H18      1.0000 0.87430  0.82820  0.78100  Biso   1.000  H
  H19      1.0000 0.82820  0.87430  0.21900  Biso   1.000  H
  H20      1.0000 0.67180  0.37430  0.78100  Biso   1.000  H
  H21      1.0000 0.37430  0.67180  0.21900  Biso   1.000  H
  H22      1.0000 0.62570  0.32820  0.21900  Biso   1.000  H
  H23      1.0000 0.12570  0.17180  0.78100  Biso   1.000  H
  H24      1.0000 0.17180  0.12570  0.21900  Biso   1.000  H
  C33      1.0000 0.28660  0.37830  0.92230  Biso   1.000  C
  C34      1.0000 0.12170  0.78660  0.92230  Biso   1.000  C
  C35      1.0000 0.78660  0.12170  0.07770  Biso   1.000  C
  C36      1.0000 0.71340  0.62170  0.92230  Biso   1.000  C
  C37      1.0000 0.62170  0.71340  0.07770  Biso   1.000  C
  C38      1.0000 0.37830  0.28660  0.07770  Biso   1.000  C
  C39      1.0000 0.87830  0.21340  0.92230  Biso   1.000  C
  C40      1.0000 0.21340  0.87830  0.07770  Biso   1.000  C
  C41      1.0000 0.34540  0.51660  0.77310  Biso   1.000  C
  C42      1.0000 0.98340  0.84540  0.77310  Biso   1.000  C
  C43      1.0000 0.84540  0.98340  0.22690  Biso   1.000  C
  C44      1.0000 0.65460  0.48340  0.77310  Biso   1.000  C
  C45      1.0000 0.48340  0.65460  0.22690  Biso   1.000  C
  C46      1.0000 0.51660  0.34540  0.22690  Biso   1.000  C
  C47      1.0000 0.01660  0.15460  0.77310  Biso   1.000  C
  C48      1.0000 0.15460  0.01660  0.22690  Biso   1.000  C
  C49      1.0000 0.26850  0.64950  0.92230  Biso   1.000  C
  C50      1.0000 0.85050  0.76850  0.92230  Biso   1.000  C
  C51      1.0000 0.76850  0.85050  0.07770  Biso   1.000  C
  C52      1.0000 0.73150  0.35050  0.92230  Biso   1.000  C
  C53      1.0000 0.35050  0.73150  0.07770  Biso   1.000  C
  C54      1.0000 0.64950  0.26850  0.07770  Biso   1.000  C
  C55      1.0000 0.14950  0.23150  0.92230  Biso   1.000  C
  C56      1.0000 0.23150  0.14950  0.07770  Biso   1.000  C
  C57      1.0000 0.45880  0.59150  0.60250  Biso   1.000  C
  C58      1.0000 0.90850  0.95880  0.60250  Biso   1.000  C
  C59      1.0000 0.95880  0.90850  0.39750  Biso   1.000  C
  C60      1.0000 0.54120  0.40850  0.60250  Biso   1.000  C
  C61      1.0000 0.40850  0.54120  0.39750  Biso   1.000  C
  C62      1.0000 0.59150  0.45880  0.39750  Biso   1.000  C
  C63      1.0000 0.09150  0.04120  0.60250  Biso   1.000  C
  C64      1.0000 0.04120  0.09150  0.39750  Biso   1.000  C
  O41      1.0000 0.28910  0.45020  0.64260  Biso   1.000  O
  O42      1.0000 0.04980  0.78910  0.64260  Biso   1.000  O
  O43      1.0000 0.78910  0.04980  0.35740  Biso   1.000  O
  O44      1.0000 0.71090  0.54980  0.64260  Biso   1.000  O
  O45      1.0000 0.54980  0.71090  0.35740  Biso   1.000  O
  O46      1.0000 0.45020  0.28910  0.35740  Biso   1.000  O
  O47      1.0000 0.95020  0.21090  0.64260  Biso   1.000  O
  O48      1.0000 0.21090  0.95020  0.35740  Biso   1.000  O
  C65      1.0000 0.28900  0.57870  0.87920  Biso   1.000  C
  C66      1.0000 0.92130  0.78900  0.87920  Biso   1.000  C
  C67      1.0000 0.78900  0.92130  0.12080  Biso   1.000  C
  C68      1.0000 0.71100  0.42130  0.87920  Biso   1.000  C
  C69      1.0000 0.42130  0.71100  0.12080  Biso   1.000  C
  C70      1.0000 0.57870  0.28900  0.12080  Biso   1.000  C
  C71      1.0000 0.07870  0.21100  0.87920  Biso   1.000  C
  C72      1.0000 0.21100  0.07870  0.12080  Biso   1.000  C
  C73      1.0000 0.43960  0.57060  0.68480  Biso   1.000  C
  C74      1.0000 0.92940  0.93960  0.68480  Biso   1.000  C
  C75      1.0000 0.93960  0.92940  0.31520  Biso   1.000  C
  C76      1.0000 0.56040  0.42940  0.68480  Biso   1.000  C
  C77      1.0000 0.42940  0.56040  0.31520  Biso   1.000  C
  C78      1.0000 0.57060  0.43960  0.31520  Biso   1.000  C
  C79      1.0000 0.07060  0.06040  0.68480  Biso   1.000  C
  C80      1.0000 0.06040  0.07060  0.31520  Biso   1.000  C
  C81      1.0000 0.51050  0.64210  0.59170  Biso   1.000  C
  C82      1.0000 0.85790  0.01050  0.59170  Biso   1.000  C
  C83      1.0000 0.01050  0.85790  0.40830  Biso   1.000  C
  C84      1.0000 0.48950  0.35790  0.59170  Biso   1.000  C
  C85      1.0000 0.35790  0.48950  0.40830  Biso   1.000  C
  C86      1.0000 0.64210  0.51050  0.40830  Biso   1.000  C
  C87      1.0000 0.14210  0.98950  0.59170  Biso   1.000  C
  C88      1.0000 0.98950  0.14210  0.40830  Biso   1.000  C
  H25      1.0000 0.53500  0.66200  0.63490  Biso   1.000  H
  H26      1.0000 0.83800  0.03500  0.63490  Biso   1.000  H
  H27      1.0000 0.03500  0.83800  0.36510  Biso   1.000  H
  H28      1.0000 0.46500  0.33800  0.63490  Biso   1.000  H
  H29      1.0000 0.33800  0.46500  0.36510  Biso   1.000  H
  H30      1.0000 0.66200  0.53500  0.36510  Biso   1.000  H
  H31      1.0000 0.16200  0.96500  0.63490  Biso   1.000  H
  H32      1.0000 0.96500  0.16200  0.36510  Biso   1.000  H
  C89      1.0000 0.33980  0.49170  0.63040  Biso   1.000  C
  C90      1.0000 0.00830  0.83980  0.63040  Biso   1.000  C
  C91      1.0000 0.83980  0.00830  0.36960  Biso   1.000  C
  C92      1.0000 0.66020  0.50830  0.63040  Biso   1.000  C
  C93      1.0000 0.50830  0.66020  0.36960  Biso   1.000  C
  C94      1.0000 0.49170  0.33980  0.36960  Biso   1.000  C
  C95      1.0000 0.99170  0.16020  0.63040  Biso   1.000  C
  C96      1.0000 0.16020  0.99170  0.36960  Biso   1.000  C
  C97      1.0000 0.33460  0.47210  0.48690  Biso   1.000  C
  C98      1.0000 0.02790  0.83460  0.48690  Biso   1.000  C
  C99      1.0000 0.83460  0.02790  0.51310  Biso   1.000  C
  C100     1.0000 0.66540  0.52790  0.48690  Biso   1.000  C
  C101     1.0000 0.52790  0.66540  0.51310  Biso   1.000  C
  C102     1.0000 0.47210  0.33460  0.51310  Biso   1.000  C
  C103     1.0000 0.97210  0.16540  0.48690  Biso   1.000  C
  C104     1.0000 0.16540  0.97210  0.51310  Biso   1.000  C
  H33      1.0000 0.29690  0.43850  0.49500  Biso   1.000  H
  H34      1.0000 0.06150  0.79690  0.49500  Biso   1.000  H
  H35      1.0000 0.79690  0.06150  0.50500  Biso   1.000  H
  H36      1.0000 0.70310  0.56150  0.49500  Biso   1.000  H
  H37      1.0000 0.56150  0.70310  0.50500  Biso   1.000  H
  H38      1.0000 0.43850  0.29690  0.50500  Biso   1.000  H
  H39      1.0000 0.93850  0.20310  0.49500  Biso   1.000  H
  H40      1.0000 0.20310  0.93850  0.50500  Biso   1.000  H
  C105     1.0000 0.36730  0.50430  0.54910  Biso   1.000  C
  C106     1.0000 0.99570  0.86730  0.54910  Biso   1.000  C
  C107     1.0000 0.86730  0.99570  0.45090  Biso   1.000  C
  C108     1.0000 0.63270  0.49570  0.54910  Biso   1.000  C
  C109     1.0000 0.49570  0.63270  0.45090  Biso   1.000  C
  C110     1.0000 0.50430  0.36730  0.45090  Biso   1.000  C
  C111     1.0000 0.00430  0.13270  0.54910  Biso   1.000  C
  C112     1.0000 0.13270  0.00430  0.45090  Biso   1.000  C
  C113     1.0000 0.42170  0.55580  0.53760  Biso   1.000  C
  C114     1.0000 0.94420  0.92170  0.53760  Biso   1.000  C
  C115     1.0000 0.92170  0.94420  0.46240  Biso   1.000  C
  C116     1.0000 0.57830  0.44420  0.53760  Biso   1.000  C
  C117     1.0000 0.44420  0.57830  0.46240  Biso   1.000  C
  C118     1.0000 0.55580  0.42170  0.46240  Biso   1.000  C
  C119     1.0000 0.05580  0.07830  0.53760  Biso   1.000  C
  C120     1.0000 0.07830  0.05580  0.46240  Biso   1.000  C
  O49      1.0000 0.13660  0.66110  0.13540  Biso   1.000  O
  O50      1.0000 0.83890  0.63660  0.13540  Biso   1.000  O
  O51      1.0000 0.63660  0.83890  0.86460  Biso   1.000  O
  O52      1.0000 0.86340  0.33890  0.13540  Biso   1.000  O
  O53      1.0000 0.33890  0.86340  0.86460  Biso   1.000  O
  O54      1.0000 0.66110  0.13660  0.86460  Biso   1.000  O
  O55      1.0000 0.16110  0.36340  0.13540  Biso   1.000  O
  O56      1.0000 0.36340  0.16110  0.86460  Biso   1.000  O
  H41      1.0000 0.11830  0.68920  0.17030  Biso   1.000  H
  H42      1.0000 0.81080  0.61830  0.17030  Biso   1.000  H
  H43      1.0000 0.61830  0.81080  0.82970  Biso   1.000  H
  H44      1.0000 0.88170  0.31080  0.17030  Biso   1.000  H
  H45      1.0000 0.31080  0.88170  0.82970  Biso   1.000  H
  H46      1.0000 0.68920  0.11830  0.82970  Biso   1.000  H
  H47      1.0000 0.18920  0.38170  0.17030  Biso   1.000  H
  H48      1.0000 0.38170  0.18920  0.82970  Biso   1.000  H
  H49      1.0000 0.10240  0.63970  0.11030  Biso   1.000  H
  H50      1.0000 0.86030  0.60240  0.11030  Biso   1.000  H
  H51      1.0000 0.60240  0.86030  0.88970  Biso   1.000  H
  H52      1.0000 0.89760  0.36030  0.11030  Biso   1.000  H
  H53      1.0000 0.36030  0.89760  0.88970  Biso   1.000  H
  H54      1.0000 0.63970  0.10240  0.88970  Biso   1.000  H
  H55      1.0000 0.13970  0.39760  0.11030  Biso   1.000  H
  H56      1.0000 0.39760  0.13970  0.88970  Biso   1.000  H
