data_image0
_cell_length_a       15.2262
_cell_length_b       36.4417
_cell_length_c       10.3313
_cell_angle_alpha    90
_cell_angle_beta     90
_cell_angle_gamma    90

_symmetry_space_group_name_H-M    "P 1"
_symmetry_int_tables_number       1

loop_
  _symmetry_equiv_pos_as_xyz
  'x, y, z'

loop_
  _atom_site_label
  _atom_site_occupancy
  _atom_site_fract_x
  _atom_site_fract_y
  _atom_site_fract_z
  _atom_site_thermal_displace_type
  _atom_site_B_iso_or_equiv
  _atom_site_type_symbol
  Cu1      1.0000 0.50000  0.47470  0.09320  Biso   1.000  Cu
  Cu2      1.0000 0.50000  0.02530  0.09320  Biso   1.000  Cu
  Cu3      1.0000 0.50000  0.52530  0.90680  Biso   1.000  Cu
  Cu4      1.0000 0.50000  0.97470  0.90680  Biso   1.000  Cu
  Cu5      1.0000 0.00000  0.97470  0.59320  Biso   1.000  Cu
  Cu6      1.0000 0.00000  0.52530  0.59320  Biso   1.000  Cu
  Cu7      1.0000 0.00000  0.02530  0.40680  Biso   1.000  Cu
  Cu8      1.0000 0.00000  0.47470  0.40680  Biso   1.000  Cu
  O1       1.0000 0.40758  0.50713  0.15982  Biso   1.000  O
  O2       1.0000 0.59242  0.99287  0.15982  Biso   1.000  O
  O3       1.0000 0.40758  0.49287  0.84018  Biso   1.000  O
  O4       1.0000 0.59242  0.00713  0.84018  Biso   1.000  O
  O5       1.0000 0.90758  0.00713  0.65982  Biso   1.000  O
  O6       1.0000 0.09242  0.49287  0.65982  Biso   1.000  O
  O7       1.0000 0.90758  0.99287  0.34018  Biso   1.000  O
  O8       1.0000 0.09242  0.50713  0.34018  Biso   1.000  O
  O9       1.0000 0.59242  0.49287  0.84018  Biso   1.000  O
  O10      1.0000 0.40758  0.00713  0.84018  Biso   1.000  O
  O11      1.0000 0.59242  0.50713  0.15982  Biso   1.000  O
  O12      1.0000 0.40758  0.99287  0.15982  Biso   1.000  O
  O13      1.0000 0.09242  0.99287  0.34018  Biso   1.000  O
  O14      1.0000 0.90758  0.50713  0.34018  Biso   1.000  O
  O15      1.0000 0.09242  0.00713  0.65982  Biso   1.000  O
  O16      1.0000 0.90758  0.49287  0.65982  Biso   1.000  O
  O17      1.0000 0.41141  0.55122  0.00731  Biso   1.000  O
  O18      1.0000 0.58859  0.94878  0.00731  Biso   1.000  O
  O19      1.0000 0.41141  0.44878  0.99269  Biso   1.000  O
  O20      1.0000 0.58859  0.05122  0.99269  Biso   1.000  O
  O21      1.0000 0.91141  0.05122  0.50731  Biso   1.000  O
  O22      1.0000 0.08859  0.44878  0.50731  Biso   1.000  O
  O23      1.0000 0.91141  0.94878  0.49269  Biso   1.000  O
  O24      1.0000 0.08859  0.55122  0.49269  Biso   1.000  O
  O25      1.0000 0.58859  0.44878  0.99269  Biso   1.000  O
  O26      1.0000 0.41141  0.05122  0.99269  Biso   1.000  O
  O27      1.0000 0.58859  0.55122  0.00731  Biso   1.000  O
  O28      1.0000 0.41141  0.94878  0.00731  Biso   1.000  O
  O29      1.0000 0.08859  0.94878  0.49269  Biso   1.000  O
  O30      1.0000 0.91141  0.55122  0.49269  Biso   1.000  O
  O31      1.0000 0.08859  0.05122  0.50731  Biso   1.000  O
  O32      1.0000 0.91141  0.44878  0.50731  Biso   1.000  O
  C1       1.0000 0.38298  0.53701  0.10950  Biso   1.000  C
  C2       1.0000 0.61702  0.96299  0.10950  Biso   1.000  C
  C3       1.0000 0.38298  0.46299  0.89050  Biso   1.000  C
  C4       1.0000 0.61702  0.03701  0.89050  Biso   1.000  C
  C5       1.0000 0.88298  0.03701  0.60950  Biso   1.000  C
  C6       1.0000 0.11702  0.46299  0.60950  Biso   1.000  C
  C7       1.0000 0.88298  0.96299  0.39050  Biso   1.000  C
  C8       1.0000 0.11702  0.53701  0.39050  Biso   1.000  C
  C9       1.0000 0.61702  0.46299  0.89050  Biso   1.000  C
  C10      1.0000 0.38298  0.03701  0.89050  Biso   1.000  C
  C11      1.0000 0.61702  0.53701  0.10950  Biso   1.000  C
  C12      1.0000 0.38298  0.96299  0.10950  Biso   1.000  C
  C13      1.0000 0.11702  0.96299  0.39050  Biso   1.000  C
  C14      1.0000 0.88298  0.53701  0.39050  Biso   1.000  C
  C15      1.0000 0.11702  0.03701  0.60950  Biso   1.000  C
  C16      1.0000 0.88298  0.46299  0.60950  Biso   1.000  C
  C17      1.0000 0.25000  0.73048  0.25000  Biso   1.000  C
  C18      1.0000 0.75000  0.76952  0.25000  Biso   1.000  C
  C19      1.0000 0.25000  0.26952  0.75000  Biso   1.000  C
  C20      1.0000 0.75000  0.23048  0.75000  Biso   1.000  C
  C21      1.0000 0.75000  0.26952  0.75000  Biso   1.000  C
  C22      1.0000 0.25000  0.23048  0.75000  Biso   1.000  C
  C23      1.0000 0.75000  0.73048  0.25000  Biso   1.000  C
  C24      1.0000 0.25000  0.76952  0.25000  Biso   1.000  C
  C25      1.0000 0.25000  0.53847  0.25000  Biso   1.000  C
  C26      1.0000 0.75000  0.96153  0.25000  Biso   1.000  C
  C27      1.0000 0.25000  0.46153  0.75000  Biso   1.000  C
  C28      1.0000 0.75000  0.03847  0.75000  Biso   1.000  C
  C29      1.0000 0.75000  0.46153  0.75000  Biso   1.000  C
  C30      1.0000 0.25000  0.03847  0.75000  Biso   1.000  C
  C31      1.0000 0.75000  0.53847  0.25000  Biso   1.000  C
  C32      1.0000 0.25000  0.96153  0.25000  Biso   1.000  C
  H1       1.0000 0.25000  0.51300  0.25000  Biso   1.000  H
  H2       1.0000 0.75000  0.98700  0.25000  Biso   1.000  H
  H3       1.0000 0.25000  0.48700  0.75000  Biso   1.000  H
  H4       1.0000 0.75000  0.01300  0.75000  Biso   1.000  H
  H5       1.0000 0.75000  0.48700  0.75000  Biso   1.000  H
  H6       1.0000 0.25000  0.01300  0.75000  Biso   1.000  H
  H7       1.0000 0.75000  0.51300  0.25000  Biso   1.000  H
  H8       1.0000 0.25000  0.98700  0.25000  Biso   1.000  H
  N1       1.0000 0.25000  0.65386  0.25000  Biso   1.000  N
  N2       1.0000 0.75000  0.84614  0.25000  Biso   1.000  N
  N3       1.0000 0.25000  0.34614  0.75000  Biso   1.000  N
  N4       1.0000 0.75000  0.15386  0.75000  Biso   1.000  N
  N5       1.0000 0.75000  0.34614  0.75000  Biso   1.000  N
  N6       1.0000 0.25000  0.15386  0.75000  Biso   1.000  N
  N7       1.0000 0.75000  0.65386  0.25000  Biso   1.000  N
  N8       1.0000 0.25000  0.84614  0.25000  Biso   1.000  N
  C33      1.0000 0.31284  0.55736  0.18030  Biso   1.000  C
  C34      1.0000 0.68716  0.94264  0.18030  Biso   1.000  C
  C35      1.0000 0.31284  0.44264  0.81970  Biso   1.000  C
  C36      1.0000 0.68716  0.05736  0.81970  Biso   1.000  C
  C37      1.0000 0.81284  0.05736  0.68030  Biso   1.000  C
  C38      1.0000 0.18716  0.44264  0.68030  Biso   1.000  C
  C39      1.0000 0.81284  0.94264  0.31970  Biso   1.000  C
  C40      1.0000 0.18716  0.55736  0.31970  Biso   1.000  C
  C41      1.0000 0.68716  0.44264  0.81970  Biso   1.000  C
  C42      1.0000 0.31284  0.05736  0.81970  Biso   1.000  C
  C43      1.0000 0.68716  0.55736  0.18030  Biso   1.000  C
  C44      1.0000 0.31284  0.94264  0.18030  Biso   1.000  C
  C45      1.0000 0.18716  0.94264  0.31970  Biso   1.000  C
  C46      1.0000 0.81284  0.55736  0.31970  Biso   1.000  C
  C47      1.0000 0.18716  0.05736  0.68030  Biso   1.000  C
  C48      1.0000 0.81284  0.44264  0.68030  Biso   1.000  C
  O33      1.0000 0.14880  0.65331  0.09000  Biso   1.000  O
  O34      1.0000 0.85120  0.84669  0.09000  Biso   1.000  O
  O35      1.0000 0.14880  0.34669  0.91000  Biso   1.000  O
  O36      1.0000 0.85120  0.15331  0.91000  Biso   1.000  O
  O37      1.0000 0.64880  0.15331  0.59000  Biso   1.000  O
  O38      1.0000 0.35120  0.34669  0.59000  Biso   1.000  O
  O39      1.0000 0.64880  0.84669  0.41000  Biso   1.000  O
  O40      1.0000 0.35120  0.65331  0.41000  Biso   1.000  O
  O41      1.0000 0.85120  0.34669  0.91000  Biso   1.000  O
  O42      1.0000 0.14880  0.15331  0.91000  Biso   1.000  O
  O43      1.0000 0.85120  0.65331  0.09000  Biso   1.000  O
  O44      1.0000 0.14880  0.84669  0.09000  Biso   1.000  O
  O45      1.0000 0.35120  0.84669  0.41000  Biso   1.000  O
  O46      1.0000 0.64880  0.65331  0.41000  Biso   1.000  O
  O47      1.0000 0.35120  0.15331  0.59000  Biso   1.000  O
  O48      1.0000 0.64880  0.34669  0.59000  Biso   1.000  O
  C49      1.0000 0.31157  0.59569  0.17720  Biso   1.000  C
  C50      1.0000 0.68843  0.90431  0.17720  Biso   1.000  C
  C51      1.0000 0.31157  0.40431  0.82280  Biso   1.000  C
  C52      1.0000 0.68843  0.09569  0.82280  Biso   1.000  C
  C53      1.0000 0.81157  0.09569  0.67720  Biso   1.000  C
  C54      1.0000 0.18843  0.40431  0.67720  Biso   1.000  C
  C55      1.0000 0.81157  0.90431  0.32280  Biso   1.000  C
  C56      1.0000 0.18843  0.59569  0.32280  Biso   1.000  C
  C57      1.0000 0.68843  0.40431  0.82280  Biso   1.000  C
  C58      1.0000 0.31157  0.09569  0.82280  Biso   1.000  C
  C59      1.0000 0.68843  0.59569  0.17720  Biso   1.000  C
  C60      1.0000 0.31157  0.90431  0.17720  Biso   1.000  C
  C61      1.0000 0.18843  0.90431  0.32280  Biso   1.000  C
  C62      1.0000 0.81157  0.59569  0.32280  Biso   1.000  C
  C63      1.0000 0.18843  0.09569  0.67720  Biso   1.000  C
  C64      1.0000 0.81157  0.40431  0.67720  Biso   1.000  C
  H9       1.0000 0.35170  0.60860  0.12670  Biso   1.000  H
  H10      1.0000 0.64830  0.89140  0.12670  Biso   1.000  H
  H11      1.0000 0.35170  0.39140  0.87330  Biso   1.000  H
  H12      1.0000 0.64830  0.10860  0.87330  Biso   1.000  H
  H13      1.0000 0.85170  0.10860  0.62670  Biso   1.000  H
  H14      1.0000 0.14830  0.39140  0.62670  Biso   1.000  H
  H15      1.0000 0.85170  0.89140  0.37330  Biso   1.000  H
  H16      1.0000 0.14830  0.60860  0.37330  Biso   1.000  H
  H17      1.0000 0.64830  0.39140  0.87330  Biso   1.000  H
  H18      1.0000 0.35170  0.10860  0.87330  Biso   1.000  H
  H19      1.0000 0.64830  0.60860  0.12670  Biso   1.000  H
  H20      1.0000 0.35170  0.89140  0.12670  Biso   1.000  H
  H21      1.0000 0.14830  0.89140  0.37330  Biso   1.000  H
  H22      1.0000 0.85170  0.60860  0.37330  Biso   1.000  H
  H23      1.0000 0.14830  0.10860  0.62670  Biso   1.000  H
  H24      1.0000 0.85170  0.39140  0.62670  Biso   1.000  H
  C65      1.0000 0.25000  0.61405  0.25000  Biso   1.000  C
  C66      1.0000 0.75000  0.88595  0.25000  Biso   1.000  C
  C67      1.0000 0.25000  0.38595  0.75000  Biso   1.000  C
  C68      1.0000 0.75000  0.11405  0.75000  Biso   1.000  C
  C69      1.0000 0.75000  0.38595  0.75000  Biso   1.000  C
  C70      1.0000 0.25000  0.11405  0.75000  Biso   1.000  C
  C71      1.0000 0.75000  0.61405  0.25000  Biso   1.000  C
  C72      1.0000 0.25000  0.88595  0.25000  Biso   1.000  C
  C73      1.0000 0.19441  0.71194  0.16320  Biso   1.000  C
  C74      1.0000 0.80559  0.78806  0.16320  Biso   1.000  C
  C75      1.0000 0.19441  0.28806  0.83680  Biso   1.000  C
  C76      1.0000 0.80559  0.21194  0.83680  Biso   1.000  C
  C77      1.0000 0.69441  0.21194  0.66320  Biso   1.000  C
  C78      1.0000 0.30559  0.28806  0.66320  Biso   1.000  C
  C79      1.0000 0.69441  0.78806  0.33680  Biso   1.000  C
  C80      1.0000 0.30559  0.71194  0.33680  Biso   1.000  C
  C81      1.0000 0.80559  0.28806  0.83680  Biso   1.000  C
  C82      1.0000 0.19441  0.21194  0.83680  Biso   1.000  C
  C83      1.0000 0.80559  0.71194  0.16320  Biso   1.000  C
  C84      1.0000 0.19441  0.78806  0.16320  Biso   1.000  C
  C85      1.0000 0.30559  0.78806  0.33680  Biso   1.000  C
  C86      1.0000 0.69441  0.71194  0.33680  Biso   1.000  C
  C87      1.0000 0.30559  0.21194  0.66320  Biso   1.000  C
  C88      1.0000 0.69441  0.28806  0.66320  Biso   1.000  C
  C89      1.0000 0.19466  0.67103  0.16240  Biso   1.000  C
  C90      1.0000 0.80534  0.82897  0.16240  Biso   1.000  C
  C91      1.0000 0.19466  0.32897  0.83760  Biso   1.000  C
  C92      1.0000 0.80534  0.17103  0.83760  Biso   1.000  C
  C93      1.0000 0.69466  0.17103  0.66240  Biso   1.000  C
  C94      1.0000 0.30534  0.32897  0.66240  Biso   1.000  C
  C95      1.0000 0.69466  0.82897  0.33760  Biso   1.000  C
  C96      1.0000 0.30534  0.67103  0.33760  Biso   1.000  C
  C97      1.0000 0.80534  0.32897  0.83760  Biso   1.000  C
  C98      1.0000 0.19466  0.17103  0.83760  Biso   1.000  C
  C99      1.0000 0.80534  0.67103  0.16240  Biso   1.000  C
  C100     1.0000 0.19466  0.82897  0.16240  Biso   1.000  C
  C101     1.0000 0.30534  0.82897  0.33760  Biso   1.000  C
  C102     1.0000 0.69466  0.67103  0.33760  Biso   1.000  C
  C103     1.0000 0.30534  0.17103  0.66240  Biso   1.000  C
  C104     1.0000 0.69466  0.32897  0.66240  Biso   1.000  C
  C105     1.0000 0.14070  0.73050  0.08210  Biso   1.000  C
  C106     1.0000 0.85930  0.76950  0.08210  Biso   1.000  C
  C107     1.0000 0.14070  0.26950  0.91790  Biso   1.000  C
  C108     1.0000 0.85930  0.23050  0.91790  Biso   1.000  C
  C109     1.0000 0.64070  0.23050  0.58210  Biso   1.000  C
  C110     1.0000 0.35930  0.26950  0.58210  Biso   1.000  C
  C111     1.0000 0.64070  0.76950  0.41790  Biso   1.000  C
  C112     1.0000 0.35930  0.73050  0.41790  Biso   1.000  C
  C113     1.0000 0.85930  0.26950  0.91790  Biso   1.000  C
  C114     1.0000 0.14070  0.23050  0.91790  Biso   1.000  C
  C115     1.0000 0.85930  0.73050  0.08210  Biso   1.000  C
  C116     1.0000 0.14070  0.76950  0.08210  Biso   1.000  C
  C117     1.0000 0.35930  0.76950  0.41790  Biso   1.000  C
  C118     1.0000 0.64070  0.73050  0.41790  Biso   1.000  C
  C119     1.0000 0.35930  0.23050  0.58210  Biso   1.000  C
  C120     1.0000 0.64070  0.26950  0.58210  Biso   1.000  C
  H25      1.0000 0.10370  0.71770  0.02630  Biso   1.000  H
  H26      1.0000 0.89630  0.78230  0.02630  Biso   1.000  H
  H27      1.0000 0.10370  0.28230  0.97370  Biso   1.000  H
  H28      1.0000 0.89630  0.21770  0.97370  Biso   1.000  H
  H29      1.0000 0.60370  0.21770  0.52630  Biso   1.000  H
  H30      1.0000 0.39630  0.28230  0.52630  Biso   1.000  H
  H31      1.0000 0.60370  0.78230  0.47370  Biso   1.000  H
  H32      1.0000 0.39630  0.71770  0.47370  Biso   1.000  H
  H33      1.0000 0.89630  0.28230  0.97370  Biso   1.000  H
  H34      1.0000 0.10370  0.21770  0.97370  Biso   1.000  H
  H35      1.0000 0.89630  0.71770  0.02630  Biso   1.000  H
  H36      1.0000 0.10370  0.78230  0.02630  Biso   1.000  H
  H37      1.0000 0.39630  0.78230  0.47370  Biso   1.000  H
  H38      1.0000 0.60370  0.71770  0.47370  Biso   1.000  H
  H39      1.0000 0.39630  0.21770  0.52630  Biso   1.000  H
  H40      1.0000 0.60370  0.28230  0.52630  Biso   1.000  H
  O49      1.0000 0.50000  0.43862  0.25320  Biso   1.000  O
  O50      1.0000 0.50000  0.06138  0.25320  Biso   1.000  O
  O51      1.0000 0.50000  0.56138  0.74680  Biso   1.000  O
  O52      1.0000 0.50000  0.93862  0.74680  Biso   1.000  O
  O53      1.0000 0.00000  0.93862  0.75320  Biso   1.000  O
  O54      1.0000 0.00000  0.56138  0.75320  Biso   1.000  O
  O55      1.0000 0.00000  0.06138  0.24680  Biso   1.000  O
  O56      1.0000 0.00000  0.43862  0.24680  Biso   1.000  O
  N9       1.0000 0.50000  0.43676  0.46590  Biso   1.000  N
  N10      1.0000 0.50000  0.06324  0.46590  Biso   1.000  N
  N11      1.0000 0.50000  0.56324  0.53410  Biso   1.000  N
  N12      1.0000 0.50000  0.93676  0.53410  Biso   1.000  N
  N13      1.0000 0.00000  0.93676  0.96590  Biso   1.000  N
  N14      1.0000 0.00000  0.56324  0.96590  Biso   1.000  N
  N15      1.0000 0.00000  0.06324  0.03410  Biso   1.000  N
  N16      1.0000 0.00000  0.43676  0.03410  Biso   1.000  N
  C121     1.0000 0.52720  0.43738  0.36060  Biso   1.000  C
  C122     1.0000 0.47280  0.06262  0.36060  Biso   1.000  C
  C123     1.0000 0.52720  0.56262  0.63940  Biso   1.000  C
  C124     1.0000 0.47280  0.93738  0.63940  Biso   1.000  C
  C125     1.0000 0.02720  0.93738  0.86060  Biso   1.000  C
  C126     1.0000 0.97280  0.56262  0.86060  Biso   1.000  C
  C127     1.0000 0.02720  0.06262  0.13940  Biso   1.000  C
  C128     1.0000 0.97280  0.43738  0.13940  Biso   1.000  C
  C129     1.0000 0.47280  0.56262  0.63940  Biso   1.000  C
  C130     1.0000 0.52720  0.93738  0.63940  Biso   1.000  C
  C131     1.0000 0.47280  0.43738  0.36060  Biso   1.000  C
  C132     1.0000 0.52720  0.06262  0.36060  Biso   1.000  C
  C133     1.0000 0.97280  0.06262  0.13940  Biso   1.000  C
  C134     1.0000 0.02720  0.43738  0.13940  Biso   1.000  C
  C135     1.0000 0.97280  0.93738  0.86060  Biso   1.000  C
  C136     1.0000 0.02720  0.56262  0.86060  Biso   1.000  C
  C137     1.0000 0.50000  0.42840  0.59590  Biso   1.000  C
  C138     1.0000 0.50000  0.07160  0.59590  Biso   1.000  C
  C139     1.0000 0.50000  0.57160  0.40410  Biso   1.000  C
  C140     1.0000 0.50000  0.92840  0.40410  Biso   1.000  C
  C141     1.0000 0.00000  0.92840  0.09590  Biso   1.000  C
  C142     1.0000 0.00000  0.57160  0.09590  Biso   1.000  C
  C143     1.0000 0.00000  0.07160  0.90410  Biso   1.000  C
  C144     1.0000 0.00000  0.42840  0.90410  Biso   1.000  C
  H41      1.0000 0.55940  0.42580  0.62560  Biso   1.000  H
  H42      1.0000 0.44060  0.07420  0.62560  Biso   1.000  H
  H43      1.0000 0.55940  0.57420  0.37440  Biso   1.000  H
  H44      1.0000 0.44060  0.92580  0.37440  Biso   1.000  H
  H45      1.0000 0.05940  0.92580  0.12560  Biso   1.000  H
  H46      1.0000 0.94060  0.57420  0.12560  Biso   1.000  H
  H47      1.0000 0.05940  0.07420  0.87440  Biso   1.000  H
  H48      1.0000 0.94060  0.42580  0.87440  Biso   1.000  H
  H49      1.0000 0.44060  0.57420  0.37440  Biso   1.000  H
  H50      1.0000 0.55940  0.92580  0.37440  Biso   1.000  H
  H51      1.0000 0.44060  0.42580  0.62560  Biso   1.000  H
  H52      1.0000 0.55940  0.07420  0.62560  Biso   1.000  H
  H53      1.0000 0.94060  0.07420  0.87440  Biso   1.000  H
  H54      1.0000 0.05940  0.42580  0.87440  Biso   1.000  H
  H55      1.0000 0.94060  0.92580  0.12560  Biso   1.000  H
  H56      1.0000 0.05940  0.57420  0.12560  Biso   1.000  H
  H57      1.0000 0.46930  0.44530  0.65070  Biso   1.000  H
  H58      1.0000 0.53070  0.05470  0.65070  Biso   1.000  H
  H59      1.0000 0.46930  0.55470  0.34930  Biso   1.000  H
  H60      1.0000 0.53070  0.94530  0.34930  Biso   1.000  H
  H61      1.0000 0.96930  0.94530  0.15070  Biso   1.000  H
  H62      1.0000 0.03070  0.55470  0.15070  Biso   1.000  H
  H63      1.0000 0.96930  0.05470  0.84930  Biso   1.000  H
  H64      1.0000 0.03070  0.44530  0.84930  Biso   1.000  H
  H65      1.0000 0.53070  0.55470  0.34930  Biso   1.000  H
  H66      1.0000 0.46930  0.94530  0.34930  Biso   1.000  H
  H67      1.0000 0.53070  0.44530  0.65070  Biso   1.000  H
  H68      1.0000 0.46930  0.05470  0.65070  Biso   1.000  H
  H69      1.0000 0.03070  0.05470  0.84930  Biso   1.000  H
  H70      1.0000 0.96930  0.44530  0.84930  Biso   1.000  H
  H71      1.0000 0.03070  0.94530  0.15070  Biso   1.000  H
  H72      1.0000 0.96930  0.55470  0.15070  Biso   1.000  H
  H73      1.0000 0.47130  0.40490  0.59860  Biso   1.000  H
  H74      1.0000 0.52870  0.09510  0.59860  Biso   1.000  H
  H75      1.0000 0.47130  0.59510  0.40140  Biso   1.000  H
  H76      1.0000 0.52870  0.90490  0.40140  Biso   1.000  H
  H77      1.0000 0.97130  0.90490  0.09860  Biso   1.000  H
  H78      1.0000 0.02870  0.59510  0.09860  Biso   1.000  H
  H79      1.0000 0.97130  0.09510  0.90140  Biso   1.000  H
  H80      1.0000 0.02870  0.40490  0.90140  Biso   1.000  H
  H81      1.0000 0.52870  0.59510  0.40140  Biso   1.000  H
  H82      1.0000 0.47130  0.90490  0.40140  Biso   1.000  H
  H83      1.0000 0.52870  0.40490  0.59860  Biso   1.000  H
  H84      1.0000 0.47130  0.09510  0.59860  Biso   1.000  H
  H85      1.0000 0.02870  0.09510  0.90140  Biso   1.000  H
  H86      1.0000 0.97130  0.40490  0.90140  Biso   1.000  H
  H87      1.0000 0.02870  0.90490  0.09860  Biso   1.000  H
  H88      1.0000 0.97130  0.59510  0.09860  Biso   1.000  H
  C145     1.0000 0.63030  0.43390  0.36130  Biso   1.000  C
  C146     1.0000 0.36970  0.06610  0.36130  Biso   1.000  C
  C147     1.0000 0.63030  0.56610  0.63870  Biso   1.000  C
  C148     1.0000 0.36970  0.93390  0.63870  Biso   1.000  C
  C149     1.0000 0.13030  0.93390  0.86130  Biso   1.000  C
  C150     1.0000 0.86970  0.56610  0.86130  Biso   1.000  C
  C151     1.0000 0.13030  0.06610  0.13870  Biso   1.000  C
  C152     1.0000 0.86970  0.43390  0.13870  Biso   1.000  C
  C153     1.0000 0.36970  0.56610  0.63870  Biso   1.000  C
  C154     1.0000 0.63030  0.93390  0.63870  Biso   1.000  C
  C155     1.0000 0.36970  0.43390  0.36130  Biso   1.000  C
  C156     1.0000 0.63030  0.06610  0.36130  Biso   1.000  C
  C157     1.0000 0.86970  0.06610  0.13870  Biso   1.000  C
  C158     1.0000 0.13030  0.43390  0.13870  Biso   1.000  C
  C159     1.0000 0.86970  0.93390  0.86130  Biso   1.000  C
  C160     1.0000 0.13030  0.56610  0.86130  Biso   1.000  C
  H89      1.0000 0.65120  0.43310  0.44890  Biso   1.000  H
  H90      1.0000 0.34880  0.06690  0.44890  Biso   1.000  H
  H91      1.0000 0.65120  0.56690  0.55110  Biso   1.000  H
  H92      1.0000 0.34880  0.93310  0.55110  Biso   1.000  H
  H93      1.0000 0.15120  0.93310  0.94890  Biso   1.000  H
  H94      1.0000 0.84880  0.56690  0.94890  Biso   1.000  H
  H95      1.0000 0.15120  0.06690  0.05110  Biso   1.000  H
  H96      1.0000 0.84880  0.43310  0.05110  Biso   1.000  H
  H97      1.0000 0.34880  0.56690  0.55110  Biso   1.000  H
  H98      1.0000 0.65120  0.93310  0.55110  Biso   1.000  H
  H99      1.0000 0.34880  0.43310  0.44890  Biso   1.000  H
  H100     1.0000 0.65120  0.06690  0.44890  Biso   1.000  H
  H101     1.0000 0.84880  0.06690  0.05110  Biso   1.000  H
  H102     1.0000 0.15120  0.43310  0.05110  Biso   1.000  H
  H103     1.0000 0.84880  0.93310  0.94890  Biso   1.000  H
  H104     1.0000 0.15120  0.56690  0.94890  Biso   1.000  H
  H105     1.0000 0.64700  0.41180  0.31720  Biso   1.000  H
  H106     1.0000 0.35300  0.08820  0.31720  Biso   1.000  H
  H107     1.0000 0.64700  0.58820  0.68280  Biso   1.000  H
  H108     1.0000 0.35300  0.91180  0.68280  Biso   1.000  H
  H109     1.0000 0.14700  0.91180  0.81720  Biso   1.000  H
  H110     1.0000 0.85300  0.58820  0.81720  Biso   1.000  H
  H111     1.0000 0.14700  0.08820  0.18280  Biso   1.000  H
  H112     1.0000 0.85300  0.41180  0.18280  Biso   1.000  H
  H113     1.0000 0.35300  0.58820  0.68280  Biso   1.000  H
  H114     1.0000 0.64700  0.91180  0.68280  Biso   1.000  H
  H115     1.0000 0.35300  0.41180  0.31720  Biso   1.000  H
  H116     1.0000 0.64700  0.08820  0.31720  Biso   1.000  H
  H117     1.0000 0.85300  0.08820  0.18280  Biso   1.000  H
  H118     1.0000 0.14700  0.41180  0.18280  Biso   1.000  H
  H119     1.0000 0.85300  0.91180  0.81720  Biso   1.000  H
  H120     1.0000 0.14700  0.58820  0.81720  Biso   1.000  H
  H121     1.0000 0.65550  0.45460  0.31770  Biso   1.000  H
  H122     1.0000 0.34450  0.04540  0.31770  Biso   1.000  H
  H123     1.0000 0.65550  0.54540  0.68230  Biso   1.000  H
  H124     1.0000 0.34450  0.95460  0.68230  Biso   1.000  H
  H125     1.0000 0.15550  0.95460  0.81770  Biso   1.000  H
  H126     1.0000 0.84450  0.54540  0.81770  Biso   1.000  H
  H127     1.0000 0.15550  0.04540  0.18230  Biso   1.000  H
  H128     1.0000 0.84450  0.45460  0.18230  Biso   1.000  H
  H129     1.0000 0.34450  0.54540  0.68230  Biso   1.000  H
  H130     1.0000 0.65550  0.95460  0.68230  Biso   1.000  H
  H131     1.0000 0.34450  0.45460  0.31770  Biso   1.000  H
  H132     1.0000 0.65550  0.04540  0.31770  Biso   1.000  H
  H133     1.0000 0.84450  0.04540  0.18230  Biso   1.000  H
  H134     1.0000 0.15550  0.45460  0.18230  Biso   1.000  H
  H135     1.0000 0.84450  0.95460  0.81770  Biso   1.000  H
  H136     1.0000 0.15550  0.54540  0.81770  Biso   1.000  H
  C161     1.0000 0.38860  0.44150  0.45600  Biso   1.000  C
  C162     1.0000 0.61140  0.05850  0.45600  Biso   1.000  C
  C163     1.0000 0.38860  0.55850  0.54400  Biso   1.000  C
  C164     1.0000 0.61140  0.94150  0.54400  Biso   1.000  C
  C165     1.0000 0.88860  0.94150  0.95600  Biso   1.000  C
  C166     1.0000 0.11140  0.55850  0.95600  Biso   1.000  C
  C167     1.0000 0.88860  0.05850  0.04400  Biso   1.000  C
  C168     1.0000 0.11140  0.44150  0.04400  Biso   1.000  C
  C169     1.0000 0.61140  0.55850  0.54400  Biso   1.000  C
  C170     1.0000 0.38860  0.94150  0.54400  Biso   1.000  C
  C171     1.0000 0.61140  0.44150  0.45600  Biso   1.000  C
  C172     1.0000 0.38860  0.05850  0.45600  Biso   1.000  C
  C173     1.0000 0.11140  0.05850  0.04400  Biso   1.000  C
  C174     1.0000 0.88860  0.44150  0.04400  Biso   1.000  C
  C175     1.0000 0.11140  0.94150  0.95600  Biso   1.000  C
  C176     1.0000 0.88860  0.55850  0.95600  Biso   1.000  C
  H137     1.0000 0.37230  0.45020  0.37150  Biso   1.000  H
  H138     1.0000 0.62770  0.04980  0.37150  Biso   1.000  H
  H139     1.0000 0.37230  0.54980  0.62850  Biso   1.000  H
  H140     1.0000 0.62770  0.95020  0.62850  Biso   1.000  H
  H141     1.0000 0.87230  0.95020  0.87150  Biso   1.000  H
  H142     1.0000 0.12770  0.54980  0.87150  Biso   1.000  H
  H143     1.0000 0.87230  0.04980  0.12850  Biso   1.000  H
  H144     1.0000 0.12770  0.45020  0.12850  Biso   1.000  H
  H145     1.0000 0.62770  0.54980  0.62850  Biso   1.000  H
  H146     1.0000 0.37230  0.95020  0.62850  Biso   1.000  H
  H147     1.0000 0.62770  0.45020  0.37150  Biso   1.000  H
  H148     1.0000 0.37230  0.04980  0.37150  Biso   1.000  H
  H149     1.0000 0.12770  0.04980  0.12850  Biso   1.000  H
  H150     1.0000 0.87230  0.45020  0.12850  Biso   1.000  H
  H151     1.0000 0.12770  0.95020  0.87150  Biso   1.000  H
  H152     1.0000 0.87230  0.54980  0.87150  Biso   1.000  H
  H153     1.0000 0.36640  0.41710  0.46850  Biso   1.000  H
  H154     1.0000 0.63360  0.08290  0.46850  Biso   1.000  H
  H155     1.0000 0.36640  0.58290  0.53150  Biso   1.000  H
  H156     1.0000 0.63360  0.91710  0.53150  Biso   1.000  H
  H157     1.0000 0.86640  0.91710  0.96850  Biso   1.000  H
  H158     1.0000 0.13360  0.58290  0.96850  Biso   1.000  H
  H159     1.0000 0.86640  0.08290  0.03150  Biso   1.000  H
  H160     1.0000 0.13360  0.41710  0.03150  Biso   1.000  H
  H161     1.0000 0.63360  0.58290  0.53150  Biso   1.000  H
  H162     1.0000 0.36640  0.91710  0.53150  Biso   1.000  H
  H163     1.0000 0.63360  0.41710  0.46850  Biso   1.000  H
  H164     1.0000 0.36640  0.08290  0.46850  Biso   1.000  H
  H165     1.0000 0.13360  0.08290  0.03150  Biso   1.000  H
  H166     1.0000 0.86640  0.41710  0.03150  Biso   1.000  H
  H167     1.0000 0.13360  0.91710  0.96850  Biso   1.000  H
  H168     1.0000 0.86640  0.58290  0.96850  Biso   1.000  H
  H169     1.0000 0.36430  0.45750  0.52060  Biso   1.000  H
  H170     1.0000 0.63570  0.04250  0.52060  Biso   1.000  H
  H171     1.0000 0.36430  0.54250  0.47940  Biso   1.000  H
  H172     1.0000 0.63570  0.95750  0.47940  Biso   1.000  H
  H173     1.0000 0.86430  0.95750  0.02060  Biso   1.000  H
  H174     1.0000 0.13570  0.54250  0.02060  Biso   1.000  H
  H175     1.0000 0.86430  0.04250  0.97940  Biso   1.000  H
  H176     1.0000 0.13570  0.45750  0.97940  Biso   1.000  H
  H177     1.0000 0.63570  0.54250  0.47940  Biso   1.000  H
  H178     1.0000 0.36430  0.95750  0.47940  Biso   1.000  H
  H179     1.0000 0.63570  0.45750  0.52060  Biso   1.000  H
  H180     1.0000 0.36430  0.04250  0.52060  Biso   1.000  H
  H181     1.0000 0.13570  0.04250  0.97940  Biso   1.000  H
  H182     1.0000 0.86430  0.45750  0.97940  Biso   1.000  H
  H183     1.0000 0.13570  0.95750  0.02060  Biso   1.000  H
  H184     1.0000 0.86430  0.54250  0.02060  Biso   1.000  H
