data_image0
_cell_length_a       10.844
_cell_length_b       12.911
_cell_length_c       12.233
_cell_angle_alpha    90
_cell_angle_beta     105.38
_cell_angle_gamma    90

_symmetry_space_group_name_H-M    "P 1"
_symmetry_int_tables_number       1

loop_
  _symmetry_equiv_pos_as_xyz
  'x, y, z'

loop_
  _atom_site_label
  _atom_site_occupancy
  _atom_site_fract_x
  _atom_site_fract_y
  _atom_site_fract_z
  _atom_site_thermal_displace_type
  _atom_site_B_iso_or_equiv
  _atom_site_type_symbol
  Cu1      1.0000 0.98370  0.18685  0.73681  Biso   1.000  Cu
  Cu2      1.0000 0.51630  0.68685  0.76319  Biso   1.000  Cu
  Cu3      1.0000 0.01630  0.81315  0.26319  Biso   1.000  Cu
  Cu4      1.0000 0.48370  0.31315  0.23681  Biso   1.000  Cu
  O1       1.0000 0.86190  0.10140  0.62400  Biso   1.000  O
  O2       1.0000 0.63810  0.60140  0.87600  Biso   1.000  O
  O3       1.0000 0.13810  0.89860  0.37600  Biso   1.000  O
  O4       1.0000 0.36190  0.39860  0.12400  Biso   1.000  O
  O5       1.0000 0.03670  0.24780  0.60720  Biso   1.000  O
  O6       1.0000 0.46330  0.74780  0.89280  Biso   1.000  O
  O7       1.0000 0.96330  0.75220  0.39280  Biso   1.000  O
  O8       1.0000 0.53670  0.25220  0.10720  Biso   1.000  O
  O9       1.0000 0.73570  0.96440  0.56570  Biso   1.000  O
  O10      1.0000 0.76430  0.46440  0.93430  Biso   1.000  O
  O11      1.0000 0.26430  0.03560  0.43430  Biso   1.000  O
  O12      1.0000 0.23570  0.53560  0.06570  Biso   1.000  O
  O13      1.0000 0.13380  0.36700  0.52580  Biso   1.000  O
  O14      1.0000 0.36620  0.86700  0.97420  Biso   1.000  O
  O15      1.0000 0.86620  0.63300  0.47420  Biso   1.000  O
  O16      1.0000 0.63380  0.13300  0.02580  Biso   1.000  O
  N1       1.0000 0.90890  0.14470  0.85820  Biso   1.000  N
  N2       1.0000 0.59110  0.64470  0.64180  Biso   1.000  N
  N3       1.0000 0.09110  0.85530  0.14180  Biso   1.000  N
  N4       1.0000 0.40890  0.35530  0.35820  Biso   1.000  N
  N5       1.0000 0.14480  0.22480  0.84410  Biso   1.000  N
  N6       1.0000 0.35520  0.72480  0.65590  Biso   1.000  N
  N7       1.0000 0.85520  0.77520  0.15590  Biso   1.000  N
  N8       1.0000 0.64480  0.27520  0.34410  Biso   1.000  N
  N9       1.0000 0.62830  0.85830  0.77210  Biso   1.000  N
  N10      1.0000 0.87170  0.35830  0.72790  Biso   1.000  N
  N11      1.0000 0.37170  0.14170  0.22790  Biso   1.000  N
  N12      1.0000 0.12830  0.64170  0.27210  Biso   1.000  N
  N13      1.0000 0.39350  0.47030  0.71470  Biso   1.000  N
  N14      1.0000 0.10650  0.97030  0.78530  Biso   1.000  N
  N15      1.0000 0.60650  0.52970  0.28530  Biso   1.000  N
  N16      1.0000 0.89350  0.02970  0.21470  Biso   1.000  N
  C1       1.0000 0.82890  0.07010  0.85000  Biso   1.000  C
  C2       1.0000 0.67110  0.57010  0.65000  Biso   1.000  C
  C3       1.0000 0.17110  0.92990  0.15000  Biso   1.000  C
  C4       1.0000 0.32890  0.42990  0.35000  Biso   1.000  C
  C5       1.0000 0.77630  0.00920  0.75370  Biso   1.000  C
  C6       1.0000 0.72370  0.50920  0.74630  Biso   1.000  C
  C7       1.0000 0.22370  0.99080  0.24630  Biso   1.000  C
  C8       1.0000 0.27630  0.49080  0.25370  Biso   1.000  C
  C9       1.0000 0.79700  0.02970  0.64650  Biso   1.000  C
  C10      1.0000 0.70300  0.52970  0.85350  Biso   1.000  C
  C11      1.0000 0.20300  0.97030  0.35350  Biso   1.000  C
  C12      1.0000 0.29700  0.47030  0.14650  Biso   1.000  C
  C13      1.0000 0.22820  0.28580  0.82070  Biso   1.000  C
  C14      1.0000 0.27180  0.78580  0.67930  Biso   1.000  C
  C15      1.0000 0.77180  0.71420  0.17930  Biso   1.000  C
  C16      1.0000 0.72820  0.21420  0.32070  Biso   1.000  C
  C17      1.0000 0.22040  0.33500  0.71560  Biso   1.000  C
  C18      1.0000 0.27960  0.83500  0.78440  Biso   1.000  C
  C19      1.0000 0.77960  0.66500  0.28440  Biso   1.000  C
  C20      1.0000 0.72040  0.16500  0.21560  Biso   1.000  C
  C21      1.0000 0.12430  0.31240  0.61640  Biso   1.000  C
  C22      1.0000 0.37570  0.81240  0.88360  Biso   1.000  C
  C23      1.0000 0.87570  0.68760  0.38360  Biso   1.000  C
  C24      1.0000 0.62430  0.18760  0.11640  Biso   1.000  C
  C25      1.0000 0.94050  0.20670  0.96200  Biso   1.000  C
  C26      1.0000 0.55950  0.70670  0.53800  Biso   1.000  C
  C27      1.0000 0.05950  0.79330  0.03800  Biso   1.000  C
  C28      1.0000 0.44050  0.29330  0.46200  Biso   1.000  C
  C29      1.0000 0.07710  0.21360  0.02010  Biso   1.000  C
  C30      1.0000 0.42290  0.71360  0.47990  Biso   1.000  C
  C31      1.0000 0.92290  0.78640  0.97990  Biso   1.000  C
  C32      1.0000 0.57710  0.28640  0.52010  Biso   1.000  C
  C33      1.0000 0.17220  0.18130  0.95800  Biso   1.000  C
  C34      1.0000 0.32780  0.68130  0.54200  Biso   1.000  C
  C35      1.0000 0.82780  0.81870  0.04200  Biso   1.000  C
  C36      1.0000 0.67220  0.31870  0.45800  Biso   1.000  C
  C37      1.0000 0.75190  0.97440  0.45360  Biso   1.000  C
  C38      1.0000 0.74810  0.47440  0.04640  Biso   1.000  C
  C39      1.0000 0.24810  0.02560  0.54640  Biso   1.000  C
  C40      1.0000 0.25190  0.52560  0.95360  Biso   1.000  C
  C41      1.0000 0.65080  0.92720  0.37140  Biso   1.000  C
  C42      1.0000 0.84920  0.42720  0.12860  Biso   1.000  C
  C43      1.0000 0.34920  0.07280  0.62860  Biso   1.000  C
  C44      1.0000 0.15080  0.57280  0.87140  Biso   1.000  C
  C45      1.0000 0.03740  0.35250  0.42000  Biso   1.000  C
  C46      1.0000 0.46260  0.85250  0.08000  Biso   1.000  C
  C47      1.0000 0.96260  0.64750  0.58000  Biso   1.000  C
  C48      1.0000 0.53740  0.14750  0.92000  Biso   1.000  C
  C49      1.0000 0.06440  0.26420  0.35630  Biso   1.000  C
  C50      1.0000 0.43560  0.76420  0.14370  Biso   1.000  C
  C51      1.0000 0.93560  0.73580  0.64370  Biso   1.000  C
  C52      1.0000 0.56440  0.23580  0.85630  Biso   1.000  C
  C53      1.0000 0.69430  0.92550  0.76350  Biso   1.000  C
  C54      1.0000 0.80570  0.42550  0.73650  Biso   1.000  C
  C55      1.0000 0.30570  0.07450  0.23650  Biso   1.000  C
  C56      1.0000 0.19430  0.57450  0.26350  Biso   1.000  C
  C57      1.0000 0.31500  0.40970  0.71260  Biso   1.000  C
  C58      1.0000 0.18500  0.90970  0.78740  Biso   1.000  C
  C59      1.0000 0.68500  0.59030  0.28740  Biso   1.000  C
  C60      1.0000 0.81500  0.09030  0.21260  Biso   1.000  C
  H1       1.0000 0.80400  0.05700  0.91300  Biso   1.000  H
  H2       1.0000 0.69600  0.55700  0.58700  Biso   1.000  H
  H3       1.0000 0.19600  0.94300  0.08700  Biso   1.000  H
  H4       1.0000 0.30400  0.44300  0.41300  Biso   1.000  H
  H5       1.0000 0.30300  0.29900  0.88500  Biso   1.000  H
  H6       1.0000 0.19700  0.79900  0.61500  Biso   1.000  H
  H7       1.0000 0.69700  0.70100  0.11500  Biso   1.000  H
  H8       1.0000 0.80300  0.20100  0.38500  Biso   1.000  H
  H9       1.0000 0.89500  0.18000  0.01400  Biso   1.000  H
  H10      1.0000 0.60500  0.68000  0.48600  Biso   1.000  H
  H11      1.0000 0.10500  0.82000  0.98600  Biso   1.000  H
  H12      1.0000 0.39500  0.32000  0.51400  Biso   1.000  H
  H13      1.0000 0.92100  0.26900  0.94200  Biso   1.000  H
  H14      1.0000 0.57900  0.76900  0.55800  Biso   1.000  H
  H15      1.0000 0.07900  0.73100  0.05800  Biso   1.000  H
  H16      1.0000 0.42100  0.23100  0.44200  Biso   1.000  H
  H17      1.0000 0.09200  0.17100  0.09200  Biso   1.000  H
  H18      1.0000 0.40800  0.67100  0.40800  Biso   1.000  H
  H19      1.0000 0.90800  0.82900  0.90800  Biso   1.000  H
  H20      1.0000 0.59200  0.32900  0.59200  Biso   1.000  H
  H21      1.0000 0.09700  0.26300  0.05500  Biso   1.000  H
  H22      1.0000 0.40300  0.76300  0.44500  Biso   1.000  H
  H23      1.0000 0.90300  0.73700  0.94500  Biso   1.000  H
  H24      1.0000 0.59700  0.23700  0.55500  Biso   1.000  H
  H25      1.0000 0.26000  0.19500  0.00400  Biso   1.000  H
  H26      1.0000 0.24000  0.69500  0.49600  Biso   1.000  H
  H27      1.0000 0.74000  0.80500  0.99600  Biso   1.000  H
  H28      1.0000 0.76000  0.30500  0.50400  Biso   1.000  H
  H29      1.0000 0.17100  0.11300  0.95000  Biso   1.000  H
  H30      1.0000 0.32900  0.61300  0.55000  Biso   1.000  H
  H31      1.0000 0.82900  0.88700  0.05000  Biso   1.000  H
  H32      1.0000 0.67100  0.38700  0.45000  Biso   1.000  H
  H33      1.0000 0.76000  0.04100  0.44700  Biso   1.000  H
  H34      1.0000 0.74000  0.54100  0.05300  Biso   1.000  H
  H35      1.0000 0.24000  0.95900  0.55300  Biso   1.000  H
  H36      1.0000 0.26000  0.45900  0.94700  Biso   1.000  H
  H37      1.0000 0.81900  0.98300  0.46100  Biso   1.000  H
  H38      1.0000 0.68100  0.48300  0.03900  Biso   1.000  H
  H39      1.0000 0.18100  0.01700  0.53900  Biso   1.000  H
  H40      1.0000 0.31900  0.51700  0.96100  Biso   1.000  H
  H41      1.0000 0.64800  0.94000  0.29900  Biso   1.000  H
  H42      1.0000 0.85200  0.44000  0.20100  Biso   1.000  H
  H43      1.0000 0.35200  0.06000  0.70100  Biso   1.000  H
  H44      1.0000 0.14800  0.56000  0.79900  Biso   1.000  H
  H45      1.0000 0.60000  0.99800  0.38000  Biso   1.000  H
  H46      1.0000 0.90000  0.49800  0.12000  Biso   1.000  H
  H47      1.0000 0.40000  0.00200  0.62000  Biso   1.000  H
  H48      1.0000 0.10000  0.50200  0.88000  Biso   1.000  H
  H49      1.0000 0.66800  0.86300  0.39200  Biso   1.000  H
  H50      1.0000 0.83200  0.36300  0.10800  Biso   1.000  H
  H51      1.0000 0.33200  0.13700  0.60800  Biso   1.000  H
  H52      1.0000 0.16800  0.63700  0.89200  Biso   1.000  H
  H53      1.0000 0.95500  0.35100  0.42800  Biso   1.000  H
  H54      1.0000 0.54500  0.85100  0.07200  Biso   1.000  H
  H55      1.0000 0.04500  0.64900  0.57200  Biso   1.000  H
  H56      1.0000 0.45500  0.14900  0.92800  Biso   1.000  H
  H57      1.0000 0.03900  0.41100  0.37600  Biso   1.000  H
  H58      1.0000 0.46100  0.91100  0.12400  Biso   1.000  H
  H59      1.0000 0.96100  0.58900  0.62400  Biso   1.000  H
  H60      1.0000 0.53900  0.08900  0.87600  Biso   1.000  H
  H61      1.0000 0.14200  0.27100  0.34200  Biso   1.000  H
  H62      1.0000 0.35800  0.77100  0.15800  Biso   1.000  H
  H63      1.0000 0.85800  0.72900  0.65800  Biso   1.000  H
  H64      1.0000 0.64200  0.22900  0.84200  Biso   1.000  H
  H65      1.0000 0.99700  0.26400  0.27400  Biso   1.000  H
  H66      1.0000 0.50300  0.76400  0.22600  Biso   1.000  H
  H67      1.0000 0.00300  0.73600  0.72600  Biso   1.000  H
  H68      1.0000 0.49700  0.23600  0.77400  Biso   1.000  H
  H69      1.0000 0.05700  0.20800  0.39100  Biso   1.000  H
  H70      1.0000 0.44300  0.70800  0.10900  Biso   1.000  H
  H71      1.0000 0.94300  0.79200  0.60900  Biso   1.000  H
  H72      1.0000 0.55700  0.29200  0.89100  Biso   1.000  H
