data_image0
_cell_length_a       10.305
_cell_length_b       13.375
_cell_length_c       12.447
_cell_angle_alpha    90
_cell_angle_beta     107.49
_cell_angle_gamma    90

_symmetry_space_group_name_H-M    "P 1"
_symmetry_int_tables_number       1

loop_
  _symmetry_equiv_pos_as_xyz
  'x, y, z'

loop_
  _atom_site_label
  _atom_site_occupancy
  _atom_site_fract_x
  _atom_site_fract_y
  _atom_site_fract_z
  _atom_site_thermal_displace_type
  _atom_site_B_iso_or_equiv
  _atom_site_type_symbol
  Cu1      1.0000 0.51394  0.17546  0.27105  Biso   1.000  Cu
  Cu2      1.0000 0.98606  0.67546  0.22895  Biso   1.000  Cu
  Cu3      1.0000 0.48606  0.82454  0.72895  Biso   1.000  Cu
  Cu4      1.0000 0.01394  0.32454  0.77105  Biso   1.000  Cu
  O1       1.0000 0.66190  0.10070  0.37960  Biso   1.000  O
  O2       1.0000 0.83810  0.60070  0.12040  Biso   1.000  O
  O3       1.0000 0.33810  0.89930  0.62040  Biso   1.000  O
  O4       1.0000 0.16190  0.39930  0.87960  Biso   1.000  O
  O5       1.0000 0.45180  0.23460  0.39330  Biso   1.000  O
  O6       1.0000 0.04820  0.73460  0.10670  Biso   1.000  O
  O7       1.0000 0.54820  0.76540  0.60670  Biso   1.000  O
  O8       1.0000 0.95180  0.26540  0.89330  Biso   1.000  O
  O9       1.0000 0.34890  0.35420  0.46760  Biso   1.000  O
  O10      1.0000 0.15110  0.85420  0.03240  Biso   1.000  O
  O11      1.0000 0.65110  0.64580  0.53240  Biso   1.000  O
  O12      1.0000 0.84890  0.14580  0.96760  Biso   1.000  O
  O13      1.0000 0.80550  0.96980  0.43270  Biso   1.000  O
  O14      1.0000 0.69450  0.46980  0.06730  Biso   1.000  O
  O15      1.0000 0.19450  0.03020  0.56730  Biso   1.000  O
  O16      1.0000 0.30550  0.53020  0.93270  Biso   1.000  O
  N1       1.0000 0.57110  0.13050  0.14380  Biso   1.000  N
  N2       1.0000 0.92890  0.63050  0.35620  Biso   1.000  N
  N3       1.0000 0.42890  0.86950  0.85620  Biso   1.000  N
  N4       1.0000 0.07110  0.36950  0.64380  Biso   1.000  N
  N5       1.0000 0.35580  0.22500  0.15630  Biso   1.000  N
  N6       1.0000 0.14420  0.72500  0.34370  Biso   1.000  N
  N7       1.0000 0.64420  0.77500  0.84370  Biso   1.000  N
  N8       1.0000 0.85580  0.27500  0.65630  Biso   1.000  N
  N9       1.0000 0.11330  0.48670  0.26460  Biso   1.000  N
  N10      1.0000 0.38670  0.98670  0.23540  Biso   1.000  N
  N11      1.0000 0.88670  0.51330  0.73540  Biso   1.000  N
  N12      1.0000 0.61330  0.01330  0.76460  Biso   1.000  N
  N13      1.0000 0.87000  0.84910  0.21940  Biso   1.000  N
  N14      1.0000 0.63000  0.34910  0.28060  Biso   1.000  N
  N15      1.0000 0.13000  0.15090  0.78060  Biso   1.000  N
  N16      1.0000 0.37000  0.65090  0.71940  Biso   1.000  N
  C1       1.0000 0.49100  0.17810  0.03860  Biso   1.000  C
  C2       1.0000 0.00900  0.67810  0.46140  Biso   1.000  C
  C3       1.0000 0.50900  0.82190  0.96140  Biso   1.000  C
  C4       1.0000 0.99100  0.32190  0.53860  Biso   1.000  C
  C5       1.0000 0.34790  0.18660  0.04430  Biso   1.000  C
  C6       1.0000 0.15210  0.68660  0.45570  Biso   1.000  C
  C7       1.0000 0.65210  0.81340  0.95570  Biso   1.000  C
  C8       1.0000 0.84790  0.31340  0.54430  Biso   1.000  C
  C9       1.0000 0.27100  0.29220  0.17080  Biso   1.000  C
  C10      1.0000 0.22900  0.79220  0.32920  Biso   1.000  C
  C11      1.0000 0.72900  0.70780  0.82920  Biso   1.000  C
  C12      1.0000 0.77100  0.20780  0.67080  Biso   1.000  C
  C13      1.0000 0.27410  0.33530  0.27460  Biso   1.000  C
  C14      1.0000 0.22590  0.83530  0.22540  Biso   1.000  C
  C15      1.0000 0.72590  0.66470  0.72540  Biso   1.000  C
  C16      1.0000 0.77410  0.16470  0.77460  Biso   1.000  C
  C17      1.0000 0.36460  0.30360  0.37910  Biso   1.000  C
  C18      1.0000 0.13540  0.80360  0.12090  Biso   1.000  C
  C19      1.0000 0.63540  0.69640  0.62090  Biso   1.000  C
  C20      1.0000 0.86460  0.19640  0.87910  Biso   1.000  C
  C21      1.0000 0.72660  0.02910  0.35150  Biso   1.000  C
  C22      1.0000 0.77340  0.52910  0.14850  Biso   1.000  C
  C23      1.0000 0.27340  0.97090  0.64850  Biso   1.000  C
  C24      1.0000 0.22660  0.47090  0.85150  Biso   1.000  C
  C25      1.0000 0.72970  0.00390  0.24270  Biso   1.000  C
  C26      1.0000 0.77030  0.50390  0.25730  Biso   1.000  C
  C27      1.0000 0.27030  0.99610  0.75730  Biso   1.000  C
  C28      1.0000 0.22970  0.49610  0.74270  Biso   1.000  C
  C29      1.0000 0.65430  0.05660  0.14450  Biso   1.000  C
  C30      1.0000 0.84570  0.55660  0.35550  Biso   1.000  C
  C31      1.0000 0.34570  0.94340  0.85550  Biso   1.000  C
  C32      1.0000 0.15430  0.44340  0.64450  Biso   1.000  C
  C33      1.0000 0.18440  0.41890  0.27250  Biso   1.000  C
  C34      1.0000 0.31560  0.91890  0.22750  Biso   1.000  C
  C35      1.0000 0.81560  0.58110  0.72750  Biso   1.000  C
  C36      1.0000 0.68440  0.08110  0.77250  Biso   1.000  C
  C37      1.0000 0.80860  0.91860  0.23040  Biso   1.000  C
  C38      1.0000 0.69140  0.41860  0.26960  Biso   1.000  C
  C39      1.0000 0.19140  0.08140  0.76960  Biso   1.000  C
  C40      1.0000 0.30860  0.58140  0.73040  Biso   1.000  C
  C41      1.0000 0.44570  0.33560  0.57760  Biso   1.000  C
  C42      1.0000 0.05430  0.83560  0.92240  Biso   1.000  C
  C43      1.0000 0.55430  0.66440  0.42240  Biso   1.000  C
  C44      1.0000 0.94570  0.16440  0.07760  Biso   1.000  C
  C45      1.0000 0.40800  0.24710  0.63340  Biso   1.000  C
  C46      1.0000 0.09200  0.74710  0.86660  Biso   1.000  C
  C47      1.0000 0.59200  0.75290  0.36660  Biso   1.000  C
  C48      1.0000 0.90800  0.25290  0.13340  Biso   1.000  C
  C49      1.0000 0.80740  0.98810  0.54730  Biso   1.000  C
  C50      1.0000 0.69260  0.48810  0.95270  Biso   1.000  C
  C51      1.0000 0.19260  0.01190  0.45270  Biso   1.000  C
  C52      1.0000 0.30740  0.51190  0.04730  Biso   1.000  C
  C53      1.0000 0.88230  0.90410  0.61780  Biso   1.000  C
  C54      1.0000 0.61770  0.40410  0.88220  Biso   1.000  C
  C55      1.0000 0.11770  0.09590  0.38220  Biso   1.000  C
  C56      1.0000 0.38230  0.59590  0.11780  Biso   1.000  C
  H1       1.0000 0.50400  0.14900  0.97000  Biso   1.000  H
  H2       1.0000 0.99600  0.64900  0.53000  Biso   1.000  H
  H3       1.0000 0.49600  0.85100  0.03000  Biso   1.000  H
  H4       1.0000 0.00400  0.35100  0.47000  Biso   1.000  H
  H5       1.0000 0.52900  0.24100  0.03100  Biso   1.000  H
  H6       1.0000 0.97100  0.74100  0.46900  Biso   1.000  H
  H7       1.0000 0.47100  0.75900  0.96900  Biso   1.000  H
  H8       1.0000 0.02900  0.25900  0.53100  Biso   1.000  H
  H9       1.0000 0.29600  0.22000  0.98800  Biso   1.000  H
  H10      1.0000 0.20400  0.72000  0.51200  Biso   1.000  H
  H11      1.0000 0.70400  0.78000  0.01200  Biso   1.000  H
  H12      1.0000 0.79600  0.28000  0.48800  Biso   1.000  H
  H13      1.0000 0.31300  0.12300  0.03800  Biso   1.000  H
  H14      1.0000 0.18700  0.62300  0.46200  Biso   1.000  H
  H15      1.0000 0.68700  0.87700  0.96200  Biso   1.000  H
  H16      1.0000 0.81300  0.37700  0.53800  Biso   1.000  H
  H17      1.0000 0.20800  0.31500  0.10800  Biso   1.000  H
  H18      1.0000 0.29200  0.81500  0.39200  Biso   1.000  H
  H19      1.0000 0.79200  0.68500  0.89200  Biso   1.000  H
  H20      1.0000 0.70800  0.18500  0.60800  Biso   1.000  H
  H21      1.0000 0.66900  0.03700  0.07500  Biso   1.000  H
  H22      1.0000 0.83100  0.53700  0.42500  Biso   1.000  H
  H23      1.0000 0.33100  0.96300  0.92500  Biso   1.000  H
  H24      1.0000 0.16900  0.46300  0.57500  Biso   1.000  H
  H25      1.0000 0.54300  0.33700  0.56400  Biso   1.000  H
  H26      1.0000 0.95700  0.83700  0.93600  Biso   1.000  H
  H27      1.0000 0.45700  0.66300  0.43600  Biso   1.000  H
  H28      1.0000 0.04300  0.16300  0.06400  Biso   1.000  H
  H29      1.0000 0.44900  0.40000  0.61600  Biso   1.000  H
  H30      1.0000 0.05100  0.90000  0.88400  Biso   1.000  H
  H31      1.0000 0.55100  0.60000  0.38400  Biso   1.000  H
  H32      1.0000 0.94900  0.10000  0.11600  Biso   1.000  H
  H33      1.0000 0.48100  0.22200  0.71500  Biso   1.000  H
  H34      1.0000 0.01900  0.72200  0.78500  Biso   1.000  H
  H35      1.0000 0.51900  0.77800  0.28500  Biso   1.000  H
  H36      1.0000 0.98100  0.27800  0.21500  Biso   1.000  H
  H37      1.0000 0.31800  0.26300  0.63900  Biso   1.000  H
  H38      1.0000 0.18200  0.76300  0.86100  Biso   1.000  H
  H39      1.0000 0.68200  0.73700  0.36100  Biso   1.000  H
  H40      1.0000 0.81800  0.23700  0.13900  Biso   1.000  H
  H41      1.0000 0.42300  0.17900  0.59100  Biso   1.000  H
  H42      1.0000 0.07700  0.67900  0.90900  Biso   1.000  H
  H43      1.0000 0.57700  0.82100  0.40900  Biso   1.000  H
  H44      1.0000 0.92300  0.32100  0.09100  Biso   1.000  H
  H45      1.0000 0.85000  0.04300  0.56800  Biso   1.000  H
  H46      1.0000 0.65000  0.54300  0.93200  Biso   1.000  H
  H47      1.0000 0.15000  0.95700  0.43200  Biso   1.000  H
  H48      1.0000 0.35000  0.45700  0.06800  Biso   1.000  H
  H49      1.0000 0.71700  0.98400  0.54200  Biso   1.000  H
  H50      1.0000 0.78300  0.48400  0.95800  Biso   1.000  H
  H51      1.0000 0.28300  0.01600  0.45800  Biso   1.000  H
  H52      1.0000 0.21700  0.51600  0.04200  Biso   1.000  H
  H53      1.0000 0.88200  0.91500  0.68200  Biso   1.000  H
  H54      1.0000 0.61800  0.41500  0.81800  Biso   1.000  H
  H55      1.0000 0.11800  0.08500  0.31800  Biso   1.000  H
  H56      1.0000 0.38200  0.58500  0.18200  Biso   1.000  H
  H57      1.0000 0.83000  0.84100  0.59000  Biso   1.000  H
  H58      1.0000 0.67000  0.34100  0.91000  Biso   1.000  H
  H59      1.0000 0.17000  0.15900  0.41000  Biso   1.000  H
  H60      1.0000 0.33000  0.65900  0.09000  Biso   1.000  H
  H61      1.0000 0.97800  0.91800  0.62300  Biso   1.000  H
  H62      1.0000 0.52200  0.41800  0.87700  Biso   1.000  H
  H63      1.0000 0.02200  0.08200  0.37700  Biso   1.000  H
  H64      1.0000 0.47800  0.58200  0.12300  Biso   1.000  H
