data_image0
_cell_length_a       9.218
_cell_length_b       10.358
_cell_length_c       13.715
_cell_angle_alpha    107.447
_cell_angle_beta     93.765
_cell_angle_gamma    110.489

_symmetry_space_group_name_H-M    "P 1"
_symmetry_int_tables_number       1

loop_
  _symmetry_equiv_pos_as_xyz
  'x, y, z'

loop_
  _atom_site_label
  _atom_site_occupancy
  _atom_site_fract_x
  _atom_site_fract_y
  _atom_site_fract_z
  _atom_site_thermal_displace_type
  _atom_site_B_iso_or_equiv
  _atom_site_type_symbol
  Cu1      1.0000 0.95239  0.13198  0.02433  Biso   1.000  Cu
  Cu2      1.0000 0.04761  0.86802  0.97567  Biso   1.000  Cu
  Ni1      1.0000 0.50000  0.50000  0.00000  Biso   1.000  Ni
  N1       1.0000 0.80700  0.15820  0.92240  Biso   1.000  N
  N2       1.0000 0.19300  0.84180  0.07760  Biso   1.000  N
  N3       1.0000 0.83660  0.14030  0.82410  Biso   1.000  N
  N4       1.0000 0.16340  0.85970  0.17590  Biso   1.000  N
  N5       1.0000 0.08640  0.75520  0.84170  Biso   1.000  N
  N6       1.0000 0.91360  0.24480  0.15830  Biso   1.000  N
  N7       1.0000 0.12590  0.81550  0.76580  Biso   1.000  N
  N8       1.0000 0.87410  0.18450  0.23420  Biso   1.000  N
  N9       1.0000 0.19190  0.31280  0.03760  Biso   1.000  N
  N10      1.0000 0.80810  0.68720  0.96240  Biso   1.000  N
  N11      1.0000 0.65330  0.64610  0.22530  Biso   1.000  N
  N12      1.0000 0.34670  0.35390  0.77470  Biso   1.000  N
  N13      1.0000 0.37180  0.36560  0.34420  Biso   1.000  N
  N14      1.0000 0.62820  0.63440  0.65580  Biso   1.000  N
  O1       1.0000 0.97300  0.97940  0.90880  Biso   1.000  O
  O2       1.0000 0.02700  0.02060  0.09120  Biso   1.000  O
  O3       1.0000 0.40790  0.24740  0.44310  Biso   1.000  O
  O4       1.0000 0.59210  0.75260  0.55690  Biso   1.000  O
  O5       1.0000 0.69550  0.87750  0.40530  Biso   1.000  O
  O6       1.0000 0.30450  0.12250  0.59470  Biso   1.000  O
  H1       1.0000 0.71970  0.84160  0.44910  Biso   1.000  H
  H2       1.0000 0.28030  0.15840  0.55090  Biso   1.000  H
  H3       1.0000 0.66500  0.80780  0.34700  Biso   1.000  H
  H4       1.0000 0.33500  0.19220  0.65300  Biso   1.000  H
  O7       1.0000 0.86300  0.80000  0.41530  Biso   1.000  O
  O8       1.0000 0.13700  0.20000  0.58470  Biso   1.000  O
  H5       1.0000 0.83100  0.70920  0.38000  Biso   1.000  H
  H6       1.0000 0.16900  0.29080  0.62000  Biso   1.000  H
  H7       1.0000 0.79610  0.82320  0.38590  Biso   1.000  H
  H8       1.0000 0.20390  0.17680  0.61410  Biso   1.000  H
  O9       1.0000 0.98300  0.92600  0.49800  Biso   1.000  O
  O10      1.0000 0.01700  0.07400  0.50200  Biso   1.000  O
  H9       1.0000 0.95250  0.99610  0.52280  Biso   1.000  H
  H10      1.0000 0.04750  0.00390  0.47720  Biso   1.000  H
  H11      1.0000 0.08130  0.97350  0.52030  Biso   1.000  H
  H12      1.0000 0.91870  0.02650  0.47970  Biso   1.000  H
  C1       1.0000 0.58970  0.19070  0.01320  Biso   1.000  C
  C2       1.0000 0.41030  0.80930  0.98680  Biso   1.000  C
  H13      1.0000 0.65590  0.19410  0.07180  Biso   1.000  H
  H14      1.0000 0.34410  0.80590  0.92820  Biso   1.000  H
  H15      1.0000 0.48980  0.11010  0.99830  Biso   1.000  H
  H16      1.0000 0.51020  0.88990  0.00170  Biso   1.000  H
  H17      1.0000 0.57370  0.28090  0.02920  Biso   1.000  H
  H18      1.0000 0.42630  0.71910  0.97080  Biso   1.000  H
  C3       1.0000 0.66720  0.17020  0.92050  Biso   1.000  C
  C4       1.0000 0.33280  0.82980  0.07950  Biso   1.000  C
  C5       1.0000 0.61050  0.16080  0.82130  Biso   1.000  C
  C6       1.0000 0.38950  0.83920  0.17870  Biso   1.000  C
  H19      1.0000 0.51620  0.16700  0.79970  Biso   1.000  H
  H20      1.0000 0.48380  0.83300  0.20030  Biso   1.000  H
  C7       1.0000 0.71770  0.14110  0.76200  Biso   1.000  C
  C8       1.0000 0.28230  0.85890  0.23800  Biso   1.000  C
  C9       1.0000 0.72280  0.13020  0.65060  Biso   1.000  C
  C10      1.0000 0.27720  0.86980  0.34940  Biso   1.000  C
  H21      1.0000 0.81680  0.11670  0.63280  Biso   1.000  H
  H22      1.0000 0.18320  0.88330  0.36720  Biso   1.000  H
  H23      1.0000 0.72300  0.21890  0.64190  Biso   1.000  H
  H24      1.0000 0.27700  0.78110  0.35810  Biso   1.000  H
  H25      1.0000 0.63200  0.04820  0.60590  Biso   1.000  H
  H26      1.0000 0.36800  0.95180  0.39410  Biso   1.000  H
  C11      1.0000 0.03660  0.51640  0.86470  Biso   1.000  C
  C12      1.0000 0.96340  0.48360  0.13530  Biso   1.000  C
  H27      1.0000 0.02000  0.56650  0.93150  Biso   1.000  H
  H28      1.0000 0.98000  0.43350  0.06850  Biso   1.000  H
  H29      1.0000 0.94200  0.43250  0.82750  Biso   1.000  H
  H30      1.0000 0.05800  0.56750  0.17250  Biso   1.000  H
  H31      1.0000 0.12120  0.48480  0.87390  Biso   1.000  H
  H32      1.0000 0.87880  0.51520  0.12610  Biso   1.000  H
  C13      1.0000 0.07820  0.61830  0.80400  Biso   1.000  C
  C14      1.0000 0.92180  0.38170  0.19600  Biso   1.000  C
  C15      1.0000 0.11150  0.59130  0.70430  Biso   1.000  C
  C16      1.0000 0.88850  0.40870  0.29570  Biso   1.000  C
  H33      1.0000 0.11350  0.50380  0.66100  Biso   1.000  H
  H34      1.0000 0.88650  0.49620  0.33900  Biso   1.000  H
  C17      1.0000 0.14070  0.71600  0.68130  Biso   1.000  C
  C18      1.0000 0.85930  0.28400  0.31870  Biso   1.000  C
  C19      1.0000 0.18380  0.75100  0.58680  Biso   1.000  C
  C20      1.0000 0.81620  0.24900  0.41320  Biso   1.000  C
  H35      1.0000 0.19590  0.85020  0.59660  Biso   1.000  H
  H36      1.0000 0.80410  0.14980  0.40340  Biso   1.000  H
  H37      1.0000 0.28130  0.74040  0.57530  Biso   1.000  H
  H38      1.0000 0.71870  0.25960  0.42470  Biso   1.000  H
  H39      1.0000 0.10200  0.68500  0.52760  Biso   1.000  H
  H40      1.0000 0.89800  0.31500  0.47240  Biso   1.000  H
  C21      1.0000 0.98090  0.12080  0.79870  Biso   1.000  C
  C22      1.0000 0.01910  0.87920  0.20130  Biso   1.000  C
  H41      1.0000 0.07160  0.20330  0.84540  Biso   1.000  H
  H42      1.0000 0.92840  0.79670  0.15460  Biso   1.000  H
  H43      1.0000 0.98830  0.11900  0.72820  Biso   1.000  H
  H44      1.0000 0.01170  0.88100  0.27180  Biso   1.000  H
  C23      1.0000 0.98380  0.97950  0.80830  Biso   1.000  C
  C24      1.0000 0.01620  0.02050  0.19170  Biso   1.000  C
  H45      1.0000 0.89330  0.89650  0.75970  Biso   1.000  H
  H46      1.0000 0.10670  0.10350  0.24030  Biso   1.000  H
  C25      1.0000 0.13380  0.96350  0.77970  Biso   1.000  C
  C26      1.0000 0.86620  0.03650  0.22030  Biso   1.000  C
  H47      1.0000 0.22280  0.03460  0.83420  Biso   1.000  H
  H48      1.0000 0.77720  0.96540  0.16580  Biso   1.000  H
  H49      1.0000 0.14990  0.98370  0.71570  Biso   1.000  H
  H50      1.0000 0.85010  0.01630  0.28430  Biso   1.000  H
  C27      1.0000 0.30920  0.38680  0.02670  Biso   1.000  C
  C28      1.0000 0.69080  0.61320  0.97330  Biso   1.000  C
  C29      1.0000 0.59180  0.58670  0.14030  Biso   1.000  C
  C30      1.0000 0.40820  0.41330  0.85970  Biso   1.000  C
  C31      1.0000 0.33780  0.32900  0.43080  Biso   1.000  C
  C32      1.0000 0.66220  0.67100  0.56920  Biso   1.000  C
  H51      1.0000 0.27330  0.35930  0.47380  Biso   1.000  H
  H52      1.0000 0.72670  0.64070  0.52620  Biso   1.000  H
  C33      1.0000 0.44530  0.29490  0.26590  Biso   1.000  C
  C34      1.0000 0.55470  0.70510  0.73410  Biso   1.000  C
  H53      1.0000 0.45920  0.34050  0.21380  Biso   1.000  H
  H54      1.0000 0.54080  0.65950  0.78620  Biso   1.000  H
  H55      1.0000 0.37900  0.19260  0.23400  Biso   1.000  H
  H56      1.0000 0.62100  0.80740  0.76600  Biso   1.000  H
  H57      1.0000 0.54610  0.30510  0.29830  Biso   1.000  H
  H58      1.0000 0.45390  0.69490  0.70170  Biso   1.000  H
  C35      1.0000 0.32630  0.47580  0.32330  Biso   1.000  C
  C36      1.0000 0.67370  0.52420  0.67670  Biso   1.000  C
  H59      1.0000 0.36010  0.48970  0.26110  Biso   1.000  H
  H60      1.0000 0.63990  0.51030  0.73890  Biso   1.000  H
  H61      1.0000 0.37490  0.56670  0.38080  Biso   1.000  H
  H62      1.0000 0.62510  0.43330  0.61920  Biso   1.000  H
  H63      1.0000 0.21370  0.44450  0.31410  Biso   1.000  H
  H64      1.0000 0.78630  0.55550  0.68590  Biso   1.000  H
