data_image0
_cell_length_a       9.1513
_cell_length_b       20.352
_cell_length_c       11.33
_cell_angle_alpha    90
_cell_angle_beta     99.997
_cell_angle_gamma    90

_symmetry_space_group_name_H-M    "P 1"
_symmetry_int_tables_number       1

loop_
  _symmetry_equiv_pos_as_xyz
  'x, y, z'

loop_
  _atom_site_label
  _atom_site_occupancy
  _atom_site_fract_x
  _atom_site_fract_y
  _atom_site_fract_z
  _atom_site_thermal_displace_type
  _atom_site_B_iso_or_equiv
  _atom_site_type_symbol
  Cu1      1.0000 0.45841  0.43364  0.93916  Biso   1.000  Cu
  Cu2      1.0000 0.54159  0.93364  0.56084  Biso   1.000  Cu
  Cu3      1.0000 0.54159  0.56636  0.06084  Biso   1.000  Cu
  Cu4      1.0000 0.45841  0.06636  0.43916  Biso   1.000  Cu
  Ni1      1.0000 0.50000  0.50000  0.50000  Biso   1.000  Ni
  Ni2      1.0000 0.50000  0.00000  0.00000  Biso   1.000  Ni
  N1       1.0000 0.25010  0.39789  0.90450  Biso   1.000  N
  N2       1.0000 0.74990  0.89789  0.59550  Biso   1.000  N
  N3       1.0000 0.74990  0.60211  0.09550  Biso   1.000  N
  N4       1.0000 0.25010  0.10211  0.40450  Biso   1.000  N
  N5       1.0000 0.14010  0.43936  0.85190  Biso   1.000  N
  N6       1.0000 0.85990  0.93936  0.64810  Biso   1.000  N
  N7       1.0000 0.85990  0.56064  0.14810  Biso   1.000  N
  N8       1.0000 0.14010  0.06064  0.35190  Biso   1.000  N
  N9       1.0000 0.42560  0.64962  0.04300  Biso   1.000  N
  N10      1.0000 0.57440  0.14962  0.45700  Biso   1.000  N
  N11      1.0000 0.57440  0.35038  0.95700  Biso   1.000  N
  N12      1.0000 0.42560  0.85038  0.54300  Biso   1.000  N
  N13      1.0000 0.32630  0.66306  0.94070  Biso   1.000  N
  N14      1.0000 0.67370  0.16306  0.55930  Biso   1.000  N
  N15      1.0000 0.67370  0.33694  0.05930  Biso   1.000  N
  N16      1.0000 0.32630  0.83694  0.44070  Biso   1.000  N
  N17      1.0000 0.49360  0.45291  0.75080  Biso   1.000  N
  N18      1.0000 0.50640  0.95291  0.74920  Biso   1.000  N
  N19      1.0000 0.50640  0.54709  0.24920  Biso   1.000  N
  N20      1.0000 0.49360  0.04709  0.25080  Biso   1.000  N
  N21      1.0000 0.24050  0.58482  0.53090  Biso   1.000  N
  N22      1.0000 0.75950  0.08482  0.96910  Biso   1.000  N
  N23      1.0000 0.75950  0.41518  0.46910  Biso   1.000  N
  N24      1.0000 0.24050  0.91518  0.03090  Biso   1.000  N
  O1       1.0000 0.37560  0.51908  0.96890  Biso   1.000  O
  O2       1.0000 0.62440  0.01908  0.53110  Biso   1.000  O
  O3       1.0000 0.62440  0.48092  0.03110  Biso   1.000  O
  O4       1.0000 0.37560  0.98092  0.46890  Biso   1.000  O
  O5       1.0000 0.12220  0.12580  0.74370  Biso   1.000  O
  O6       1.0000 0.87780  0.62580  0.75630  Biso   1.000  O
  O7       1.0000 0.87780  0.87420  0.25630  Biso   1.000  O
  O8       1.0000 0.12220  0.37420  0.24370  Biso   1.000  O
  H1       1.0000 0.08930  0.13300  0.80530  Biso   1.000  H
  H2       1.0000 0.91070  0.63300  0.69470  Biso   1.000  H
  H3       1.0000 0.91070  0.86700  0.19470  Biso   1.000  H
  H4       1.0000 0.08930  0.36700  0.30530  Biso   1.000  H
  O9       1.0000 0.16070  0.16040  0.76090  Biso   1.000  O
  O10      1.0000 0.83930  0.66040  0.73910  Biso   1.000  O
  O11      1.0000 0.83930  0.83960  0.23910  Biso   1.000  O
  O12      1.0000 0.16070  0.33960  0.26090  Biso   1.000  O
  H5       1.0000 0.10790  0.15240  0.81070  Biso   1.000  H
  H6       1.0000 0.89210  0.65240  0.68930  Biso   1.000  H
  H7       1.0000 0.89210  0.84760  0.18930  Biso   1.000  H
  H8       1.0000 0.10790  0.34760  0.31070  Biso   1.000  H
  O13      1.0000 0.03120  0.14333  0.95720  Biso   1.000  O
  O14      1.0000 0.96880  0.64333  0.54280  Biso   1.000  O
  O15      1.0000 0.96880  0.85667  0.04280  Biso   1.000  O
  O16      1.0000 0.03120  0.35667  0.45720  Biso   1.000  O
  H9       1.0000 0.94890  0.12680  0.95360  Biso   1.000  H
  H10      1.0000 0.05110  0.62680  0.54640  Biso   1.000  H
  H11      1.0000 0.05110  0.87320  0.04640  Biso   1.000  H
  H12      1.0000 0.94890  0.37320  0.45360  Biso   1.000  H
  C1       1.0000 0.18090  0.34540  0.94000  Biso   1.000  C
  C2       1.0000 0.81910  0.84540  0.56000  Biso   1.000  C
  C3       1.0000 0.81910  0.65460  0.06000  Biso   1.000  C
  C4       1.0000 0.18090  0.15460  0.44000  Biso   1.000  C
  C5       1.0000 0.02770  0.35350  0.90800  Biso   1.000  C
  C6       1.0000 0.97230  0.85350  0.59200  Biso   1.000  C
  C7       1.0000 0.97230  0.64650  0.09200  Biso   1.000  C
  C8       1.0000 0.02770  0.14650  0.40800  Biso   1.000  C
  H13      1.0000 0.95500  0.32400  0.92180  Biso   1.000  H
  H14      1.0000 0.04500  0.82400  0.57820  Biso   1.000  H
  H15      1.0000 0.04500  0.67600  0.07820  Biso   1.000  H
  H16      1.0000 0.95500  0.17600  0.42180  Biso   1.000  H
  C9       1.0000 0.00540  0.41260  0.85320  Biso   1.000  C
  C10      1.0000 0.99460  0.91260  0.64680  Biso   1.000  C
  C11      1.0000 0.99460  0.58740  0.14680  Biso   1.000  C
  C12      1.0000 0.00540  0.08740  0.35320  Biso   1.000  C
  C13      1.0000 0.86410  0.44640  0.80020  Biso   1.000  C
  C14      1.0000 0.13590  0.94640  0.69980  Biso   1.000  C
  C15      1.0000 0.13590  0.55360  0.19980  Biso   1.000  C
  C16      1.0000 0.86410  0.05360  0.30020  Biso   1.000  C
  H17      1.0000 0.85800  0.48780  0.83940  Biso   1.000  H
  H18      1.0000 0.14200  0.98780  0.66060  Biso   1.000  H
  H19      1.0000 0.14200  0.51220  0.16060  Biso   1.000  H
  H20      1.0000 0.85800  0.01220  0.33940  Biso   1.000  H
  H21      1.0000 0.78130  0.41940  0.81100  Biso   1.000  H
  H22      1.0000 0.21870  0.91940  0.68900  Biso   1.000  H
  H23      1.0000 0.21870  0.58060  0.18900  Biso   1.000  H
  H24      1.0000 0.78130  0.08060  0.31100  Biso   1.000  H
  H25      1.0000 0.86220  0.45350  0.71620  Biso   1.000  H
  H26      1.0000 0.13780  0.95350  0.78380  Biso   1.000  H
  H27      1.0000 0.13780  0.54650  0.28380  Biso   1.000  H
  H28      1.0000 0.86220  0.04650  0.21620  Biso   1.000  H
  C17      1.0000 0.49990  0.46955  0.65570  Biso   1.000  C
  C18      1.0000 0.50010  0.96955  0.84430  Biso   1.000  C
  C19      1.0000 0.50010  0.53045  0.34430  Biso   1.000  C
  C20      1.0000 0.49990  0.03045  0.15570  Biso   1.000  C
  C21      1.0000 0.33890  0.55350  0.51760  Biso   1.000  C
  C22      1.0000 0.66110  0.05350  0.98240  Biso   1.000  C
  C23      1.0000 0.66110  0.44650  0.48240  Biso   1.000  C
  C24      1.0000 0.33890  0.94650  0.01760  Biso   1.000  C
  C25      1.0000 0.26010  0.28890  0.00510  Biso   1.000  C
  C26      1.0000 0.73990  0.78890  0.49490  Biso   1.000  C
  C27      1.0000 0.73990  0.71110  0.99490  Biso   1.000  C
  C28      1.0000 0.26010  0.21110  0.50510  Biso   1.000  C
  H29      1.0000 0.28050  0.25660  0.94850  Biso   1.000  H
  H30      1.0000 0.71950  0.75660  0.55150  Biso   1.000  H
  H31      1.0000 0.71950  0.74340  0.05150  Biso   1.000  H
  H32      1.0000 0.28050  0.24340  0.44850  Biso   1.000  H
  H33      1.0000 0.19930  0.26980  0.05710  Biso   1.000  H
  H34      1.0000 0.80070  0.76980  0.44290  Biso   1.000  H
  H35      1.0000 0.80070  0.73020  0.94290  Biso   1.000  H
  H36      1.0000 0.19930  0.23020  0.55710  Biso   1.000  H
  H37      1.0000 0.35170  0.30380  0.05190  Biso   1.000  H
  H38      1.0000 0.64830  0.80380  0.44810  Biso   1.000  H
  H39      1.0000 0.64830  0.69620  0.94810  Biso   1.000  H
  H40      1.0000 0.35170  0.19620  0.55190  Biso   1.000  H
  C29      1.0000 0.15510  0.75170  0.84720  Biso   1.000  C
  C30      1.0000 0.84490  0.25170  0.65280  Biso   1.000  C
  C31      1.0000 0.84490  0.24830  0.15280  Biso   1.000  C
  C32      1.0000 0.15510  0.74830  0.34720  Biso   1.000  C
  H41      1.0000 0.06480  0.72690  0.84000  Biso   1.000  H
  H42      1.0000 0.93520  0.22690  0.66000  Biso   1.000  H
  H43      1.0000 0.93520  0.27310  0.16000  Biso   1.000  H
  H44      1.0000 0.06480  0.77310  0.34000  Biso   1.000  H
  H45      1.0000 0.13610  0.79660  0.86530  Biso   1.000  H
  H46      1.0000 0.86390  0.29660  0.63470  Biso   1.000  H
  H47      1.0000 0.86390  0.20340  0.13470  Biso   1.000  H
  H48      1.0000 0.13610  0.70340  0.36530  Biso   1.000  H
  H49      1.0000 0.19220  0.74960  0.77300  Biso   1.000  H
  H50      1.0000 0.80780  0.24960  0.72700  Biso   1.000  H
  H51      1.0000 0.80780  0.25040  0.22700  Biso   1.000  H
  H52      1.0000 0.19220  0.75040  0.27300  Biso   1.000  H
  C33      1.0000 0.26820  0.72334  0.94600  Biso   1.000  C
  C34      1.0000 0.73180  0.22334  0.55400  Biso   1.000  C
  C35      1.0000 0.73180  0.27666  0.05400  Biso   1.000  C
  C36      1.0000 0.26820  0.77666  0.44600  Biso   1.000  C
  C37      1.0000 0.33150  0.75030  0.05350  Biso   1.000  C
  C38      1.0000 0.66850  0.25030  0.44650  Biso   1.000  C
  C39      1.0000 0.66850  0.24970  0.94650  Biso   1.000  C
  C40      1.0000 0.33150  0.74970  0.55350  Biso   1.000  C
  H53      1.0000 0.31370  0.79190  0.08190  Biso   1.000  H
  H54      1.0000 0.68630  0.29190  0.41810  Biso   1.000  H
  H55      1.0000 0.68630  0.20810  0.91810  Biso   1.000  H
  H56      1.0000 0.31370  0.70810  0.58190  Biso   1.000  H
  C41      1.0000 0.42740  0.70315  0.11150  Biso   1.000  C
  C42      1.0000 0.57260  0.20315  0.38850  Biso   1.000  C
  C43      1.0000 0.57260  0.29685  0.88850  Biso   1.000  C
  C44      1.0000 0.42740  0.79685  0.61150  Biso   1.000  C
  C45      1.0000 0.52370  0.70740  0.23270  Biso   1.000  C
  C46      1.0000 0.47630  0.20740  0.26730  Biso   1.000  C
  C47      1.0000 0.47630  0.29260  0.76730  Biso   1.000  C
  C48      1.0000 0.52370  0.79260  0.73270  Biso   1.000  C
  H57      1.0000 0.62280  0.69410  0.22700  Biso   1.000  H
  H58      1.0000 0.37720  0.19410  0.27300  Biso   1.000  H
  H59      1.0000 0.37720  0.30590  0.77300  Biso   1.000  H
  H60      1.0000 0.62280  0.80590  0.72700  Biso   1.000  H
  H61      1.0000 0.52480  0.75190  0.26120  Biso   1.000  H
  H62      1.0000 0.47520  0.25190  0.23880  Biso   1.000  H
  H63      1.0000 0.47520  0.24810  0.73880  Biso   1.000  H
  H64      1.0000 0.52480  0.74810  0.76120  Biso   1.000  H
  H65      1.0000 0.48490  0.67900  0.28750  Biso   1.000  H
  H66      1.0000 0.51510  0.17900  0.21250  Biso   1.000  H
  H67      1.0000 0.51510  0.32100  0.71250  Biso   1.000  H
  H68      1.0000 0.48490  0.82100  0.78750  Biso   1.000  H
  C49      1.0000 0.28690  0.61292  0.84920  Biso   1.000  C
  C50      1.0000 0.71310  0.11292  0.65080  Biso   1.000  C
  C51      1.0000 0.71310  0.38708  0.15080  Biso   1.000  C
  C52      1.0000 0.28690  0.88708  0.34920  Biso   1.000  C
  H69      1.0000 0.20320  0.62800  0.79100  Biso   1.000  H
  H70      1.0000 0.79680  0.12800  0.70900  Biso   1.000  H
  H71      1.0000 0.79680  0.37200  0.20900  Biso   1.000  H
  H72      1.0000 0.20320  0.87200  0.29100  Biso   1.000  H
  H73      1.0000 0.36980  0.60600  0.80760  Biso   1.000  H
  H74      1.0000 0.63020  0.10600  0.69240  Biso   1.000  H
  H75      1.0000 0.63020  0.39400  0.19240  Biso   1.000  H
  H76      1.0000 0.36980  0.89400  0.30760  Biso   1.000  H
  C53      1.0000 0.17520  0.50240  0.80410  Biso   1.000  C
  C54      1.0000 0.82480  0.00240  0.69590  Biso   1.000  C
  C55      1.0000 0.82480  0.49760  0.19590  Biso   1.000  C
  C56      1.0000 0.17520  0.99760  0.30410  Biso   1.000  C
  H77      1.0000 0.08490  0.52240  0.76160  Biso   1.000  H
  H78      1.0000 0.91510  0.02240  0.73840  Biso   1.000  H
  H79      1.0000 0.91510  0.47760  0.23840  Biso   1.000  H
  H80      1.0000 0.08490  0.97760  0.26160  Biso   1.000  H
  H81      1.0000 0.24190  0.49580  0.74730  Biso   1.000  H
  H82      1.0000 0.75810  0.99580  0.75270  Biso   1.000  H
  H83      1.0000 0.75810  0.50420  0.25270  Biso   1.000  H
  H84      1.0000 0.24190  0.00420  0.24730  Biso   1.000  H
  C57      1.0000 0.24710  0.54833  0.90270  Biso   1.000  C
  C58      1.0000 0.75290  0.04833  0.59730  Biso   1.000  C
  C59      1.0000 0.75290  0.45167  0.09730  Biso   1.000  C
  C60      1.0000 0.24710  0.95167  0.40270  Biso   1.000  C
  H85      1.0000 0.17660  0.55700  0.95680  Biso   1.000  H
  H86      1.0000 0.82340  0.05700  0.54320  Biso   1.000  H
  H87      1.0000 0.82340  0.44300  0.04320  Biso   1.000  H
  H88      1.0000 0.17660  0.94300  0.45680  Biso   1.000  H
  C61      1.0000 0.28030  0.11410  0.77330  Biso   1.000  C
  C62      1.0000 0.71970  0.61410  0.72670  Biso   1.000  C
  C63      1.0000 0.71970  0.88590  0.22670  Biso   1.000  C
  C64      1.0000 0.28030  0.38590  0.27330  Biso   1.000  C
  H89      1.0000 0.32980  0.15400  0.80220  Biso   1.000  H
  H90      1.0000 0.67020  0.65400  0.69780  Biso   1.000  H
  H91      1.0000 0.67020  0.84600  0.19780  Biso   1.000  H
  H92      1.0000 0.32980  0.34600  0.30220  Biso   1.000  H
  H93      1.0000 0.31640  0.09960  0.70300  Biso   1.000  H
  H94      1.0000 0.68360  0.59960  0.79700  Biso   1.000  H
  H95      1.0000 0.68360  0.90040  0.29700  Biso   1.000  H
  H96      1.0000 0.31640  0.40040  0.20300  Biso   1.000  H
  H97      1.0000 0.29960  0.08090  0.83420  Biso   1.000  H
  H98      1.0000 0.70040  0.58090  0.66580  Biso   1.000  H
  H99      1.0000 0.70040  0.91910  0.16580  Biso   1.000  H
  H100     1.0000 0.29960  0.41910  0.33420  Biso   1.000  H
  H101     1.0000 0.36980  0.13490  0.81240  Biso   1.000  H
  H102     1.0000 0.63020  0.63490  0.68760  Biso   1.000  H
  H103     1.0000 0.63020  0.86510  0.18760  Biso   1.000  H
  H104     1.0000 0.36980  0.36510  0.31240  Biso   1.000  H
  H105     1.0000 0.29260  0.09980  0.69480  Biso   1.000  H
  H106     1.0000 0.70740  0.59980  0.80520  Biso   1.000  H
  H107     1.0000 0.70740  0.90020  0.30520  Biso   1.000  H
  H108     1.0000 0.29260  0.40020  0.19480  Biso   1.000  H
  H109     1.0000 0.25920  0.07680  0.81950  Biso   1.000  H
  H110     1.0000 0.74080  0.57680  0.68050  Biso   1.000  H
  H111     1.0000 0.74080  0.92320  0.18050  Biso   1.000  H
  H112     1.0000 0.25920  0.42320  0.31950  Biso   1.000  H
  C65      1.0000 0.13010  0.11540  0.05330  Biso   1.000  C
  C66      1.0000 0.86990  0.61540  0.44670  Biso   1.000  C
  C67      1.0000 0.86990  0.88460  0.94670  Biso   1.000  C
  C68      1.0000 0.13010  0.38460  0.55330  Biso   1.000  C
  H113     1.0000 0.23020  0.12580  0.04530  Biso   1.000  H
  H114     1.0000 0.76980  0.62580  0.45470  Biso   1.000  H
  H115     1.0000 0.76980  0.87420  0.95470  Biso   1.000  H
  H116     1.0000 0.23020  0.37420  0.54530  Biso   1.000  H
  H117     1.0000 0.11750  0.06860  0.05260  Biso   1.000  H
  H118     1.0000 0.88250  0.56860  0.44740  Biso   1.000  H
  H119     1.0000 0.88250  0.93140  0.94740  Biso   1.000  H
  H120     1.0000 0.11750  0.43140  0.55260  Biso   1.000  H
  H121     1.0000 0.11000  0.13280  0.12760  Biso   1.000  H
  H122     1.0000 0.89000  0.63280  0.37240  Biso   1.000  H
  H123     1.0000 0.89000  0.86720  0.87240  Biso   1.000  H
  H124     1.0000 0.11000  0.36720  0.62760  Biso   1.000  H
