data_image0
_cell_length_a       17.171
_cell_length_b       13.309
_cell_length_c       21.372
_cell_angle_alpha    90
_cell_angle_beta     112.45
_cell_angle_gamma    90

_symmetry_space_group_name_H-M    "P 1"
_symmetry_int_tables_number       1

loop_
  _symmetry_equiv_pos_as_xyz
  'x, y, z'

loop_
  _atom_site_label
  _atom_site_occupancy
  _atom_site_fract_x
  _atom_site_fract_y
  _atom_site_fract_z
  _atom_site_thermal_displace_type
  _atom_site_B_iso_or_equiv
  _atom_site_type_symbol
  Cu1      1.0000 0.61231  0.29982  0.28748  Biso   1.000  Cu
  Cu2      1.0000 0.38769  0.29982  0.21252  Biso   1.000  Cu
  Cu3      1.0000 0.11231  0.79982  0.28748  Biso   1.000  Cu
  Cu4      1.0000 0.88769  0.79982  0.21252  Biso   1.000  Cu
  Cu5      1.0000 0.38769  0.70018  0.71252  Biso   1.000  Cu
  Cu6      1.0000 0.61231  0.70018  0.78748  Biso   1.000  Cu
  Cu7      1.0000 0.88769  0.20018  0.71252  Biso   1.000  Cu
  Cu8      1.0000 0.11231  0.20018  0.78748  Biso   1.000  Cu
  O1       1.0000 0.55130  0.18880  0.33360  Biso   1.000  O
  O2       1.0000 0.44870  0.18880  0.16640  Biso   1.000  O
  O3       1.0000 0.05130  0.68880  0.33360  Biso   1.000  O
  O4       1.0000 0.94870  0.68880  0.16640  Biso   1.000  O
  O5       1.0000 0.44870  0.81120  0.66640  Biso   1.000  O
  O6       1.0000 0.55130  0.81120  0.83360  Biso   1.000  O
  O7       1.0000 0.94870  0.31120  0.66640  Biso   1.000  O
  O8       1.0000 0.05130  0.31120  0.83360  Biso   1.000  O
  O9       1.0000 0.41330  0.22660  0.29660  Biso   1.000  O
  O10      1.0000 0.58670  0.22660  0.20340  Biso   1.000  O
  O11      1.0000 0.91330  0.72660  0.29660  Biso   1.000  O
  O12      1.0000 0.08670  0.72660  0.20340  Biso   1.000  O
  O13      1.0000 0.58670  0.77340  0.70340  Biso   1.000  O
  O14      1.0000 0.41330  0.77340  0.79660  Biso   1.000  O
  O15      1.0000 0.08670  0.27340  0.70340  Biso   1.000  O
  O16      1.0000 0.91330  0.27340  0.79660  Biso   1.000  O
  O17      1.0000 0.50000  0.37710  0.25000  Biso   1.000  O
  O18      1.0000 0.00000  0.87710  0.25000  Biso   1.000  O
  O19      1.0000 0.50000  0.62290  0.75000  Biso   1.000  O
  O20      1.0000 1.00000  0.12290  0.75000  Biso   1.000  O
  O21      1.0000 0.64800  0.37750  0.37030  Biso   1.000  O
  O22      1.0000 0.35200  0.37750  0.12970  Biso   1.000  O
  O23      1.0000 0.14800  0.87750  0.37030  Biso   1.000  O
  O24      1.0000 0.85200  0.87750  0.12970  Biso   1.000  O
  O25      1.0000 0.35200  0.62250  0.62970  Biso   1.000  O
  O26      1.0000 0.64800  0.62250  0.87030  Biso   1.000  O
  O27      1.0000 0.85200  0.12250  0.62970  Biso   1.000  O
  O28      1.0000 0.14800  0.12250  0.87030  Biso   1.000  O
  O29      1.0000 0.53890  0.47350  0.36150  Biso   1.000  O
  O30      1.0000 0.46110  0.47350  0.13850  Biso   1.000  O
  O31      1.0000 0.03890  0.97350  0.36150  Biso   1.000  O
  O32      1.0000 0.96110  0.97350  0.13850  Biso   1.000  O
  O33      1.0000 0.46110  0.52650  0.63850  Biso   1.000  O
  O34      1.0000 0.53890  0.52650  0.86150  Biso   1.000  O
  O35      1.0000 0.96110  0.02650  0.63850  Biso   1.000  O
  O36      1.0000 0.03890  0.02650  0.86150  Biso   1.000  O
  N1       1.0000 0.72950  0.23950  0.32130  Biso   1.000  N
  N2       1.0000 0.27050  0.23950  0.17870  Biso   1.000  N
  N3       1.0000 0.22950  0.73950  0.32130  Biso   1.000  N
  N4       1.0000 0.77050  0.73950  0.17870  Biso   1.000  N
  N5       1.0000 0.27050  0.76050  0.67870  Biso   1.000  N
  N6       1.0000 0.72950  0.76050  0.82130  Biso   1.000  N
  N7       1.0000 0.77050  0.26050  0.67870  Biso   1.000  N
  N8       1.0000 0.22950  0.26050  0.82130  Biso   1.000  N
  Cl1      1.0000 0.56440  0.08270  0.45350  Biso   1.000  Cl
  Cl2      1.0000 0.43560  0.08270  0.04650  Biso   1.000  Cl
  Cl3      1.0000 0.06440  0.58270  0.45350  Biso   1.000  Cl
  Cl4      1.0000 0.93560  0.58270  0.04650  Biso   1.000  Cl
  Cl5      1.0000 0.43560  0.91730  0.54650  Biso   1.000  Cl
  Cl6      1.0000 0.56440  0.91730  0.95350  Biso   1.000  Cl
  Cl7      1.0000 0.93560  0.41730  0.54650  Biso   1.000  Cl
  Cl8      1.0000 0.06440  0.41730  0.95350  Biso   1.000  Cl
  Cl9      1.0000 0.39550  0.04100  0.36700  Biso   1.000  Cl
  Cl10     1.0000 0.60450  0.04100  0.13300  Biso   1.000  Cl
  Cl11     1.0000 0.89550  0.54100  0.36700  Biso   1.000  Cl
  Cl12     1.0000 0.10450  0.54100  0.13300  Biso   1.000  Cl
  Cl13     1.0000 0.60450  0.95900  0.63300  Biso   1.000  Cl
  Cl14     1.0000 0.39550  0.95900  0.86700  Biso   1.000  Cl
  Cl15     1.0000 0.10450  0.45900  0.63300  Biso   1.000  Cl
  Cl16     1.0000 0.89550  0.45900  0.86700  Biso   1.000  Cl
  Cl17     1.0000 0.43590  0.22360  0.44130  Biso   1.000  Cl
  Cl18     1.0000 0.56410  0.22360  0.05870  Biso   1.000  Cl
  Cl19     1.0000 0.93590  0.72360  0.44130  Biso   1.000  Cl
  Cl20     1.0000 0.06410  0.72360  0.05870  Biso   1.000  Cl
  Cl21     1.0000 0.56410  0.77640  0.55870  Biso   1.000  Cl
  Cl22     1.0000 0.43590  0.77640  0.94130  Biso   1.000  Cl
  Cl23     1.0000 0.06410  0.27640  0.55870  Biso   1.000  Cl
  Cl24     1.0000 0.93590  0.27640  0.94130  Biso   1.000  Cl
  Cl25     1.0000 0.71620  0.38180  0.51790  Biso   1.000  Cl
  Cl26     1.0000 0.28380  0.38180  0.98210  Biso   1.000  Cl
  Cl27     1.0000 0.21620  0.88180  0.51790  Biso   1.000  Cl
  Cl28     1.0000 0.78380  0.88180  0.98210  Biso   1.000  Cl
  Cl29     1.0000 0.28380  0.61820  0.48210  Biso   1.000  Cl
  Cl30     1.0000 0.71620  0.61820  0.01790  Biso   1.000  Cl
  Cl31     1.0000 0.78380  0.11820  0.48210  Biso   1.000  Cl
  Cl32     1.0000 0.21620  0.11820  0.01790  Biso   1.000  Cl
  Cl33     1.0000 0.60030  0.54110  0.50000  Biso   1.000  Cl
  Cl34     1.0000 0.39970  0.54110  0.00000  Biso   1.000  Cl
  Cl35     1.0000 0.10030  0.04110  0.50000  Biso   1.000  Cl
  Cl36     1.0000 0.89970  0.04110  0.00000  Biso   1.000  Cl
  Cl37     1.0000 0.39970  0.45890  0.50000  Biso   1.000  Cl
  Cl38     1.0000 0.60030  0.45890  0.00000  Biso   1.000  Cl
  Cl39     1.0000 0.89970  0.95890  0.50000  Biso   1.000  Cl
  Cl40     1.0000 0.10030  0.95890  0.00000  Biso   1.000  Cl
  Cl41     1.0000 0.73900  0.56070  0.45550  Biso   1.000  Cl
  Cl42     1.0000 0.26100  0.56070  0.04450  Biso   1.000  Cl
  Cl43     1.0000 0.23900  0.06070  0.45550  Biso   1.000  Cl
  Cl44     1.0000 0.76100  0.06070  0.04450  Biso   1.000  Cl
  Cl45     1.0000 0.26100  0.43930  0.54450  Biso   1.000  Cl
  Cl46     1.0000 0.73900  0.43930  0.95550  Biso   1.000  Cl
  Cl47     1.0000 0.76100  0.93930  0.54450  Biso   1.000  Cl
  Cl48     1.0000 0.23900  0.93930  0.95550  Biso   1.000  Cl
  C1       1.0000 0.48220  0.18920  0.33590  Biso   1.000  C
  C2       1.0000 0.51780  0.18920  0.16410  Biso   1.000  C
  C3       1.0000 0.98220  0.68920  0.33590  Biso   1.000  C
  C4       1.0000 0.01780  0.68920  0.16410  Biso   1.000  C
  C5       1.0000 0.51780  0.81080  0.66410  Biso   1.000  C
  C6       1.0000 0.48220  0.81080  0.83590  Biso   1.000  C
  C7       1.0000 0.01780  0.31080  0.66410  Biso   1.000  C
  C8       1.0000 0.98220  0.31080  0.83590  Biso   1.000  C
  C9       1.0000 0.47090  0.13450  0.39720  Biso   1.000  C
  C10      1.0000 0.52910  0.13450  0.10280  Biso   1.000  C
  C11      1.0000 0.97090  0.63450  0.39720  Biso   1.000  C
  C12      1.0000 0.02910  0.63450  0.10280  Biso   1.000  C
  C13      1.0000 0.52910  0.86550  0.60280  Biso   1.000  C
  C14      1.0000 0.47090  0.86550  0.89720  Biso   1.000  C
  C15      1.0000 0.02910  0.36550  0.60280  Biso   1.000  C
  C16      1.0000 0.97090  0.36550  0.89720  Biso   1.000  C
  C17      1.0000 0.60960  0.43850  0.39120  Biso   1.000  C
  C18      1.0000 0.39040  0.43850  0.10880  Biso   1.000  C
  C19      1.0000 0.10960  0.93850  0.39120  Biso   1.000  C
  C20      1.0000 0.89040  0.93850  0.10880  Biso   1.000  C
  C21      1.0000 0.39040  0.56150  0.60880  Biso   1.000  C
  C22      1.0000 0.60960  0.56150  0.89120  Biso   1.000  C
  C23      1.0000 0.89040  0.06150  0.60880  Biso   1.000  C
  C24      1.0000 0.10960  0.06150  0.89120  Biso   1.000  C
  C25      1.0000 0.66170  0.47880  0.46440  Biso   1.000  C
  C26      1.0000 0.33830  0.47880  0.03560  Biso   1.000  C
  C27      1.0000 0.16170  0.97880  0.46440  Biso   1.000  C
  C28      1.0000 0.83830  0.97880  0.03560  Biso   1.000  C
  C29      1.0000 0.33830  0.52120  0.53560  Biso   1.000  C
  C30      1.0000 0.66170  0.52120  0.96440  Biso   1.000  C
  C31      1.0000 0.83830  0.02120  0.53560  Biso   1.000  C
  C32      1.0000 0.16170  0.02120  0.96440  Biso   1.000  C
  C33      1.0000 0.74210  0.14910  0.29840  Biso   1.000  C
  C34      1.0000 0.25790  0.14910  0.20160  Biso   1.000  C
  C35      1.0000 0.24210  0.64910  0.29840  Biso   1.000  C
  C36      1.0000 0.75790  0.64910  0.20160  Biso   1.000  C
  C37      1.0000 0.25790  0.85090  0.70160  Biso   1.000  C
  C38      1.0000 0.74210  0.85090  0.79840  Biso   1.000  C
  C39      1.0000 0.75790  0.35090  0.70160  Biso   1.000  C
  C40      1.0000 0.24210  0.35090  0.79840  Biso   1.000  C
  C41      1.0000 0.82140  0.10990  0.31540  Biso   1.000  C
  C42      1.0000 0.17860  0.10990  0.18460  Biso   1.000  C
  C43      1.0000 0.32140  0.60990  0.31540  Biso   1.000  C
  C44      1.0000 0.67860  0.60990  0.18460  Biso   1.000  C
  C45      1.0000 0.17860  0.89010  0.68460  Biso   1.000  C
  C46      1.0000 0.82140  0.89010  0.81540  Biso   1.000  C
  C47      1.0000 0.67860  0.39010  0.68460  Biso   1.000  C
  C48      1.0000 0.32140  0.39010  0.81540  Biso   1.000  C
  C49      1.0000 0.89190  0.16020  0.35870  Biso   1.000  C
  C50      1.0000 0.10810  0.16020  0.14130  Biso   1.000  C
  C51      1.0000 0.39190  0.66020  0.35870  Biso   1.000  C
  C52      1.0000 0.60810  0.66020  0.14130  Biso   1.000  C
  C53      1.0000 0.10810  0.83980  0.64130  Biso   1.000  C
  C54      1.0000 0.89190  0.83980  0.85870  Biso   1.000  C
  C55      1.0000 0.60810  0.33980  0.64130  Biso   1.000  C
  C56      1.0000 0.39190  0.33980  0.85870  Biso   1.000  C
  C57      1.0000 0.87890  0.25400  0.38000  Biso   1.000  C
  C58      1.0000 0.12110  0.25400  0.12000  Biso   1.000  C
  C59      1.0000 0.37890  0.75400  0.38000  Biso   1.000  C
  C60      1.0000 0.62110  0.75400  0.12000  Biso   1.000  C
  C61      1.0000 0.12110  0.74600  0.62000  Biso   1.000  C
  C62      1.0000 0.87890  0.74600  0.88000  Biso   1.000  C
  C63      1.0000 0.62110  0.24600  0.62000  Biso   1.000  C
  C64      1.0000 0.37890  0.24600  0.88000  Biso   1.000  C
  C65      1.0000 0.79690  0.28950  0.36090  Biso   1.000  C
  C66      1.0000 0.20310  0.28950  0.13910  Biso   1.000  C
  C67      1.0000 0.29690  0.78950  0.36090  Biso   1.000  C
  C68      1.0000 0.70310  0.78950  0.13910  Biso   1.000  C
  C69      1.0000 0.20310  0.71050  0.63910  Biso   1.000  C
  C70      1.0000 0.79690  0.71050  0.86090  Biso   1.000  C
  C71      1.0000 0.70310  0.21050  0.63910  Biso   1.000  C
  C72      1.0000 0.29690  0.21050  0.86090  Biso   1.000  C
  C73      1.0000 0.83080  0.01310  0.28710  Biso   1.000  C
  C74      1.0000 0.16920  0.01310  0.21290  Biso   1.000  C
  C75      1.0000 0.33080  0.51310  0.28710  Biso   1.000  C
  C76      1.0000 0.66920  0.51310  0.21290  Biso   1.000  C
  C77      1.0000 0.16920  0.98690  0.71290  Biso   1.000  C
  C78      1.0000 0.83080  0.98690  0.78710  Biso   1.000  C
  C79      1.0000 0.66920  0.48690  0.71290  Biso   1.000  C
  C80      1.0000 0.33080  0.48690  0.78710  Biso   1.000  C
  N9       1.0000 0.83690  0.94060  0.26210  Biso   1.000  N
  N10      1.0000 0.16310  0.94060  0.23790  Biso   1.000  N
  N11      1.0000 0.33690  0.44060  0.26210  Biso   1.000  N
  N12      1.0000 0.66310  0.44060  0.23790  Biso   1.000  N
  N13      1.0000 0.16310  0.05940  0.73790  Biso   1.000  N
  N14      1.0000 0.83690  0.05940  0.76210  Biso   1.000  N
  N15      1.0000 0.66310  0.55940  0.73790  Biso   1.000  N
  N16      1.0000 0.33690  0.55940  0.76210  Biso   1.000  N
  C81      1.0000 0.87700  0.34700  0.18400  Biso   1.000  C
  C82      1.0000 0.12300  0.34700  0.31600  Biso   1.000  C
  C83      1.0000 0.37700  0.84700  0.18400  Biso   1.000  C
  C84      1.0000 0.62300  0.84700  0.31600  Biso   1.000  C
  C85      1.0000 0.12300  0.65300  0.81600  Biso   1.000  C
  C86      1.0000 0.87700  0.65300  0.68400  Biso   1.000  C
  C87      1.0000 0.62300  0.15300  0.81600  Biso   1.000  C
  C88      1.0000 0.37700  0.15300  0.68400  Biso   1.000  C
  Cl49     1.0000 0.90250  0.30630  0.11140  Biso   1.000  Cl
  Cl50     1.0000 0.09750  0.30630  0.38860  Biso   1.000  Cl
  Cl51     1.0000 0.40250  0.80630  0.11140  Biso   1.000  Cl
  Cl52     1.0000 0.59750  0.80630  0.38860  Biso   1.000  Cl
  Cl53     1.0000 0.09750  0.69370  0.88860  Biso   1.000  Cl
  Cl54     1.0000 0.90250  0.69370  0.61140  Biso   1.000  Cl
  Cl55     1.0000 0.59750  0.19370  0.88860  Biso   1.000  Cl
  Cl56     1.0000 0.40250  0.19370  0.61140  Biso   1.000  Cl
  Cl57     1.0000 0.78280  0.30530  0.16770  Biso   1.000  Cl
  Cl58     1.0000 0.21720  0.30530  0.33230  Biso   1.000  Cl
  Cl59     1.0000 0.28280  0.80530  0.16770  Biso   1.000  Cl
  Cl60     1.0000 0.71720  0.80530  0.33230  Biso   1.000  Cl
  Cl61     1.0000 0.21720  0.69470  0.83230  Biso   1.000  Cl
  Cl62     1.0000 0.78280  0.69470  0.66770  Biso   1.000  Cl
  Cl63     1.0000 0.71720  0.19470  0.83230  Biso   1.000  Cl
  Cl64     1.0000 0.28280  0.19470  0.66770  Biso   1.000  Cl
  Cl65     1.0000 0.92580  0.19900  0.19910  Biso   1.000  Cl
  Cl66     1.0000 0.07420  0.19900  0.30090  Biso   1.000  Cl
  Cl67     1.0000 0.42580  0.69900  0.19910  Biso   1.000  Cl
  Cl68     1.0000 0.57420  0.69900  0.30090  Biso   1.000  Cl
  Cl69     1.0000 0.07420  0.80100  0.80090  Biso   1.000  Cl
  Cl70     1.0000 0.92580  0.80100  0.69910  Biso   1.000  Cl
  Cl71     1.0000 0.57420  0.30100  0.80090  Biso   1.000  Cl
  Cl72     1.0000 0.42580  0.30100  0.69910  Biso   1.000  Cl
  Cl73     1.0000 0.91400  0.44200  0.22100  Biso   1.000  Cl
  Cl74     1.0000 0.08600  0.44200  0.27900  Biso   1.000  Cl
  Cl75     1.0000 0.41400  0.94200  0.22100  Biso   1.000  Cl
  Cl76     1.0000 0.58600  0.94200  0.27900  Biso   1.000  Cl
  Cl77     1.0000 0.08600  0.55800  0.77900  Biso   1.000  Cl
  Cl78     1.0000 0.91400  0.55800  0.72100  Biso   1.000  Cl
  Cl79     1.0000 0.58600  0.05800  0.77900  Biso   1.000  Cl
  Cl80     1.0000 0.41400  0.05800  0.72100  Biso   1.000  Cl
  Cl81     1.0000 0.88000  0.44900  0.16900  Biso   1.000  Cl
  Cl82     1.0000 0.12000  0.44900  0.33100  Biso   1.000  Cl
  Cl83     1.0000 0.38000  0.94900  0.16900  Biso   1.000  Cl
  Cl84     1.0000 0.62000  0.94900  0.33100  Biso   1.000  Cl
  Cl85     1.0000 0.12000  0.55100  0.83100  Biso   1.000  Cl
  Cl86     1.0000 0.88000  0.55100  0.66900  Biso   1.000  Cl
  Cl87     1.0000 0.62000  0.05100  0.83100  Biso   1.000  Cl
  Cl88     1.0000 0.38000  0.05100  0.66900  Biso   1.000  Cl
  H1       1.0000 0.50600  0.40800  0.28600  Biso   1.000  H
  H2       1.0000 0.49400  0.40800  0.21400  Biso   1.000  H
  H3       1.0000 0.00600  0.90800  0.28600  Biso   1.000  H
  H4       1.0000 0.99400  0.90800  0.21400  Biso   1.000  H
  H5       1.0000 0.49400  0.59200  0.71400  Biso   1.000  H
  H6       1.0000 0.50600  0.59200  0.78600  Biso   1.000  H
  H7       1.0000 0.99400  0.09200  0.71400  Biso   1.000  H
  H8       1.0000 0.00600  0.09200  0.78600  Biso   1.000  H
  H9       1.0000 0.68400  0.11300  0.26100  Biso   1.000  H
  H10      1.0000 0.31600  0.11300  0.23900  Biso   1.000  H
  H11      1.0000 0.18400  0.61300  0.26100  Biso   1.000  H
  H12      1.0000 0.81600  0.61300  0.23900  Biso   1.000  H
  H13      1.0000 0.31600  0.88700  0.73900  Biso   1.000  H
  H14      1.0000 0.68400  0.88700  0.76100  Biso   1.000  H
  H15      1.0000 0.81600  0.38700  0.73900  Biso   1.000  H
  H16      1.0000 0.18400  0.38700  0.76100  Biso   1.000  H
  H17      1.0000 0.94500  0.13200  0.36700  Biso   1.000  H
  H18      1.0000 0.05500  0.13200  0.13300  Biso   1.000  H
  H19      1.0000 0.44500  0.63200  0.36700  Biso   1.000  H
  H20      1.0000 0.55500  0.63200  0.13300  Biso   1.000  H
  H21      1.0000 0.05500  0.86800  0.63300  Biso   1.000  H
  H22      1.0000 0.94500  0.86800  0.86700  Biso   1.000  H
  H23      1.0000 0.55500  0.36800  0.63300  Biso   1.000  H
  H24      1.0000 0.44500  0.36800  0.86700  Biso   1.000  H
  H25      1.0000 0.92400  0.28500  0.41100  Biso   1.000  H
  H26      1.0000 0.07600  0.28500  0.08900  Biso   1.000  H
  H27      1.0000 0.42400  0.78500  0.41100  Biso   1.000  H
  H28      1.0000 0.57600  0.78500  0.08900  Biso   1.000  H
  H29      1.0000 0.07600  0.71500  0.58900  Biso   1.000  H
  H30      1.0000 0.92400  0.71500  0.91100  Biso   1.000  H
  H31      1.0000 0.57600  0.21500  0.58900  Biso   1.000  H
  H32      1.0000 0.42400  0.21500  0.91100  Biso   1.000  H
  H33      1.0000 0.77500  0.35100  0.36500  Biso   1.000  H
  H34      1.0000 0.22500  0.35100  0.13500  Biso   1.000  H
  H35      1.0000 0.27500  0.85100  0.36500  Biso   1.000  H
  H36      1.0000 0.72500  0.85100  0.13500  Biso   1.000  H
  H37      1.0000 0.22500  0.64900  0.63500  Biso   1.000  H
  H38      1.0000 0.77500  0.64900  0.86500  Biso   1.000  H
  H39      1.0000 0.72500  0.14900  0.63500  Biso   1.000  H
  H40      1.0000 0.27500  0.14900  0.86500  Biso   1.000  H
