data_image0
_cell_length_a       23.8718
_cell_length_b       35.3906
_cell_length_c       6.7048
_cell_angle_alpha    90
_cell_angle_beta     90
_cell_angle_gamma    90

_symmetry_space_group_name_H-M    "P 1"
_symmetry_int_tables_number       1

loop_
  _symmetry_equiv_pos_as_xyz
  'x, y, z'

loop_
  _atom_site_label
  _atom_site_occupancy
  _atom_site_fract_x
  _atom_site_fract_y
  _atom_site_fract_z
  _atom_site_thermal_displace_type
  _atom_site_B_iso_or_equiv
  _atom_site_type_symbol
  Cu1      1.0000 0.75000  0.47050  0.85218  Biso   1.000  Cu
  Cu2      1.0000 0.25000  0.52950  0.85218  Biso   1.000  Cu
  Cu3      1.0000 0.25000  0.97050  0.35218  Biso   1.000  Cu
  Cu4      1.0000 0.75000  0.02950  0.35218  Biso   1.000  Cu
  Cu5      1.0000 0.25000  0.48624  0.16535  Biso   1.000  Cu
  Cu6      1.0000 0.75000  0.51376  0.16535  Biso   1.000  Cu
  Cu7      1.0000 0.75000  0.98624  0.66535  Biso   1.000  Cu
  Cu8      1.0000 0.25000  0.01376  0.66535  Biso   1.000  Cu
  O1       1.0000 0.69262  0.50624  0.75840  Biso   1.000  O
  O2       1.0000 0.30738  0.49376  0.75840  Biso   1.000  O
  O3       1.0000 0.19262  0.49376  0.75840  Biso   1.000  O
  O4       1.0000 0.80738  0.50624  0.75840  Biso   1.000  O
  O5       1.0000 0.19262  0.00624  0.25840  Biso   1.000  O
  O6       1.0000 0.80738  0.99376  0.25840  Biso   1.000  O
  O7       1.0000 0.69262  0.99376  0.25840  Biso   1.000  O
  O8       1.0000 0.30738  0.00624  0.25840  Biso   1.000  O
  O9       1.0000 0.25000  0.45154  0.42020  Biso   1.000  O
  O10      1.0000 0.75000  0.54846  0.42020  Biso   1.000  O
  O11      1.0000 0.75000  0.95154  0.92020  Biso   1.000  O
  O12      1.0000 0.25000  0.04846  0.92020  Biso   1.000  O
  H1       1.0000 0.28120  0.45180  0.47120  Biso   1.000  H
  H2       1.0000 0.71880  0.54820  0.47120  Biso   1.000  H
  H3       1.0000 0.78120  0.54820  0.47120  Biso   1.000  H
  H4       1.0000 0.21880  0.45180  0.47120  Biso   1.000  H
  H5       1.0000 0.78120  0.95180  0.97120  Biso   1.000  H
  H6       1.0000 0.21880  0.04820  0.97120  Biso   1.000  H
  H7       1.0000 0.28120  0.04820  0.97120  Biso   1.000  H
  H8       1.0000 0.71880  0.95180  0.97120  Biso   1.000  H
  O13      1.0000 0.30698  0.52084  0.25830  Biso   1.000  O
  O14      1.0000 0.69302  0.47916  0.25830  Biso   1.000  O
  O15      1.0000 0.80698  0.47916  0.25830  Biso   1.000  O
  O16      1.0000 0.19302  0.52084  0.25830  Biso   1.000  O
  O17      1.0000 0.80698  0.02084  0.75830  Biso   1.000  O
  O18      1.0000 0.19302  0.97916  0.75830  Biso   1.000  O
  O19      1.0000 0.30698  0.97916  0.75830  Biso   1.000  O
  O20      1.0000 0.69302  0.02084  0.75830  Biso   1.000  O
  O21      1.0000 0.30873  0.55762  0.98840  Biso   1.000  O
  O22      1.0000 0.69127  0.44238  0.98840  Biso   1.000  O
  O23      1.0000 0.80873  0.44238  0.98840  Biso   1.000  O
  O24      1.0000 0.19127  0.55762  0.98840  Biso   1.000  O
  O25      1.0000 0.80873  0.05762  0.48840  Biso   1.000  O
  O26      1.0000 0.19127  0.94238  0.48840  Biso   1.000  O
  O27      1.0000 0.30873  0.94238  0.48840  Biso   1.000  O
  O28      1.0000 0.69127  0.05762  0.48840  Biso   1.000  O
  N1       1.0000 0.51164  0.62761  0.48370  Biso   1.000  N
  N2       1.0000 0.48836  0.37239  0.48370  Biso   1.000  N
  N3       1.0000 0.01164  0.37239  0.48370  Biso   1.000  N
  N4       1.0000 0.98836  0.62761  0.48370  Biso   1.000  N
  N5       1.0000 0.01164  0.12761  0.98370  Biso   1.000  N
  N6       1.0000 0.98836  0.87239  0.98370  Biso   1.000  N
  N7       1.0000 0.51164  0.87239  0.98370  Biso   1.000  N
  N8       1.0000 0.48836  0.12761  0.98370  Biso   1.000  N
  O29      1.0000 0.69193  0.54227  0.02540  Biso   1.000  O
  O30      1.0000 0.30807  0.45773  0.02540  Biso   1.000  O
  O31      1.0000 0.19193  0.45773  0.02540  Biso   1.000  O
  O32      1.0000 0.80807  0.54227  0.02540  Biso   1.000  O
  O33      1.0000 0.19193  0.04227  0.52540  Biso   1.000  O
  O34      1.0000 0.80807  0.95773  0.52540  Biso   1.000  O
  O35      1.0000 0.69193  0.95773  0.52540  Biso   1.000  O
  O36      1.0000 0.30807  0.04227  0.52540  Biso   1.000  O
  O37      1.0000 0.75000  0.43562  0.58830  Biso   1.000  O
  O38      1.0000 0.25000  0.56438  0.58830  Biso   1.000  O
  O39      1.0000 0.25000  0.93562  0.08830  Biso   1.000  O
  O40      1.0000 0.75000  0.06438  0.08830  Biso   1.000  O
  H9       1.0000 0.72320  0.44110  0.51510  Biso   1.000  H
  H10      1.0000 0.27680  0.55890  0.51510  Biso   1.000  H
  H11      1.0000 0.22320  0.55890  0.51510  Biso   1.000  H
  H12      1.0000 0.77680  0.44110  0.51510  Biso   1.000  H
  H13      1.0000 0.22320  0.94110  0.01510  Biso   1.000  H
  H14      1.0000 0.77680  0.05890  0.01510  Biso   1.000  H
  H15      1.0000 0.72320  0.05890  0.01510  Biso   1.000  H
  H16      1.0000 0.27680  0.94110  0.01510  Biso   1.000  H
  C1       1.0000 0.67500  0.53396  0.85440  Biso   1.000  C
  C2       1.0000 0.32500  0.46604  0.85440  Biso   1.000  C
  C3       1.0000 0.17500  0.46604  0.85440  Biso   1.000  C
  C4       1.0000 0.82500  0.53396  0.85440  Biso   1.000  C
  C5       1.0000 0.17500  0.03396  0.35440  Biso   1.000  C
  C6       1.0000 0.82500  0.96604  0.35440  Biso   1.000  C
  C7       1.0000 0.67500  0.96604  0.35440  Biso   1.000  C
  C8       1.0000 0.32500  0.03396  0.35440  Biso   1.000  C
  C9       1.0000 0.46430  0.60885  0.40760  Biso   1.000  C
  C10      1.0000 0.53570  0.39115  0.40760  Biso   1.000  C
  C11      1.0000 0.96430  0.39115  0.40760  Biso   1.000  C
  C12      1.0000 0.03570  0.60885  0.40760  Biso   1.000  C
  C13      1.0000 0.96430  0.10885  0.90760  Biso   1.000  C
  C14      1.0000 0.03570  0.89115  0.90760  Biso   1.000  C
  C15      1.0000 0.46430  0.89115  0.90760  Biso   1.000  C
  C16      1.0000 0.53570  0.10885  0.90760  Biso   1.000  C
  C17      1.0000 0.32700  0.54779  0.15790  Biso   1.000  C
  C18      1.0000 0.67300  0.45221  0.15790  Biso   1.000  C
  C19      1.0000 0.82700  0.45221  0.15790  Biso   1.000  C
  C20      1.0000 0.17300  0.54779  0.15790  Biso   1.000  C
  C21      1.0000 0.82700  0.04779  0.65790  Biso   1.000  C
  C22      1.0000 0.17300  0.95221  0.65790  Biso   1.000  C
  C23      1.0000 0.32700  0.95221  0.65790  Biso   1.000  C
  C24      1.0000 0.67300  0.04779  0.65790  Biso   1.000  C
  C25      1.0000 0.57460  0.57314  0.47320  Biso   1.000  C
  C26      1.0000 0.42540  0.42686  0.47320  Biso   1.000  C
  C27      1.0000 0.07460  0.42686  0.47320  Biso   1.000  C
  C28      1.0000 0.92540  0.57314  0.47320  Biso   1.000  C
  C29      1.0000 0.07460  0.07314  0.97320  Biso   1.000  C
  C30      1.0000 0.92540  0.92686  0.97320  Biso   1.000  C
  C31      1.0000 0.57460  0.92686  0.97320  Biso   1.000  C
  C32      1.0000 0.42540  0.07314  0.97320  Biso   1.000  C
  H17      1.0000 0.56270  0.56790  0.34390  Biso   1.000  H
  H18      1.0000 0.43730  0.43210  0.34390  Biso   1.000  H
  H19      1.0000 0.06270  0.43210  0.34390  Biso   1.000  H
  H20      1.0000 0.93730  0.56790  0.34390  Biso   1.000  H
  H21      1.0000 0.06270  0.06790  0.84390  Biso   1.000  H
  H22      1.0000 0.93730  0.93210  0.84390  Biso   1.000  H
  H23      1.0000 0.56270  0.93210  0.84390  Biso   1.000  H
  H24      1.0000 0.43730  0.06790  0.84390  Biso   1.000  H
  C33      1.0000 0.37370  0.56964  0.24350  Biso   1.000  C
  C34      1.0000 0.62630  0.43036  0.24350  Biso   1.000  C
  C35      1.0000 0.87370  0.43036  0.24350  Biso   1.000  C
  C36      1.0000 0.12630  0.56964  0.24350  Biso   1.000  C
  C37      1.0000 0.87370  0.06964  0.74350  Biso   1.000  C
  C38      1.0000 0.12630  0.93036  0.74350  Biso   1.000  C
  C39      1.0000 0.37370  0.93036  0.74350  Biso   1.000  C
  C40      1.0000 0.62630  0.06964  0.74350  Biso   1.000  C
  C41      1.0000 0.51720  0.66597  0.48480  Biso   1.000  C
  C42      1.0000 0.48280  0.33403  0.48480  Biso   1.000  C
  C43      1.0000 0.01720  0.33403  0.48480  Biso   1.000  C
  C44      1.0000 0.98280  0.66597  0.48480  Biso   1.000  C
  C45      1.0000 0.01720  0.16597  0.98480  Biso   1.000  C
  C46      1.0000 0.98280  0.83403  0.98480  Biso   1.000  C
  C47      1.0000 0.51720  0.83403  0.98480  Biso   1.000  C
  C48      1.0000 0.48280  0.16597  0.98480  Biso   1.000  C
  C49      1.0000 0.55330  0.60413  0.58190  Biso   1.000  C
  C50      1.0000 0.44670  0.39587  0.58190  Biso   1.000  C
  C51      1.0000 0.05330  0.39587  0.58190  Biso   1.000  C
  C52      1.0000 0.94670  0.60413  0.58190  Biso   1.000  C
  C53      1.0000 0.05330  0.10413  0.08190  Biso   1.000  C
  C54      1.0000 0.94670  0.89587  0.08190  Biso   1.000  C
  C55      1.0000 0.55330  0.89587  0.08190  Biso   1.000  C
  C56      1.0000 0.44670  0.10413  0.08190  Biso   1.000  C
  C57      1.0000 0.63170  0.55766  0.75760  Biso   1.000  C
  C58      1.0000 0.36830  0.44234  0.75760  Biso   1.000  C
  C59      1.0000 0.13170  0.44234  0.75760  Biso   1.000  C
  C60      1.0000 0.86830  0.55766  0.75760  Biso   1.000  C
  C61      1.0000 0.13170  0.05766  0.25760  Biso   1.000  C
  C62      1.0000 0.86830  0.94234  0.25760  Biso   1.000  C
  C63      1.0000 0.63170  0.94234  0.25760  Biso   1.000  C
  C64      1.0000 0.36830  0.05766  0.25760  Biso   1.000  C
  C65      1.0000 0.44500  0.61716  0.21380  Biso   1.000  C
  C66      1.0000 0.55500  0.38284  0.21380  Biso   1.000  C
  C67      1.0000 0.94500  0.38284  0.21380  Biso   1.000  C
  C68      1.0000 0.05500  0.61716  0.21380  Biso   1.000  C
  C69      1.0000 0.94500  0.11716  0.71380  Biso   1.000  C
  C70      1.0000 0.05500  0.88284  0.71380  Biso   1.000  C
  C71      1.0000 0.44500  0.88284  0.71380  Biso   1.000  C
  C72      1.0000 0.55500  0.11716  0.71380  Biso   1.000  C
  H25      1.0000 0.46290  0.63550  0.13740  Biso   1.000  H
  H26      1.0000 0.53710  0.36450  0.13740  Biso   1.000  H
  H27      1.0000 0.96290  0.36450  0.13740  Biso   1.000  H
  H28      1.0000 0.03710  0.63550  0.13740  Biso   1.000  H
  H29      1.0000 0.96290  0.13550  0.63740  Biso   1.000  H
  H30      1.0000 0.03710  0.86450  0.63740  Biso   1.000  H
  H31      1.0000 0.46290  0.86450  0.63740  Biso   1.000  H
  H32      1.0000 0.53710  0.13550  0.63740  Biso   1.000  H
  C73      1.0000 0.61050  0.58832  0.85850  Biso   1.000  C
  C74      1.0000 0.38950  0.41168  0.85850  Biso   1.000  C
  C75      1.0000 0.11050  0.41168  0.85850  Biso   1.000  C
  C76      1.0000 0.88950  0.58832  0.85850  Biso   1.000  C
  C77      1.0000 0.11050  0.08832  0.35850  Biso   1.000  C
  C78      1.0000 0.88950  0.91168  0.35850  Biso   1.000  C
  C79      1.0000 0.61050  0.91168  0.35850  Biso   1.000  C
  C80      1.0000 0.38950  0.08832  0.35850  Biso   1.000  C
  H33      1.0000 0.62310  0.59370  0.98650  Biso   1.000  H
  H34      1.0000 0.37690  0.40630  0.98650  Biso   1.000  H
  H35      1.0000 0.12310  0.40630  0.98650  Biso   1.000  H
  H36      1.0000 0.87690  0.59370  0.98650  Biso   1.000  H
  H37      1.0000 0.12310  0.09370  0.48650  Biso   1.000  H
  H38      1.0000 0.87690  0.90630  0.48650  Biso   1.000  H
  H39      1.0000 0.62310  0.90630  0.48650  Biso   1.000  H
  H40      1.0000 0.37690  0.09370  0.48650  Biso   1.000  H
  C81      1.0000 0.56990  0.61150  0.76970  Biso   1.000  C
  C82      1.0000 0.43010  0.38850  0.76970  Biso   1.000  C
  C83      1.0000 0.06990  0.38850  0.76970  Biso   1.000  C
  C84      1.0000 0.93010  0.61150  0.76970  Biso   1.000  C
  C85      1.0000 0.06990  0.11150  0.26970  Biso   1.000  C
  C86      1.0000 0.93010  0.88850  0.26970  Biso   1.000  C
  C87      1.0000 0.56990  0.88850  0.26970  Biso   1.000  C
  C88      1.0000 0.43010  0.11150  0.26970  Biso   1.000  C
  H41      1.0000 0.55470  0.63170  0.83970  Biso   1.000  H
  H42      1.0000 0.44530  0.36830  0.83970  Biso   1.000  H
  H43      1.0000 0.05470  0.36830  0.83970  Biso   1.000  H
  H44      1.0000 0.94530  0.63170  0.83970  Biso   1.000  H
  H45      1.0000 0.05470  0.13170  0.33970  Biso   1.000  H
  H46      1.0000 0.94530  0.86830  0.33970  Biso   1.000  H
  H47      1.0000 0.55470  0.86830  0.33970  Biso   1.000  H
  H48      1.0000 0.44530  0.13170  0.33970  Biso   1.000  H
  C89      1.0000 0.61440  0.55070  0.56970  Biso   1.000  C
  C90      1.0000 0.38560  0.44930  0.56970  Biso   1.000  C
  C91      1.0000 0.11440  0.44930  0.56970  Biso   1.000  C
  C92      1.0000 0.88560  0.55070  0.56970  Biso   1.000  C
  C93      1.0000 0.11440  0.05070  0.06970  Biso   1.000  C
  C94      1.0000 0.88560  0.94930  0.06970  Biso   1.000  C
  C95      1.0000 0.61440  0.94930  0.06970  Biso   1.000  C
  C96      1.0000 0.38560  0.05070  0.06970  Biso   1.000  C
  H49      1.0000 0.62950  0.53020  0.50180  Biso   1.000  H
  H50      1.0000 0.37050  0.46980  0.50180  Biso   1.000  H
  H51      1.0000 0.12950  0.46980  0.50180  Biso   1.000  H
  H52      1.0000 0.87050  0.53020  0.50180  Biso   1.000  H
  H53      1.0000 0.12950  0.03020  0.00180  Biso   1.000  H
  H54      1.0000 0.87050  0.96980  0.00180  Biso   1.000  H
  H55      1.0000 0.62950  0.96980  0.00180  Biso   1.000  H
  H56      1.0000 0.37050  0.03020  0.00180  Biso   1.000  H
  C97      1.0000 0.43730  0.58094  0.51110  Biso   1.000  C
  C98      1.0000 0.56270  0.41906  0.51110  Biso   1.000  C
  C99      1.0000 0.93730  0.41906  0.51110  Biso   1.000  C
  C100     1.0000 0.06270  0.58094  0.51110  Biso   1.000  C
  C101     1.0000 0.93730  0.08094  0.01110  Biso   1.000  C
  C102     1.0000 0.06270  0.91906  0.01110  Biso   1.000  C
  C103     1.0000 0.43730  0.91906  0.01110  Biso   1.000  C
  C104     1.0000 0.56270  0.08094  0.01110  Biso   1.000  C
  H57      1.0000 0.44970  0.57490  0.63860  Biso   1.000  H
  H58      1.0000 0.55030  0.42510  0.63860  Biso   1.000  H
  H59      1.0000 0.94970  0.42510  0.63860  Biso   1.000  H
  H60      1.0000 0.05030  0.57490  0.63860  Biso   1.000  H
  H61      1.0000 0.94970  0.07490  0.13860  Biso   1.000  H
  H62      1.0000 0.05030  0.92510  0.13860  Biso   1.000  H
  H63      1.0000 0.44970  0.92510  0.13860  Biso   1.000  H
  H64      1.0000 0.55030  0.07490  0.13860  Biso   1.000  H
  C105     1.0000 0.39270  0.56170  0.43290  Biso   1.000  C
  C106     1.0000 0.60730  0.43830  0.43290  Biso   1.000  C
  C107     1.0000 0.89270  0.43830  0.43290  Biso   1.000  C
  C108     1.0000 0.10730  0.56170  0.43290  Biso   1.000  C
  C109     1.0000 0.89270  0.06170  0.93290  Biso   1.000  C
  C110     1.0000 0.10730  0.93830  0.93290  Biso   1.000  C
  C111     1.0000 0.39270  0.93830  0.93290  Biso   1.000  C
  C112     1.0000 0.60730  0.06170  0.93290  Biso   1.000  C
  H65      1.0000 0.37510  0.54310  0.50830  Biso   1.000  H
  H66      1.0000 0.62490  0.45690  0.50830  Biso   1.000  H
  H67      1.0000 0.87510  0.45690  0.50830  Biso   1.000  H
  H68      1.0000 0.12490  0.54310  0.50830  Biso   1.000  H
  H69      1.0000 0.87510  0.04310  0.00830  Biso   1.000  H
  H70      1.0000 0.12490  0.95690  0.00830  Biso   1.000  H
  H71      1.0000 0.37510  0.95690  0.00830  Biso   1.000  H
  H72      1.0000 0.62490  0.04310  0.00830  Biso   1.000  H
  C113     1.0000 0.39940  0.59797  0.13850  Biso   1.000  C
  C114     1.0000 0.60060  0.40203  0.13850  Biso   1.000  C
  C115     1.0000 0.89940  0.40203  0.13850  Biso   1.000  C
  C116     1.0000 0.10060  0.59797  0.13850  Biso   1.000  C
  C117     1.0000 0.89940  0.09797  0.63850  Biso   1.000  C
  C118     1.0000 0.10060  0.90203  0.63850  Biso   1.000  C
  C119     1.0000 0.39940  0.90203  0.63850  Biso   1.000  C
  C120     1.0000 0.60060  0.09797  0.63850  Biso   1.000  C
  H73      1.0000 0.38580  0.60440  0.01300  Biso   1.000  H
  H74      1.0000 0.61420  0.39560  0.01300  Biso   1.000  H
  H75      1.0000 0.88580  0.39560  0.01300  Biso   1.000  H
  H76      1.0000 0.11420  0.60440  0.01300  Biso   1.000  H
  H77      1.0000 0.88580  0.10440  0.51300  Biso   1.000  H
  H78      1.0000 0.11420  0.89560  0.51300  Biso   1.000  H
  H79      1.0000 0.38580  0.89560  0.51300  Biso   1.000  H
  H80      1.0000 0.61420  0.10440  0.51300  Biso   1.000  H
  C121     1.0000 0.57640  0.72121  0.48370  Biso   1.000  C
  C122     1.0000 0.42360  0.27879  0.48370  Biso   1.000  C
  C123     1.0000 0.07640  0.27879  0.48370  Biso   1.000  C
  C124     1.0000 0.92360  0.72121  0.48370  Biso   1.000  C
  C125     1.0000 0.07640  0.22121  0.98370  Biso   1.000  C
  C126     1.0000 0.92360  0.77879  0.98370  Biso   1.000  C
  C127     1.0000 0.57640  0.77879  0.98370  Biso   1.000  C
  C128     1.0000 0.42360  0.22121  0.98370  Biso   1.000  C
  H81      1.0000 0.61210  0.73170  0.48440  Biso   1.000  H
  H82      1.0000 0.38790  0.26830  0.48440  Biso   1.000  H
  H83      1.0000 0.11210  0.26830  0.48440  Biso   1.000  H
  H84      1.0000 0.88790  0.73170  0.48440  Biso   1.000  H
  H85      1.0000 0.11210  0.23170  0.98440  Biso   1.000  H
  H86      1.0000 0.88790  0.76830  0.98440  Biso   1.000  H
  H87      1.0000 0.61210  0.76830  0.98440  Biso   1.000  H
  H88      1.0000 0.38790  0.23170  0.98440  Biso   1.000  H
  C129     1.0000 0.47080  0.68975  0.46860  Biso   1.000  C
  C130     1.0000 0.52920  0.31025  0.46860  Biso   1.000  C
  C131     1.0000 0.97080  0.31025  0.46860  Biso   1.000  C
  C132     1.0000 0.02920  0.68975  0.46860  Biso   1.000  C
  C133     1.0000 0.97080  0.18975  0.96860  Biso   1.000  C
  C134     1.0000 0.02920  0.81025  0.96860  Biso   1.000  C
  C135     1.0000 0.47080  0.81025  0.96860  Biso   1.000  C
  C136     1.0000 0.52920  0.18975  0.96860  Biso   1.000  C
  H89      1.0000 0.43520  0.67940  0.45470  Biso   1.000  H
  H90      1.0000 0.56480  0.32060  0.45470  Biso   1.000  H
  H91      1.0000 0.93520  0.32060  0.45470  Biso   1.000  H
  H92      1.0000 0.06480  0.67940  0.45470  Biso   1.000  H
  H93      1.0000 0.93520  0.17940  0.95470  Biso   1.000  H
  H94      1.0000 0.06480  0.82060  0.95470  Biso   1.000  H
  H95      1.0000 0.43520  0.82060  0.95470  Biso   1.000  H
  H96      1.0000 0.56480  0.17940  0.95470  Biso   1.000  H
  C137     1.0000 0.56920  0.68320  0.48580  Biso   1.000  C
  C138     1.0000 0.43080  0.31680  0.48580  Biso   1.000  C
  C139     1.0000 0.06920  0.31680  0.48580  Biso   1.000  C
  C140     1.0000 0.93080  0.68320  0.48580  Biso   1.000  C
  C141     1.0000 0.06920  0.18320  0.98580  Biso   1.000  C
  C142     1.0000 0.93080  0.81680  0.98580  Biso   1.000  C
  C143     1.0000 0.56920  0.81680  0.98580  Biso   1.000  C
  C144     1.0000 0.43080  0.18320  0.98580  Biso   1.000  C
  H97      1.0000 0.60090  0.66790  0.48800  Biso   1.000  H
  H98      1.0000 0.39910  0.33210  0.48800  Biso   1.000  H
  H99      1.0000 0.10090  0.33210  0.48800  Biso   1.000  H
  H100     1.0000 0.89910  0.66790  0.48800  Biso   1.000  H
  H101     1.0000 0.10090  0.16790  0.98800  Biso   1.000  H
  H102     1.0000 0.89910  0.83210  0.98800  Biso   1.000  H
  H103     1.0000 0.60090  0.83210  0.98800  Biso   1.000  H
  H104     1.0000 0.39910  0.16790  0.98800  Biso   1.000  H
  N9       1.0000 0.53760  0.78601  0.48330  Biso   1.000  N
  N10      1.0000 0.46240  0.21399  0.48330  Biso   1.000  N
  N11      1.0000 0.03760  0.21399  0.48330  Biso   1.000  N
  N12      1.0000 0.96240  0.78601  0.48330  Biso   1.000  N
  N13      1.0000 0.03760  0.28601  0.98330  Biso   1.000  N
  N14      1.0000 0.96240  0.71399  0.98330  Biso   1.000  N
  N15      1.0000 0.53760  0.71399  0.98330  Biso   1.000  N
  N16      1.0000 0.46240  0.28601  0.98330  Biso   1.000  N
  C145     1.0000 0.52990  0.74364  0.48040  Biso   1.000  C
  C146     1.0000 0.47010  0.25636  0.48040  Biso   1.000  C
  C147     1.0000 0.02990  0.25636  0.48040  Biso   1.000  C
  C148     1.0000 0.97010  0.74364  0.48040  Biso   1.000  C
  C149     1.0000 0.02990  0.24364  0.98040  Biso   1.000  C
  C150     1.0000 0.97010  0.75636  0.98040  Biso   1.000  C
  C151     1.0000 0.52990  0.75636  0.98040  Biso   1.000  C
  C152     1.0000 0.47010  0.24364  0.98040  Biso   1.000  C
  O41      1.0000 0.49320  0.80395  0.46840  Biso   1.000  O
  O42      1.0000 0.50680  0.19605  0.46840  Biso   1.000  O
  O43      1.0000 0.99320  0.19605  0.46840  Biso   1.000  O
  O44      1.0000 0.00680  0.80395  0.46840  Biso   1.000  O
  O45      1.0000 0.99320  0.30395  0.96840  Biso   1.000  O
  O46      1.0000 0.00680  0.69605  0.96840  Biso   1.000  O
  O47      1.0000 0.49320  0.69605  0.96840  Biso   1.000  O
  O48      1.0000 0.50680  0.30395  0.96840  Biso   1.000  O
  C153     1.0000 0.47720  0.72873  0.47300  Biso   1.000  C
  C154     1.0000 0.52280  0.27127  0.47300  Biso   1.000  C
  C155     1.0000 0.97720  0.27127  0.47300  Biso   1.000  C
  C156     1.0000 0.02280  0.72873  0.47300  Biso   1.000  C
  C157     1.0000 0.97720  0.22873  0.97300  Biso   1.000  C
  C158     1.0000 0.02280  0.77127  0.97300  Biso   1.000  C
  C159     1.0000 0.47720  0.77127  0.97300  Biso   1.000  C
  C160     1.0000 0.52280  0.22873  0.97300  Biso   1.000  C
  H105     1.0000 0.44610  0.74450  0.47080  Biso   1.000  H
  H106     1.0000 0.55390  0.25550  0.47080  Biso   1.000  H
  H107     1.0000 0.94610  0.25550  0.47080  Biso   1.000  H
  H108     1.0000 0.05390  0.74450  0.47080  Biso   1.000  H
  H109     1.0000 0.94610  0.24450  0.97080  Biso   1.000  H
  H110     1.0000 0.05390  0.75550  0.97080  Biso   1.000  H
  H111     1.0000 0.44610  0.75550  0.97080  Biso   1.000  H
  H112     1.0000 0.55390  0.24450  0.97080  Biso   1.000  H
  O49      1.0000 0.58370  0.79794  0.49020  Biso   1.000  O
  O50      1.0000 0.41630  0.20206  0.49020  Biso   1.000  O
  O51      1.0000 0.08370  0.20206  0.49020  Biso   1.000  O
  O52      1.0000 0.91630  0.79794  0.49020  Biso   1.000  O
  O53      1.0000 0.08370  0.29794  0.99020  Biso   1.000  O
  O54      1.0000 0.91630  0.70206  0.99020  Biso   1.000  O
  O55      1.0000 0.58370  0.70206  0.99020  Biso   1.000  O
  O56      1.0000 0.41630  0.29794  0.99020  Biso   1.000  O
