data_image0
_cell_length_a       7.63
_cell_length_b       7.5027
_cell_length_c       6.8168
_cell_angle_alpha    90
_cell_angle_beta     112.657
_cell_angle_gamma    90

_symmetry_space_group_name_H-M    "P 1"
_symmetry_int_tables_number       1

loop_
  _symmetry_equiv_pos_as_xyz
  'x, y, z'

loop_
  _atom_site_label
  _atom_site_occupancy
  _atom_site_fract_x
  _atom_site_fract_y
  _atom_site_fract_z
  _atom_site_thermal_displace_type
  _atom_site_B_iso_or_equiv
  _atom_site_type_symbol
  Cu1      1.0000 0.00000  0.50000  0.50000  Biso   1.000  Cu
  Cu2      1.0000 0.00000  0.00000  0.00000  Biso   1.000  Cu
  F1       1.0000 0.03010  0.75210  0.51710  Biso   1.000  F
  F2       1.0000 0.96990  0.25210  0.98290  Biso   1.000  F
  F3       1.0000 0.96990  0.24790  0.48290  Biso   1.000  F
  F4       1.0000 0.03010  0.74790  0.01710  Biso   1.000  F
  O1       1.0000 0.11750  0.48880  0.81350  Biso   1.000  O
  O2       1.0000 0.88250  0.98880  0.68650  Biso   1.000  O
  O3       1.0000 0.88250  0.51120  0.18650  Biso   1.000  O
  O4       1.0000 0.11750  0.01120  0.31350  Biso   1.000  O
  N1       1.0000 0.68270  0.51690  0.50240  Biso   1.000  N
  N2       1.0000 0.31730  0.01690  0.99760  Biso   1.000  N
  N3       1.0000 0.31730  0.48310  0.49760  Biso   1.000  N
  N4       1.0000 0.68270  0.98310  0.00240  Biso   1.000  N
  C1       1.0000 0.62920  0.60360  0.63900  Biso   1.000  C
  C2       1.0000 0.37080  0.10360  0.86100  Biso   1.000  C
  C3       1.0000 0.37080  0.39640  0.36100  Biso   1.000  C
  C4       1.0000 0.62920  0.89640  0.13900  Biso   1.000  C
  C5       1.0000 0.55200  0.41300  0.36440  Biso   1.000  C
  C6       1.0000 0.44800  0.91300  0.13560  Biso   1.000  C
  C7       1.0000 0.44800  0.58700  0.63560  Biso   1.000  C
  C8       1.0000 0.55200  0.08700  0.86440  Biso   1.000  C
  H1       1.0000 0.58800  0.34910  0.26800  Biso   1.000  H
  H2       1.0000 0.41200  0.84910  0.23200  Biso   1.000  H
  H3       1.0000 0.41200  0.65090  0.73200  Biso   1.000  H
  H4       1.0000 0.58800  0.15090  0.76800  Biso   1.000  H
  H5       1.0000 0.71700  0.67620  0.74100  Biso   1.000  H
  H6       1.0000 0.28300  0.17620  0.75900  Biso   1.000  H
  H7       1.0000 0.28300  0.32380  0.25900  Biso   1.000  H
  H8       1.0000 0.71700  0.82380  0.24100  Biso   1.000  H
  H9       1.0000 0.10100  0.57100  0.88000  Biso   1.000  H
  H10      1.0000 0.89900  0.07100  0.62000  Biso   1.000  H
  H11      1.0000 0.89900  0.42900  0.12000  Biso   1.000  H
  H12      1.0000 0.10100  0.92900  0.38000  Biso   1.000  H
  H13      1.0000 0.08200  0.41200  0.87300  Biso   1.000  H
  H14      1.0000 0.91800  0.91200  0.62700  Biso   1.000  H
  H15      1.0000 0.91800  0.58800  0.12700  Biso   1.000  H
  H16      1.0000 0.08200  0.08800  0.37300  Biso   1.000  H
