data_image0
_cell_length_a       6.8385
_cell_length_b       7.5892
_cell_length_c       7.0257
_cell_angle_alpha    90
_cell_angle_beta     115.204
_cell_angle_gamma    90

_symmetry_space_group_name_H-M    "P 1"
_symmetry_int_tables_number       1

loop_
  _symmetry_equiv_pos_as_xyz
  'x, y, z'

loop_
  _atom_site_label
  _atom_site_occupancy
  _atom_site_fract_x
  _atom_site_fract_y
  _atom_site_fract_z
  _atom_site_thermal_displace_type
  _atom_site_B_iso_or_equiv
  _atom_site_type_symbol
  Cu1      1.0000 0.00000  0.50000  0.50000  Biso   1.000  Cu
  Cu2      1.0000 0.00000  0.00000  0.00000  Biso   1.000  Cu
  F1       1.0000 0.03200  0.74890  0.53300  Biso   1.000  F
  F2       1.0000 0.96800  0.24890  0.96700  Biso   1.000  F
  F3       1.0000 0.96800  0.25110  0.46700  Biso   1.000  F
  F4       1.0000 0.03200  0.75110  0.03300  Biso   1.000  F
  O1       1.0000 0.17870  0.49189  0.86600  Biso   1.000  O
  O2       1.0000 0.82130  0.99189  0.63400  Biso   1.000  O
  O3       1.0000 0.82130  0.50811  0.13400  Biso   1.000  O
  O4       1.0000 0.17870  0.00811  0.36600  Biso   1.000  O
  N1       1.0000 0.70160  0.50630  0.49830  Biso   1.000  N
  N2       1.0000 0.29840  0.00630  0.00170  Biso   1.000  N
  N3       1.0000 0.29840  0.49370  0.50170  Biso   1.000  N
  N4       1.0000 0.70160  0.99370  0.99830  Biso   1.000  N
  C1       1.0000 0.65760  0.60040  0.63510  Biso   1.000  C
  C2       1.0000 0.34240  0.10040  0.86490  Biso   1.000  C
  C3       1.0000 0.34240  0.39960  0.36490  Biso   1.000  C
  C4       1.0000 0.65760  0.89960  0.13510  Biso   1.000  C
  C5       1.0000 0.54320  0.40630  0.36230  Biso   1.000  C
  C6       1.0000 0.45680  0.90630  0.13770  Biso   1.000  C
  C7       1.0000 0.45680  0.59370  0.63770  Biso   1.000  C
  C8       1.0000 0.54320  0.09370  0.86230  Biso   1.000  C
  H1       1.0000 0.56900  0.33930  0.26500  Biso   1.000  H
  H2       1.0000 0.43100  0.83930  0.23500  Biso   1.000  H
  H3       1.0000 0.43100  0.66070  0.73500  Biso   1.000  H
  H4       1.0000 0.56900  0.16070  0.76500  Biso   1.000  H
  H5       1.0000 0.76300  0.67180  0.73000  Biso   1.000  H
  H6       1.0000 0.23700  0.17180  0.77000  Biso   1.000  H
  H7       1.0000 0.23700  0.32820  0.27000  Biso   1.000  H
  H8       1.0000 0.76300  0.82820  0.23000  Biso   1.000  H
  H9       1.0000 0.11800  0.40900  0.89600  Biso   1.000  H
  H10      1.0000 0.88200  0.90900  0.60400  Biso   1.000  H
  H11      1.0000 0.88200  0.59100  0.10400  Biso   1.000  H
  H12      1.0000 0.11800  0.09100  0.39600  Biso   1.000  H
  H13      1.0000 0.14400  0.58300  0.90200  Biso   1.000  H
  H14      1.0000 0.85600  0.08300  0.59800  Biso   1.000  H
  H15      1.0000 0.85600  0.41700  0.09800  Biso   1.000  H
  H16      1.0000 0.14400  0.91700  0.40200  Biso   1.000  H
