data_image0
_cell_length_a       7.5857
_cell_length_b       7.456
_cell_length_c       6.751
_cell_angle_alpha    90
_cell_angle_beta     113.769
_cell_angle_gamma    90

_symmetry_space_group_name_H-M    "P 1"
_symmetry_int_tables_number       1

loop_
  _symmetry_equiv_pos_as_xyz
  'x, y, z'

loop_
  _atom_site_label
  _atom_site_occupancy
  _atom_site_fract_x
  _atom_site_fract_y
  _atom_site_fract_z
  _atom_site_thermal_displace_type
  _atom_site_B_iso_or_equiv
  _atom_site_type_symbol
  Cu1      1.0000 0.00000  0.50000  0.50000  Biso   1.000  Cu
  Cu2      1.0000 0.00000  0.00000  0.00000  Biso   1.000  Cu
  F1       1.0000 0.03900  0.75320  0.52280  Biso   1.000  F
  F2       1.0000 0.96100  0.25320  0.97720  Biso   1.000  F
  F3       1.0000 0.96100  0.24680  0.47720  Biso   1.000  F
  F4       1.0000 0.03900  0.74680  0.02280  Biso   1.000  F
  O1       1.0000 0.12160  0.48520  0.81790  Biso   1.000  O
  O2       1.0000 0.87840  0.98520  0.68210  Biso   1.000  O
  O3       1.0000 0.87840  0.51480  0.18210  Biso   1.000  O
  O4       1.0000 0.12160  0.01480  0.31790  Biso   1.000  O
  N1       1.0000 0.68230  0.52090  0.50100  Biso   1.000  N
  N2       1.0000 0.31770  0.02090  0.99900  Biso   1.000  N
  N3       1.0000 0.31770  0.47910  0.49900  Biso   1.000  N
  N4       1.0000 0.68230  0.97910  0.00100  Biso   1.000  N
  C1       1.0000 0.63200  0.60450  0.64100  Biso   1.000  C
  C2       1.0000 0.36800  0.10450  0.85900  Biso   1.000  C
  C3       1.0000 0.36800  0.39550  0.35900  Biso   1.000  C
  C4       1.0000 0.63200  0.89550  0.14100  Biso   1.000  C
  C5       1.0000 0.54950  0.41510  0.35910  Biso   1.000  C
  C6       1.0000 0.45050  0.91510  0.14090  Biso   1.000  C
  C7       1.0000 0.45050  0.58490  0.64090  Biso   1.000  C
  C8       1.0000 0.54950  0.08490  0.85910  Biso   1.000  C
  H1       1.0000 0.58200  0.35190  0.26000  Biso   1.000  H
  H2       1.0000 0.41800  0.85190  0.24000  Biso   1.000  H
  H3       1.0000 0.41800  0.64810  0.74000  Biso   1.000  H
  H4       1.0000 0.58200  0.14810  0.76000  Biso   1.000  H
  H5       1.0000 0.72300  0.67640  0.74500  Biso   1.000  H
  H6       1.0000 0.27700  0.17640  0.75500  Biso   1.000  H
  H7       1.0000 0.27700  0.32360  0.25500  Biso   1.000  H
  H8       1.0000 0.72300  0.82360  0.24500  Biso   1.000  H
  H9       1.0000 0.07200  0.40500  0.85800  Biso   1.000  H
  H10      1.0000 0.92800  0.90500  0.64200  Biso   1.000  H
  H11      1.0000 0.92800  0.59500  0.14200  Biso   1.000  H
  H12      1.0000 0.07200  0.09500  0.35800  Biso   1.000  H
  H13      1.0000 0.10200  0.57800  0.86700  Biso   1.000  H
  H14      1.0000 0.89800  0.07800  0.63300  Biso   1.000  H
  H15      1.0000 0.89800  0.42200  0.13300  Biso   1.000  H
  H16      1.0000 0.10200  0.92200  0.36700  Biso   1.000  H
