data_image0
_cell_length_a       7.7004
_cell_length_b       7.5648
_cell_length_c       6.9033
_cell_angle_alpha    90
_cell_angle_beta     111.062
_cell_angle_gamma    90

_symmetry_space_group_name_H-M    "P 1"
_symmetry_int_tables_number       1

loop_
  _symmetry_equiv_pos_as_xyz
  'x, y, z'

loop_
  _atom_site_label
  _atom_site_occupancy
  _atom_site_fract_x
  _atom_site_fract_y
  _atom_site_fract_z
  _atom_site_thermal_displace_type
  _atom_site_B_iso_or_equiv
  _atom_site_type_symbol
  Cu1      1.0000 0.00000  0.50000  0.50000  Biso   1.000  Cu
  Cu2      1.0000 0.00000  0.00000  0.00000  Biso   1.000  Cu
  F1       1.0000 0.01850  0.75150  0.50980  Biso   1.000  F
  F2       1.0000 0.98150  0.25150  0.99020  Biso   1.000  F
  F3       1.0000 0.98150  0.24850  0.49020  Biso   1.000  F
  F4       1.0000 0.01850  0.74850  0.00980  Biso   1.000  F
  O1       1.0000 0.10970  0.49300  0.80760  Biso   1.000  O
  O2       1.0000 0.89030  0.99300  0.69240  Biso   1.000  O
  O3       1.0000 0.89030  0.50700  0.19240  Biso   1.000  O
  O4       1.0000 0.10970  0.00700  0.30760  Biso   1.000  O
  N1       1.0000 0.68320  0.51100  0.50500  Biso   1.000  N
  N2       1.0000 0.31680  0.01100  0.99500  Biso   1.000  N
  N3       1.0000 0.31680  0.48900  0.49500  Biso   1.000  N
  N4       1.0000 0.68320  0.98900  0.00500  Biso   1.000  N
  C1       1.0000 0.62540  0.60170  0.63570  Biso   1.000  C
  C2       1.0000 0.37460  0.10170  0.86430  Biso   1.000  C
  C3       1.0000 0.37460  0.39830  0.36430  Biso   1.000  C
  C4       1.0000 0.62540  0.89830  0.13570  Biso   1.000  C
  C5       1.0000 0.55520  0.40960  0.36910  Biso   1.000  C
  C6       1.0000 0.44480  0.90960  0.13090  Biso   1.000  C
  C7       1.0000 0.44480  0.59040  0.63090  Biso   1.000  C
  C8       1.0000 0.55520  0.09040  0.86910  Biso   1.000  C
  H1       1.0000 0.70900  0.67470  0.73300  Biso   1.000  H
  H2       1.0000 0.29100  0.17470  0.76700  Biso   1.000  H
  H3       1.0000 0.29100  0.32530  0.26700  Biso   1.000  H
  H4       1.0000 0.70900  0.82530  0.23300  Biso   1.000  H
  H5       1.0000 0.59100  0.34270  0.27200  Biso   1.000  H
  H6       1.0000 0.40900  0.84270  0.22800  Biso   1.000  H
  H7       1.0000 0.40900  0.65730  0.72800  Biso   1.000  H
  H8       1.0000 0.59100  0.15730  0.77200  Biso   1.000  H
  H9       1.0000 0.07800  0.57800  0.86300  Biso   1.000  H
  H10      1.0000 0.92200  0.07800  0.63700  Biso   1.000  H
  H11      1.0000 0.92200  0.42200  0.13700  Biso   1.000  H
  H12      1.0000 0.07800  0.92200  0.36300  Biso   1.000  H
  H13      1.0000 0.06200  0.41900  0.85700  Biso   1.000  H
  H14      1.0000 0.93800  0.91900  0.64300  Biso   1.000  H
  H15      1.0000 0.93800  0.58100  0.14300  Biso   1.000  H
  H16      1.0000 0.06200  0.08100  0.35700  Biso   1.000  H
