data_image0
_cell_length_a       7.6471
_cell_length_b       7.551
_cell_length_c       6.8191
_cell_angle_alpha    90
_cell_angle_beta     112.833
_cell_angle_gamma    90

_symmetry_space_group_name_H-M    "P 1"
_symmetry_int_tables_number       1

loop_
  _symmetry_equiv_pos_as_xyz
  'x, y, z'

loop_
  _atom_site_label
  _atom_site_occupancy
  _atom_site_fract_x
  _atom_site_fract_y
  _atom_site_fract_z
  _atom_site_thermal_displace_type
  _atom_site_B_iso_or_equiv
  _atom_site_type_symbol
  Cu1      1.0000 0.00000  0.50000  0.50000  Biso   1.000  Cu
  Cu2      1.0000 0.00000  0.00000  0.00000  Biso   1.000  Cu
  F1       1.0000 0.97070  0.23260  0.48290  Biso   1.000  F
  F2       1.0000 0.02930  0.73260  0.01710  Biso   1.000  F
  F3       1.0000 0.02930  0.76740  0.51710  Biso   1.000  F
  F4       1.0000 0.97070  0.26740  0.98290  Biso   1.000  F
  O1       1.0000 0.88550  0.50900  0.18410  Biso   1.000  O
  O2       1.0000 0.11450  0.00900  0.31590  Biso   1.000  O
  O3       1.0000 0.11450  0.49100  0.81590  Biso   1.000  O
  O4       1.0000 0.88550  0.99100  0.68410  Biso   1.000  O
  N1       1.0000 0.68230  0.52000  0.50250  Biso   1.000  N
  N2       1.0000 0.31770  0.02000  0.99750  Biso   1.000  N
  N3       1.0000 0.31770  0.48000  0.49750  Biso   1.000  N
  N4       1.0000 0.68230  0.98000  0.00250  Biso   1.000  N
  C1       1.0000 0.62870  0.60760  0.63890  Biso   1.000  C
  C2       1.0000 0.37130  0.10760  0.86110  Biso   1.000  C
  C3       1.0000 0.37130  0.39240  0.36110  Biso   1.000  C
  C4       1.0000 0.62870  0.89240  0.13890  Biso   1.000  C
  C5       1.0000 0.55280  0.41800  0.36670  Biso   1.000  C
  C6       1.0000 0.44720  0.91800  0.13330  Biso   1.000  C
  C7       1.0000 0.44720  0.58200  0.63330  Biso   1.000  C
  C8       1.0000 0.55280  0.08200  0.86670  Biso   1.000  C
  H1       1.0000 0.71100  0.68500  0.73600  Biso   1.000  H
  H2       1.0000 0.28900  0.18500  0.76400  Biso   1.000  H
  H3       1.0000 0.28900  0.31500  0.26400  Biso   1.000  H
  H4       1.0000 0.71100  0.81500  0.23600  Biso   1.000  H
  H5       1.0000 0.58600  0.35800  0.26600  Biso   1.000  H
  H6       1.0000 0.41400  0.85800  0.23400  Biso   1.000  H
  H7       1.0000 0.41400  0.64200  0.73400  Biso   1.000  H
  H8       1.0000 0.58600  0.14200  0.76600  Biso   1.000  H
