data_image0
_cell_length_a       7.6617
_cell_length_b       7.5402
_cell_length_c       6.8674
_cell_angle_alpha    90
_cell_angle_beta     111.966
_cell_angle_gamma    90

_symmetry_space_group_name_H-M    "P 1"
_symmetry_int_tables_number       1

loop_
  _symmetry_equiv_pos_as_xyz
  'x, y, z'

loop_
  _atom_site_label
  _atom_site_occupancy
  _atom_site_fract_x
  _atom_site_fract_y
  _atom_site_fract_z
  _atom_site_thermal_displace_type
  _atom_site_B_iso_or_equiv
  _atom_site_type_symbol
  Cu1      1.0000 0.00000  0.00000  0.00000  Biso   1.000  Cu
  Cu2      1.0000 0.00000  0.50000  0.50000  Biso   1.000  Cu
  F1       1.0000 0.97597  0.74759  0.98686  Biso   1.000  F
  F2       1.0000 0.02403  0.24759  0.51314  Biso   1.000  F
  F3       1.0000 0.02403  0.25241  0.01314  Biso   1.000  F
  F4       1.0000 0.97597  0.75241  0.48686  Biso   1.000  F
  O1       1.0000 0.88740  0.00884  0.68950  Biso   1.000  O
  O2       1.0000 0.11260  0.50884  0.81050  Biso   1.000  O
  O3       1.0000 0.11260  0.99116  0.31050  Biso   1.000  O
  O4       1.0000 0.88740  0.49116  0.18950  Biso   1.000  O
  H1       1.0000 0.90900  0.92100  0.63900  Biso   1.000  H
  H2       1.0000 0.09100  0.42100  0.86100  Biso   1.000  H
  H3       1.0000 0.09100  0.07900  0.36100  Biso   1.000  H
  H4       1.0000 0.90900  0.57900  0.13900  Biso   1.000  H
  H5       1.0000 0.93100  0.08800  0.64800  Biso   1.000  H
  H6       1.0000 0.06900  0.58800  0.85200  Biso   1.000  H
  H7       1.0000 0.06900  0.91200  0.35200  Biso   1.000  H
  H8       1.0000 0.93100  0.41200  0.14800  Biso   1.000  H
  N1       1.0000 0.68350  0.01325  0.00420  Biso   1.000  N
  N2       1.0000 0.31650  0.51325  0.49580  Biso   1.000  N
  N3       1.0000 0.31650  0.98675  0.99580  Biso   1.000  N
  N4       1.0000 0.68350  0.48675  0.50420  Biso   1.000  N
  C1       1.0000 0.62830  0.10250  0.13900  Biso   1.000  C
  C2       1.0000 0.37170  0.60250  0.36100  Biso   1.000  C
  C3       1.0000 0.37170  0.89750  0.86100  Biso   1.000  C
  C4       1.0000 0.62830  0.39750  0.63900  Biso   1.000  C
  H9       1.0000 0.71580  0.17710  0.24050  Biso   1.000  H
  H10      1.0000 0.28420  0.67710  0.25950  Biso   1.000  H
  H11      1.0000 0.28420  0.82290  0.75950  Biso   1.000  H
  H12      1.0000 0.71580  0.32290  0.74050  Biso   1.000  H
  C5       1.0000 0.55410  0.91090  0.86550  Biso   1.000  C
  C6       1.0000 0.44590  0.41090  0.63450  Biso   1.000  C
  C7       1.0000 0.44590  0.08910  0.13450  Biso   1.000  C
  C8       1.0000 0.55410  0.58910  0.36550  Biso   1.000  C
  H13      1.0000 0.58760  0.84510  0.76670  Biso   1.000  H
  H14      1.0000 0.41240  0.34510  0.73330  Biso   1.000  H
  H15      1.0000 0.41240  0.15490  0.23330  Biso   1.000  H
  H16      1.0000 0.58760  0.65490  0.26670  Biso   1.000  H
