data_image0
_cell_length_a       7.647
_cell_length_b       7.563
_cell_length_c       6.84
_cell_angle_alpha    90
_cell_angle_beta     112.436
_cell_angle_gamma    90

_symmetry_space_group_name_H-M    "P 1"
_symmetry_int_tables_number       1

loop_
  _symmetry_equiv_pos_as_xyz
  'x, y, z'

loop_
  _atom_site_label
  _atom_site_occupancy
  _atom_site_fract_x
  _atom_site_fract_y
  _atom_site_fract_z
  _atom_site_thermal_displace_type
  _atom_site_B_iso_or_equiv
  _atom_site_type_symbol
  Cu1      1.0000 0.00000  0.00000  0.00000  Biso   1.000  Cu
  Cu2      1.0000 0.00000  0.50000  0.50000  Biso   1.000  Cu
  F1       1.0000 0.97280  0.74730  0.98500  Biso   1.000  F
  F2       1.0000 0.02720  0.24730  0.51500  Biso   1.000  F
  F3       1.0000 0.02720  0.25270  0.01500  Biso   1.000  F
  F4       1.0000 0.97280  0.75270  0.48500  Biso   1.000  F
  O1       1.0000 0.88590  0.00980  0.68770  Biso   1.000  O
  O2       1.0000 0.11410  0.50980  0.81230  Biso   1.000  O
  O3       1.0000 0.11410  0.99020  0.31230  Biso   1.000  O
  O4       1.0000 0.88590  0.49020  0.18770  Biso   1.000  O
  N1       1.0000 0.68350  0.01474  0.00307  Biso   1.000  N
  N2       1.0000 0.31650  0.51474  0.49693  Biso   1.000  N
  N3       1.0000 0.31650  0.98526  0.99693  Biso   1.000  N
  N4       1.0000 0.68350  0.48526  0.50307  Biso   1.000  N
  C1       1.0000 0.62997  0.10270  0.14040  Biso   1.000  C
  C2       1.0000 0.37003  0.60270  0.35960  Biso   1.000  C
  C3       1.0000 0.37003  0.89730  0.85960  Biso   1.000  C
  C4       1.0000 0.62997  0.39730  0.64040  Biso   1.000  C
  C5       1.0000 0.55357  0.91160  0.86240  Biso   1.000  C
  C6       1.0000 0.44643  0.41160  0.63760  Biso   1.000  C
  C7       1.0000 0.44643  0.08840  0.13760  Biso   1.000  C
  C8       1.0000 0.55357  0.58840  0.36240  Biso   1.000  C
  H1       1.0000 0.90800  0.90180  0.61870  Biso   1.000  H
  H2       1.0000 0.09200  0.40180  0.88130  Biso   1.000  H
  H3       1.0000 0.09200  0.09820  0.38130  Biso   1.000  H
  H4       1.0000 0.90800  0.59820  0.11870  Biso   1.000  H
  H5       1.0000 0.93810  0.10800  0.62880  Biso   1.000  H
  H6       1.0000 0.06190  0.60800  0.87120  Biso   1.000  H
  H7       1.0000 0.06190  0.89200  0.37120  Biso   1.000  H
  H8       1.0000 0.93810  0.39200  0.12880  Biso   1.000  H
  H9       1.0000 0.73530  0.18670  0.25600  Biso   1.000  H
  H10      1.0000 0.26470  0.68670  0.24400  Biso   1.000  H
  H11      1.0000 0.26470  0.81330  0.74400  Biso   1.000  H
  H12      1.0000 0.73530  0.31330  0.75600  Biso   1.000  H
  H13      1.0000 0.59720  0.83980  0.75080  Biso   1.000  H
  H14      1.0000 0.40280  0.33980  0.74920  Biso   1.000  H
  H15      1.0000 0.40280  0.16020  0.24920  Biso   1.000  H
  H16      1.0000 0.59720  0.66020  0.25080  Biso   1.000  H
