data_image0
_cell_length_a       6.8372
_cell_length_b       7.5981
_cell_length_c       7.028
_cell_angle_alpha    90
_cell_angle_beta     115.095
_cell_angle_gamma    90

_symmetry_space_group_name_H-M    "P 1"
_symmetry_int_tables_number       1

loop_
  _symmetry_equiv_pos_as_xyz
  'x, y, z'

loop_
  _atom_site_label
  _atom_site_occupancy
  _atom_site_fract_x
  _atom_site_fract_y
  _atom_site_fract_z
  _atom_site_thermal_displace_type
  _atom_site_B_iso_or_equiv
  _atom_site_type_symbol
  Cu1      1.0000 0.00000  0.50000  0.50000  Biso   1.000  Cu
  Cu2      1.0000 0.00000  0.00000  0.00000  Biso   1.000  Cu
  F1       1.0000 0.03070  0.74790  0.53180  Biso   1.000  F
  F2       1.0000 0.96930  0.24790  0.96820  Biso   1.000  F
  F3       1.0000 0.96930  0.25210  0.46820  Biso   1.000  F
  F4       1.0000 0.03070  0.75210  0.03180  Biso   1.000  F
  O1       1.0000 0.17680  0.49240  0.86320  Biso   1.000  O
  O2       1.0000 0.82320  0.99240  0.63680  Biso   1.000  O
  O3       1.0000 0.82320  0.50760  0.13680  Biso   1.000  O
  O4       1.0000 0.17680  0.00760  0.36320  Biso   1.000  O
  N1       1.0000 0.70170  0.50670  0.49970  Biso   1.000  N
  N2       1.0000 0.29830  0.00670  0.00030  Biso   1.000  N
  N3       1.0000 0.29830  0.49330  0.50030  Biso   1.000  N
  N4       1.0000 0.70170  0.99330  0.99970  Biso   1.000  N
  C1       1.0000 0.65680  0.60000  0.63420  Biso   1.000  C
  C2       1.0000 0.34320  0.10000  0.86580  Biso   1.000  C
  C3       1.0000 0.34320  0.40000  0.36580  Biso   1.000  C
  C4       1.0000 0.65680  0.90000  0.13420  Biso   1.000  C
  C5       1.0000 0.54400  0.40550  0.36330  Biso   1.000  C
  C6       1.0000 0.45600  0.90550  0.13670  Biso   1.000  C
  C7       1.0000 0.45600  0.59450  0.63670  Biso   1.000  C
  C8       1.0000 0.54400  0.09450  0.86330  Biso   1.000  C
  H1       1.0000 0.56900  0.34100  0.26500  Biso   1.000  H
  H2       1.0000 0.43100  0.84100  0.23500  Biso   1.000  H
  H3       1.0000 0.43100  0.65900  0.73500  Biso   1.000  H
  H4       1.0000 0.56900  0.15900  0.76500  Biso   1.000  H
  H5       1.0000 0.76300  0.67200  0.72900  Biso   1.000  H
  H6       1.0000 0.23700  0.17200  0.77100  Biso   1.000  H
  H7       1.0000 0.23700  0.32800  0.27100  Biso   1.000  H
  H8       1.0000 0.76300  0.82800  0.22900  Biso   1.000  H
  H9       1.0000 0.14300  0.57900  0.90900  Biso   1.000  H
  H10      1.0000 0.85700  0.07900  0.59100  Biso   1.000  H
  H11      1.0000 0.85700  0.42100  0.09100  Biso   1.000  H
  H12      1.0000 0.14300  0.92100  0.40900  Biso   1.000  H
  H13      1.0000 0.11400  0.42200  0.90700  Biso   1.000  H
  H14      1.0000 0.88600  0.92200  0.59300  Biso   1.000  H
  H15      1.0000 0.88600  0.57800  0.09300  Biso   1.000  H
  H16      1.0000 0.11400  0.07800  0.40700  Biso   1.000  H
