data_image0
_cell_length_a       6.8228
_cell_length_b       7.5581
_cell_length_c       7.0043
_cell_angle_alpha    90
_cell_angle_beta     115.566
_cell_angle_gamma    90

_symmetry_space_group_name_H-M    "P 1"
_symmetry_int_tables_number       1

loop_
  _symmetry_equiv_pos_as_xyz
  'x, y, z'

loop_
  _atom_site_label
  _atom_site_occupancy
  _atom_site_fract_x
  _atom_site_fract_y
  _atom_site_fract_z
  _atom_site_thermal_displace_type
  _atom_site_B_iso_or_equiv
  _atom_site_type_symbol
  Cu1      1.0000 0.00000  0.50000  0.50000  Biso   1.000  Cu
  Cu2      1.0000 0.00000  0.00000  0.00000  Biso   1.000  Cu
  F1       1.0000 0.03480  0.74970  0.53670  Biso   1.000  F
  F2       1.0000 0.96520  0.24970  0.96330  Biso   1.000  F
  F3       1.0000 0.96520  0.25030  0.46330  Biso   1.000  F
  F4       1.0000 0.03480  0.75030  0.03670  Biso   1.000  F
  O1       1.0000 0.18060  0.49120  0.86710  Biso   1.000  O
  O2       1.0000 0.81940  0.99120  0.63290  Biso   1.000  O
  O3       1.0000 0.81940  0.50880  0.13290  Biso   1.000  O
  O4       1.0000 0.18060  0.00880  0.36710  Biso   1.000  O
  N1       1.0000 0.70120  0.50660  0.49720  Biso   1.000  N
  N2       1.0000 0.29880  0.00660  0.00280  Biso   1.000  N
  N3       1.0000 0.29880  0.49340  0.50280  Biso   1.000  N
  N4       1.0000 0.70120  0.99340  0.99720  Biso   1.000  N
  C1       1.0000 0.65880  0.60100  0.63620  Biso   1.000  C
  C2       1.0000 0.34120  0.10100  0.86380  Biso   1.000  C
  C3       1.0000 0.34120  0.39900  0.36380  Biso   1.000  C
  C4       1.0000 0.65880  0.89900  0.13620  Biso   1.000  C
  C5       1.0000 0.54190  0.40640  0.36080  Biso   1.000  C
  C6       1.0000 0.45810  0.90640  0.13920  Biso   1.000  C
  C7       1.0000 0.45810  0.59360  0.63920  Biso   1.000  C
  C8       1.0000 0.54190  0.09360  0.86080  Biso   1.000  C
  H1       1.0000 0.56700  0.34200  0.25800  Biso   1.000  H
  H2       1.0000 0.43300  0.84200  0.24200  Biso   1.000  H
  H3       1.0000 0.43300  0.65800  0.74200  Biso   1.000  H
  H4       1.0000 0.56700  0.15800  0.75800  Biso   1.000  H
  H5       1.0000 0.76800  0.67130  0.73200  Biso   1.000  H
  H6       1.0000 0.23200  0.17130  0.76800  Biso   1.000  H
  H7       1.0000 0.23200  0.32870  0.26800  Biso   1.000  H
  H8       1.0000 0.76800  0.82870  0.23200  Biso   1.000  H
  H9       1.0000 0.11400  0.41300  0.89000  Biso   1.000  H
  H10      1.0000 0.88600  0.91300  0.61000  Biso   1.000  H
  H11      1.0000 0.88600  0.58700  0.11000  Biso   1.000  H
  H12      1.0000 0.11400  0.08700  0.39000  Biso   1.000  H
  H13      1.0000 0.14400  0.58800  0.89800  Biso   1.000  H
  H14      1.0000 0.85600  0.08800  0.60200  Biso   1.000  H
  H15      1.0000 0.85600  0.41200  0.10200  Biso   1.000  H
  H16      1.0000 0.14400  0.91200  0.39800  Biso   1.000  H
