data_image0
_cell_length_a       6.8098
_cell_length_b       7.5078
_cell_length_c       6.9873
_cell_angle_alpha    90
_cell_angle_beta     115.987
_cell_angle_gamma    90

_symmetry_space_group_name_H-M    "P 1"
_symmetry_int_tables_number       1

loop_
  _symmetry_equiv_pos_as_xyz
  'x, y, z'

loop_
  _atom_site_label
  _atom_site_occupancy
  _atom_site_fract_x
  _atom_site_fract_y
  _atom_site_fract_z
  _atom_site_thermal_displace_type
  _atom_site_B_iso_or_equiv
  _atom_site_type_symbol
  Cu1      1.0000 0.00000  0.50000  0.50000  Biso   1.000  Cu
  Cu2      1.0000 0.00000  0.00000  0.00000  Biso   1.000  Cu
  F1       1.0000 0.03910  0.75090  0.54080  Biso   1.000  F
  F2       1.0000 0.96090  0.25090  0.95920  Biso   1.000  F
  F3       1.0000 0.96090  0.24910  0.45920  Biso   1.000  F
  F4       1.0000 0.03910  0.74910  0.04080  Biso   1.000  F
  O1       1.0000 0.18370  0.48990  0.86860  Biso   1.000  O
  O2       1.0000 0.81630  0.98990  0.63140  Biso   1.000  O
  O3       1.0000 0.81630  0.51010  0.13140  Biso   1.000  O
  O4       1.0000 0.18370  0.01010  0.36860  Biso   1.000  O
  N1       1.0000 0.70130  0.50760  0.49760  Biso   1.000  N
  N2       1.0000 0.29870  0.00760  0.00240  Biso   1.000  N
  N3       1.0000 0.29870  0.49240  0.50240  Biso   1.000  N
  N4       1.0000 0.70130  0.99240  0.99760  Biso   1.000  N
  C1       1.0000 0.66150  0.60050  0.63780  Biso   1.000  C
  C2       1.0000 0.33850  0.10050  0.86220  Biso   1.000  C
  C3       1.0000 0.33850  0.39950  0.36220  Biso   1.000  C
  C4       1.0000 0.66150  0.89950  0.13780  Biso   1.000  C
  C5       1.0000 0.54060  0.40760  0.35830  Biso   1.000  C
  C6       1.0000 0.45940  0.90760  0.14170  Biso   1.000  C
  C7       1.0000 0.45940  0.59240  0.64170  Biso   1.000  C
  C8       1.0000 0.54060  0.09240  0.85830  Biso   1.000  C
  H1       1.0000 0.77300  0.66900  0.73700  Biso   1.000  H
  H2       1.0000 0.22700  0.16900  0.76300  Biso   1.000  H
  H3       1.0000 0.22700  0.33100  0.26300  Biso   1.000  H
  H4       1.0000 0.77300  0.83100  0.23700  Biso   1.000  H
  H5       1.0000 0.56300  0.34110  0.25700  Biso   1.000  H
  H6       1.0000 0.43700  0.84110  0.24300  Biso   1.000  H
  H7       1.0000 0.43700  0.65890  0.74300  Biso   1.000  H
  H8       1.0000 0.56300  0.15890  0.75700  Biso   1.000  H
  H9       1.0000 0.14600  0.58600  0.89800  Biso   1.000  H
  H10      1.0000 0.85400  0.08600  0.60200  Biso   1.000  H
  H11      1.0000 0.85400  0.41400  0.10200  Biso   1.000  H
  H12      1.0000 0.14600  0.91400  0.39800  Biso   1.000  H
  H13      1.0000 0.12100  0.40600  0.89100  Biso   1.000  H
  H14      1.0000 0.87900  0.90600  0.60900  Biso   1.000  H
  H15      1.0000 0.87900  0.59400  0.10900  Biso   1.000  H
  H16      1.0000 0.12100  0.09400  0.39100  Biso   1.000  H
