data_image0
_cell_length_a       7.625
_cell_length_b       7.5488
_cell_length_c       6.8453
_cell_angle_alpha    90
_cell_angle_beta     112.029
_cell_angle_gamma    90

_symmetry_space_group_name_H-M    "P 1"
_symmetry_int_tables_number       1

loop_
  _symmetry_equiv_pos_as_xyz
  'x, y, z'

loop_
  _atom_site_label
  _atom_site_occupancy
  _atom_site_fract_x
  _atom_site_fract_y
  _atom_site_fract_z
  _atom_site_thermal_displace_type
  _atom_site_B_iso_or_equiv
  _atom_site_type_symbol
  Cu1      1.0000 0.00000  0.00000  0.00000  Biso   1.000  Cu
  Cu2      1.0000 0.00000  0.50000  0.50000  Biso   1.000  Cu
  F1       1.0000 0.97453  0.74735  0.98626  Biso   1.000  F
  F2       1.0000 0.02547  0.24735  0.51374  Biso   1.000  F
  F3       1.0000 0.02547  0.25265  0.01374  Biso   1.000  F
  F4       1.0000 0.97453  0.75265  0.48626  Biso   1.000  F
  O1       1.0000 0.88640  0.00926  0.68870  Biso   1.000  O
  O2       1.0000 0.11360  0.50926  0.81130  Biso   1.000  O
  O3       1.0000 0.11360  0.99074  0.31130  Biso   1.000  O
  O4       1.0000 0.88640  0.49074  0.18870  Biso   1.000  O
  H1       1.0000 0.90600  0.91900  0.63500  Biso   1.000  H
  H2       1.0000 0.09400  0.41900  0.86500  Biso   1.000  H
  H3       1.0000 0.09400  0.08100  0.36500  Biso   1.000  H
  H4       1.0000 0.90600  0.58100  0.13500  Biso   1.000  H
  H5       1.0000 0.92000  0.08900  0.63600  Biso   1.000  H
  H6       1.0000 0.08000  0.58900  0.86400  Biso   1.000  H
  H7       1.0000 0.08000  0.91100  0.36400  Biso   1.000  H
  H8       1.0000 0.92000  0.41100  0.13600  Biso   1.000  H
  N1       1.0000 0.68380  0.01380  0.00370  Biso   1.000  N
  N2       1.0000 0.31620  0.51380  0.49630  Biso   1.000  N
  N3       1.0000 0.31620  0.98620  0.99630  Biso   1.000  N
  N4       1.0000 0.68380  0.48620  0.50370  Biso   1.000  N
  C1       1.0000 0.62880  0.10240  0.14010  Biso   1.000  C
  C2       1.0000 0.37120  0.60240  0.35990  Biso   1.000  C
  C3       1.0000 0.37120  0.89760  0.85990  Biso   1.000  C
  C4       1.0000 0.62880  0.39760  0.64010  Biso   1.000  C
  H9       1.0000 0.71710  0.17640  0.24240  Biso   1.000  H
  H10      1.0000 0.28290  0.67640  0.25760  Biso   1.000  H
  H11      1.0000 0.28290  0.82360  0.75760  Biso   1.000  H
  H12      1.0000 0.71710  0.32360  0.74240  Biso   1.000  H
  C5       1.0000 0.55340  0.91100  0.86440  Biso   1.000  C
  C6       1.0000 0.44660  0.41100  0.63560  Biso   1.000  C
  C7       1.0000 0.44660  0.08900  0.13560  Biso   1.000  C
  C8       1.0000 0.55340  0.58900  0.36440  Biso   1.000  C
  H13      1.0000 0.58700  0.84520  0.76540  Biso   1.000  H
  H14      1.0000 0.41300  0.34520  0.73460  Biso   1.000  H
  H15      1.0000 0.41300  0.15480  0.23460  Biso   1.000  H
  H16      1.0000 0.58700  0.65480  0.26540  Biso   1.000  H
