data_image0
_cell_length_a       7.6926
_cell_length_b       7.5568
_cell_length_c       6.897
_cell_angle_alpha    90
_cell_angle_beta     111.065
_cell_angle_gamma    90

_symmetry_space_group_name_H-M    "P 1"
_symmetry_int_tables_number       1

loop_
  _symmetry_equiv_pos_as_xyz
  'x, y, z'

loop_
  _atom_site_label
  _atom_site_occupancy
  _atom_site_fract_x
  _atom_site_fract_y
  _atom_site_fract_z
  _atom_site_thermal_displace_type
  _atom_site_B_iso_or_equiv
  _atom_site_type_symbol
  Cu1      1.0000 0.00000  0.00000  0.00000  Biso   1.000  Cu
  Cu2      1.0000 0.00000  0.50000  0.50000  Biso   1.000  Cu
  F1       1.0000 0.98123  0.74869  0.98995  Biso   1.000  F
  F2       1.0000 0.01877  0.24869  0.51005  Biso   1.000  F
  F3       1.0000 0.01877  0.25131  0.01005  Biso   1.000  F
  F4       1.0000 0.98123  0.75131  0.48995  Biso   1.000  F
  O1       1.0000 0.89098  0.00658  0.69250  Biso   1.000  O
  O2       1.0000 0.10902  0.50658  0.80750  Biso   1.000  O
  O3       1.0000 0.10902  0.99342  0.30750  Biso   1.000  O
  O4       1.0000 0.89098  0.49342  0.19250  Biso   1.000  O
  H1       1.0000 0.91400  0.92000  0.64300  Biso   1.000  H
  H2       1.0000 0.08600  0.42000  0.85700  Biso   1.000  H
  H3       1.0000 0.08600  0.08000  0.35700  Biso   1.000  H
  H4       1.0000 0.91400  0.58000  0.14300  Biso   1.000  H
  H5       1.0000 0.92600  0.08200  0.64700  Biso   1.000  H
  H6       1.0000 0.07400  0.58200  0.85300  Biso   1.000  H
  H7       1.0000 0.07400  0.91800  0.35300  Biso   1.000  H
  H8       1.0000 0.92600  0.41800  0.14700  Biso   1.000  H
  N1       1.0000 0.68271  0.01096  0.00530  Biso   1.000  N
  N2       1.0000 0.31729  0.51096  0.49470  Biso   1.000  N
  N3       1.0000 0.31729  0.98904  0.99470  Biso   1.000  N
  N4       1.0000 0.68271  0.48904  0.50530  Biso   1.000  N
  C1       1.0000 0.62573  0.10143  0.13600  Biso   1.000  C
  C2       1.0000 0.37427  0.60143  0.36400  Biso   1.000  C
  C3       1.0000 0.37427  0.89857  0.86400  Biso   1.000  C
  C4       1.0000 0.62573  0.39857  0.63600  Biso   1.000  C
  H9       1.0000 0.70990  0.17410  0.23420  Biso   1.000  H
  H10      1.0000 0.29010  0.67410  0.26580  Biso   1.000  H
  H11      1.0000 0.29010  0.82590  0.76580  Biso   1.000  H
  H12      1.0000 0.70990  0.32590  0.73420  Biso   1.000  H
  C5       1.0000 0.55547  0.90930  0.86960  Biso   1.000  C
  C6       1.0000 0.44453  0.40930  0.63040  Biso   1.000  C
  C7       1.0000 0.44453  0.09070  0.13040  Biso   1.000  C
  C8       1.0000 0.55547  0.59070  0.36960  Biso   1.000  C
  H13      1.0000 0.58940  0.84310  0.77510  Biso   1.000  H
  H14      1.0000 0.41060  0.34310  0.72490  Biso   1.000  H
  H15      1.0000 0.41060  0.15690  0.22490  Biso   1.000  H
  H16      1.0000 0.58940  0.65690  0.27510  Biso   1.000  H
