data_image0
_cell_length_a       7.5876
_cell_length_b       9.109
_cell_length_c       12.9496
_cell_angle_alpha    69.907
_cell_angle_beta     84.878
_cell_angle_gamma    66.5

_symmetry_space_group_name_H-M    "P 1"
_symmetry_int_tables_number       1

loop_
  _symmetry_equiv_pos_as_xyz
  'x, y, z'

loop_
  _atom_site_label
  _atom_site_occupancy
  _atom_site_fract_x
  _atom_site_fract_y
  _atom_site_fract_z
  _atom_site_thermal_displace_type
  _atom_site_B_iso_or_equiv
  _atom_site_type_symbol
  Cu1      1.0000 0.85466  0.21469  0.11643  Biso   1.000  Cu
  Cu2      1.0000 0.14534  0.78531  0.88357  Biso   1.000  Cu
  Mn1      1.0000 0.36112  0.24922  0.60813  Biso   1.000  Mn
  Mn2      1.0000 0.63888  0.75078  0.39187  Biso   1.000  Mn
  O1       1.0000 0.80455  0.04746  0.06826  Biso   1.000  O
  O2       1.0000 0.19545  0.95254  0.93174  Biso   1.000  O
  O3       1.0000 0.69394  0.03664  0.91789  Biso   1.000  O
  O4       1.0000 0.30606  0.96336  0.08211  Biso   1.000  O
  O5       1.0000 0.77020  0.36156  0.96436  Biso   1.000  O
  O6       1.0000 0.22980  0.63844  0.03564  Biso   1.000  O
  O7       1.0000 0.63860  0.37288  0.81464  Biso   1.000  O
  O8       1.0000 0.36140  0.62712  0.18536  Biso   1.000  O
  O9       1.0000 0.48640  0.20745  0.45498  Biso   1.000  O
  O10      1.0000 0.51360  0.79255  0.54502  Biso   1.000  O
  O11      1.0000 0.58024  0.01820  0.36765  Biso   1.000  O
  O12      1.0000 0.41976  0.98180  0.63235  Biso   1.000  O
  O13      1.0000 0.05899  0.29315  0.59045  Biso   1.000  O
  O14      1.0000 0.94101  0.70685  0.40955  Biso   1.000  O
  O15      1.0000 0.78370  0.47879  0.49359  Biso   1.000  O
  O16      1.0000 0.21630  0.52121  0.50641  Biso   1.000  O
  O17      1.0000 0.55133  0.29219  0.18331  Biso   1.000  O
  O18      1.0000 0.44867  0.70781  0.81669  Biso   1.000  O
  H1       1.0000 0.55560  0.22090  0.23990  Biso   1.000  H
  H2       1.0000 0.44440  0.77910  0.76010  Biso   1.000  H
  H3       1.0000 0.49210  0.38480  0.18720  Biso   1.000  H
  H4       1.0000 0.50790  0.61520  0.81280  Biso   1.000  H
  O19      1.0000 0.60377  0.28966  0.64079  Biso   1.000  O
  O20      1.0000 0.39623  0.71034  0.35921  Biso   1.000  O
  H5       1.0000 0.65140  0.34280  0.59190  Biso   1.000  H
  H6       1.0000 0.34860  0.65720  0.40810  Biso   1.000  H
  H7       1.0000 0.61150  0.30980  0.69640  Biso   1.000  H
  H8       1.0000 0.38850  0.69020  0.30360  Biso   1.000  H
  O21      1.0000 0.34176  0.18577  0.78641  Biso   1.000  O
  O22      1.0000 0.65824  0.81423  0.21359  Biso   1.000  O
  H9       1.0000 0.43300  0.16770  0.82310  Biso   1.000  H
  H10      1.0000 0.56700  0.83230  0.17690  Biso   1.000  H
  H11      1.0000 0.28980  0.12660  0.82610  Biso   1.000  H
  H12      1.0000 0.71020  0.87340  0.17390  Biso   1.000  H
  O23      1.0000 0.31440  0.28542  0.02667  Biso   1.000  O
  O24      1.0000 0.68560  0.71458  0.97333  Biso   1.000  O
  H13      1.0000 0.32020  0.19050  0.03570  Biso   1.000  H
  H14      1.0000 0.67980  0.80950  0.96430  Biso   1.000  H
  H15      1.0000 0.37360  0.28450  0.07440  Biso   1.000  H
  H16      1.0000 0.62640  0.71550  0.92560  Biso   1.000  H
  N1       1.0000 0.99350  0.03337  0.25384  Biso   1.000  N
  N2       1.0000 0.00650  0.96663  0.74616  Biso   1.000  N
  H17      1.0000 0.94220  0.95740  0.27500  Biso   1.000  H
  H18      1.0000 0.05780  0.04260  0.72500  Biso   1.000  H
  H19      1.0000 0.11260  0.98360  0.23680  Biso   1.000  H
  H20      1.0000 0.88740  0.01640  0.76320  Biso   1.000  H
  N3       1.0000 0.92760  0.38940  0.13624  Biso   1.000  N
  N4       1.0000 0.07240  0.61060  0.86376  Biso   1.000  N
  H21      1.0000 0.84710  0.48880  0.09670  Biso   1.000  H
  H22      1.0000 0.15290  0.51120  0.90330  Biso   1.000  H
  H23      1.0000 0.03700  0.38120  0.10610  Biso   1.000  H
  H24      1.0000 0.96300  0.61880  0.89390  Biso   1.000  H
  C1       1.0000 0.73880  0.11010  0.96877  Biso   1.000  C
  C2       1.0000 0.26120  0.88990  0.03123  Biso   1.000  C
  C3       1.0000 0.71380  0.29700  0.90914  Biso   1.000  C
  C4       1.0000 0.28620  0.70300  0.09086  Biso   1.000  C
  C5       1.0000 0.00390  0.08100  0.35070  Biso   1.000  C
  C6       1.0000 0.99610  0.91900  0.64930  Biso   1.000  C
  H25      1.0000 0.08860  0.97950  0.40970  Biso   1.000  H
  H26      1.0000 0.91140  0.02050  0.59030  Biso   1.000  H
  H27      1.0000 0.87390  0.12110  0.37890  Biso   1.000  H
  H28      1.0000 0.12610  0.87890  0.62110  Biso   1.000  H
  C7       1.0000 0.08040  0.21880  0.32289  Biso   1.000  C
  C8       1.0000 0.91960  0.78120  0.67711  Biso   1.000  C
  H29      1.0000 0.20330  0.18320  0.28670  Biso   1.000  H
  H30      1.0000 0.79670  0.81680  0.71330  Biso   1.000  H
  H31      1.0000 0.10850  0.23040  0.39220  Biso   1.000  H
  H32      1.0000 0.89150  0.76960  0.60780  Biso   1.000  H
  C9       1.0000 0.94590  0.39050  0.24873  Biso   1.000  C
  C10      1.0000 0.05410  0.60950  0.75127  Biso   1.000  C
  H33      1.0000 0.81750  0.42150  0.27980  Biso   1.000  H
  H34      1.0000 0.18250  0.57850  0.72020  Biso   1.000  H
  H35      1.0000 0.99540  0.47740  0.24530  Biso   1.000  H
  H36      1.0000 0.00460  0.52260  0.75470  Biso   1.000  H
  C11      1.0000 0.51930  0.06590  0.44928  Biso   1.000  C
  C12      1.0000 0.48070  0.93410  0.55072  Biso   1.000  C
  C13      1.0000 0.95480  0.43359  0.52505  Biso   1.000  C
  C14      1.0000 0.04520  0.56641  0.47495  Biso   1.000  C
