data_image0
_cell_length_a       8.6108
_cell_length_b       9.1233
_cell_length_c       9.2126
_cell_angle_alpha    106.892
_cell_angle_beta     94.04
_cell_angle_gamma    117.115

_symmetry_space_group_name_H-M    "P 1"
_symmetry_int_tables_number       1

loop_
  _symmetry_equiv_pos_as_xyz
  'x, y, z'

loop_
  _atom_site_label
  _atom_site_occupancy
  _atom_site_fract_x
  _atom_site_fract_y
  _atom_site_fract_z
  _atom_site_thermal_displace_type
  _atom_site_B_iso_or_equiv
  _atom_site_type_symbol
  Cu1      1.0000 0.00000  0.50000  0.50000  Biso   1.000  Cu
  Mn1      1.0000 0.31105  0.31582  0.18413  Biso   1.000  Mn
  Mn2      1.0000 0.68895  0.68418  0.81587  Biso   1.000  Mn
  O1       1.0000 0.27812  0.43467  0.41604  Biso   1.000  O
  O2       1.0000 0.72188  0.56533  0.58396  Biso   1.000  O
  O3       1.0000 0.18554  0.03210  0.12383  Biso   1.000  O
  O4       1.0000 0.81446  0.96790  0.87617  Biso   1.000  O
  O5       1.0000 0.95859  0.78231  0.94599  Biso   1.000  O
  O6       1.0000 0.04141  0.21769  0.05401  Biso   1.000  O
  O7       1.0000 0.43204  0.28294  0.98625  Biso   1.000  O
  O8       1.0000 0.56796  0.71706  0.01375  Biso   1.000  O
  O9       1.0000 0.58904  0.43352  0.84531  Biso   1.000  O
  O10      1.0000 0.41096  0.56648  0.15469  Biso   1.000  O
  O11      1.0000 0.44511  0.60865  0.65943  Biso   1.000  O
  O12      1.0000 0.55489  0.39135  0.34057  Biso   1.000  O
  O13      1.0000 0.52192  0.01557  0.17846  Biso   1.000  O
  O14      1.0000 0.47808  0.98443  0.82154  Biso   1.000  O
  H1       1.0000 0.41910  0.00040  0.14540  Biso   1.000  H
  H2       1.0000 0.58090  0.99960  0.85460  Biso   1.000  H
  H3       1.0000 0.54130  0.94130  0.11930  Biso   1.000  H
  H4       1.0000 0.45870  0.05870  0.88070  Biso   1.000  H
  N1       1.0000 0.90326  0.26222  0.53867  Biso   1.000  N
  N2       1.0000 0.09674  0.73778  0.46133  Biso   1.000  N
  N3       1.0000 0.11955  0.61297  0.72689  Biso   1.000  N
  N4       1.0000 0.88045  0.38703  0.27311  Biso   1.000  N
  H5       1.0000 0.24220  0.67040  0.73940  Biso   1.000  H
  H6       1.0000 0.75780  0.32960  0.26060  Biso   1.000  H
  H7       1.0000 0.08810  0.69560  0.77460  Biso   1.000  H
  H8       1.0000 0.91190  0.30440  0.22540  Biso   1.000  H
  C1       1.0000 0.04210  0.94640  0.02025  Biso   1.000  C
  C2       1.0000 0.95790  0.05360  0.97975  Biso   1.000  C
  C3       1.0000 0.50570  0.41780  0.95063  Biso   1.000  C
  C4       1.0000 0.49430  0.58220  0.04937  Biso   1.000  C
  C5       1.0000 0.42020  0.51300  0.52206  Biso   1.000  C
  C6       1.0000 0.57980  0.48700  0.47794  Biso   1.000  C
  C7       1.0000 0.02990  0.30650  0.68350  Biso   1.000  C
  C8       1.0000 0.97010  0.69350  0.31650  Biso   1.000  C
  H9       1.0000 0.14370  0.31620  0.65920  Biso   1.000  H
  H10      1.0000 0.85630  0.68380  0.34080  Biso   1.000  H
  H11      1.0000 0.97710  0.21150  0.72640  Biso   1.000  H
  H12      1.0000 0.02290  0.78850  0.27360  Biso   1.000  H
  C9       1.0000 0.06700  0.47950  0.80240  Biso   1.000  C
  C10      1.0000 0.93300  0.52050  0.19760  Biso   1.000  C
  H13      1.0000 0.95830  0.46430  0.84100  Biso   1.000  H
  H14      1.0000 0.04170  0.53570  0.15900  Biso   1.000  H
  H15      1.0000 0.16510  0.51930  0.89250  Biso   1.000  H
  H16      1.0000 0.83490  0.48070  0.10750  Biso   1.000  H
  C11      1.0000 0.72000  0.20320  0.56470  Biso   1.000  C
  C12      1.0000 0.28000  0.79680  0.43530  Biso   1.000  C
  H17      1.0000 0.68180  0.10010  0.59570  Biso   1.000  H
  H18      1.0000 0.31820  0.89990  0.40430  Biso   1.000  H
  H19      1.0000 0.63670  0.17110  0.46800  Biso   1.000  H
  H20      1.0000 0.36330  0.82890  0.53200  Biso   1.000  H
  H21      1.0000 0.72000  0.29910  0.64760  Biso   1.000  H
  H22      1.0000 0.28000  0.70090  0.35240  Biso   1.000  H
  C13      1.0000 0.89690  0.11320  0.41300  Biso   1.000  C
  C14      1.0000 0.10310  0.88680  0.58700  Biso   1.000  C
  H23      1.0000 0.86210  0.01260  0.44700  Biso   1.000  H
  H24      1.0000 0.13790  0.98740  0.55300  Biso   1.000  H
  H25      1.0000 0.01570  0.15000  0.39020  Biso   1.000  H
  H26      1.0000 0.98430  0.85000  0.60980  Biso   1.000  H
  H27      1.0000 0.80870  0.07850  0.31860  Biso   1.000  H
  H28      1.0000 0.19130  0.92150  0.68140  Biso   1.000  H
