data_image0
_cell_length_a       11.592
_cell_length_b       12.226
_cell_length_c       14.737
_cell_angle_alpha    102.78
_cell_angle_beta     101.86
_cell_angle_gamma    109.95

_symmetry_space_group_name_H-M    "P 1"
_symmetry_int_tables_number       1

loop_
  _symmetry_equiv_pos_as_xyz
  'x, y, z'

loop_
  _atom_site_label
  _atom_site_occupancy
  _atom_site_fract_x
  _atom_site_fract_y
  _atom_site_fract_z
  _atom_site_thermal_displace_type
  _atom_site_B_iso_or_equiv
  _atom_site_type_symbol
  Fe1      1.0000 0.50000  0.00000  0.50000  Biso   1.000  Fe
  Fe2      1.0000 0.00000  0.00000  0.00000  Biso   1.000  Fe
  Cu1      1.0000 0.41588  0.97692  0.15513  Biso   1.000  Cu
  Cu2      1.0000 0.58412  0.02308  0.84487  Biso   1.000  Cu
  Cu3      1.0000 0.06627  0.23281  0.32963  Biso   1.000  Cu
  Cu4      1.0000 0.93373  0.76719  0.67037  Biso   1.000  Cu
  O1       1.0000 0.80070  0.71080  0.41090  Biso   1.000  O
  O2       1.0000 0.19930  0.28920  0.58910  Biso   1.000  O
  O3       1.0000 0.03720  0.62080  0.21830  Biso   1.000  O
  O4       1.0000 0.96280  0.37920  0.78170  Biso   1.000  O
  O5       1.0000 0.80680  0.66010  0.20810  Biso   1.000  O
  O6       1.0000 0.19320  0.33990  0.79190  Biso   1.000  O
  O7       1.0000 0.11420  0.42980  0.13860  Biso   1.000  O
  O8       1.0000 0.88580  0.57020  0.86140  Biso   1.000  O
  O9       1.0000 0.03610  0.68260  0.04840  Biso   1.000  O
  O10      1.0000 0.96390  0.31740  0.95160  Biso   1.000  O
  O11      1.0000 0.05600  0.58700  0.03600  Biso   1.000  O
  O12      1.0000 0.94400  0.41300  0.96400  Biso   1.000  O
  O13      1.0000 0.32230  0.38810  0.10590  Biso   1.000  O
  O14      1.0000 0.67770  0.61190  0.89410  Biso   1.000  O
  O15      1.0000 0.33700  0.42100  0.06500  Biso   1.000  O
  O16      1.0000 0.66300  0.57900  0.93500  Biso   1.000  O
  O17      1.0000 0.56520  0.52210  0.03030  Biso   1.000  O
  O18      1.0000 0.43480  0.47790  0.96970  Biso   1.000  O
  N1       1.0000 0.49960  0.93510  0.68870  Biso   1.000  N
  N2       1.0000 0.50040  0.06490  0.31130  Biso   1.000  N
  N3       1.0000 0.33970  0.14770  0.54910  Biso   1.000  N
  N4       1.0000 0.66030  0.85230  0.45090  Biso   1.000  N
  N5       1.0000 0.24820  0.77350  0.37720  Biso   1.000  N
  N6       1.0000 0.75180  0.22650  0.62280  Biso   1.000  N
  N7       1.0000 0.25620  0.00050  0.10940  Biso   1.000  N
  N8       1.0000 0.74380  0.99950  0.89060  Biso   1.000  N
  N9       1.0000 0.01910  0.19870  0.17590  Biso   1.000  N
  N10      1.0000 0.98090  0.80130  0.82410  Biso   1.000  N
  N11      1.0000 0.15060  0.19010  0.91640  Biso   1.000  N
  N12      1.0000 0.84940  0.80990  0.08360  Biso   1.000  N
  N13      1.0000 0.52550  0.12760  0.12990  Biso   1.000  N
  N14      1.0000 0.47450  0.87240  0.87010  Biso   1.000  N
  N15      1.0000 0.56020  0.92680  0.12990  Biso   1.000  N
  N16      1.0000 0.43980  0.07320  0.87010  Biso   1.000  N
  N17      1.0000 0.31420  0.81680  0.17130  Biso   1.000  N
  N18      1.0000 0.68580  0.18320  0.82870  Biso   1.000  N
  H1       1.0000 0.29990  0.83500  0.22940  Biso   1.000  H
  H2       1.0000 0.70010  0.16500  0.77060  Biso   1.000  H
  H3       1.0000 0.23680  0.78450  0.12530  Biso   1.000  H
  H4       1.0000 0.76320  0.21550  0.87470  Biso   1.000  H
  N19      1.0000 0.96240  0.33210  0.35870  Biso   1.000  N
  N20      1.0000 0.03760  0.66790  0.64130  Biso   1.000  N
  N21      1.0000 0.92390  0.10810  0.35760  Biso   1.000  N
  N22      1.0000 0.07610  0.89190  0.64240  Biso   1.000  N
  N23      1.0000 0.16880  0.13220  0.33020  Biso   1.000  N
  N24      1.0000 0.83120  0.86780  0.66980  Biso   1.000  N
  N25      1.0000 0.25050  0.37270  0.36100  Biso   1.000  N
  N26      1.0000 0.74950  0.62730  0.63900  Biso   1.000  N
  C1       1.0000 0.49680  0.95710  0.61540  Biso   1.000  C
  C2       1.0000 0.50320  0.04290  0.38460  Biso   1.000  C
  C3       1.0000 0.39910  0.09160  0.53000  Biso   1.000  C
  C4       1.0000 0.60090  0.90840  0.47000  Biso   1.000  C
  C5       1.0000 0.34310  0.85820  0.42520  Biso   1.000  C
  C6       1.0000 0.65690  0.14180  0.57480  Biso   1.000  C
  C7       1.0000 0.15780  0.99930  0.06870  Biso   1.000  C
  C8       1.0000 0.84220  0.00070  0.93130  Biso   1.000  C
  C9       1.0000 0.01310  0.12440  0.10920  Biso   1.000  C
  C10      1.0000 0.98690  0.87560  0.89080  Biso   1.000  C
  C11      1.0000 0.09450  0.11940  0.94810  Biso   1.000  C
  C12      1.0000 0.90550  0.88060  0.05190  Biso   1.000  C
  C13      1.0000 0.50990  0.23090  0.13870  Biso   1.000  C
  C14      1.0000 0.49010  0.76910  0.86130  Biso   1.000  C
  H5       1.0000 0.43250  0.23180  0.14630  Biso   1.000  H
  H6       1.0000 0.56750  0.76820  0.85370  Biso   1.000  H
  C15      1.0000 0.60130  0.33790  0.13750  Biso   1.000  C
  C16      1.0000 0.39870  0.66210  0.86250  Biso   1.000  C
  H7       1.0000 0.58690  0.40920  0.14440  Biso   1.000  H
  H8       1.0000 0.41310  0.59080  0.85560  Biso   1.000  H
  C17      1.0000 0.71790  0.33430  0.12520  Biso   1.000  C
  C18      1.0000 0.28210  0.66570  0.87480  Biso   1.000  C
  H9       1.0000 0.78280  0.40390  0.12410  Biso   1.000  H
  H10      1.0000 0.21720  0.59610  0.87590  Biso   1.000  H
  C19      1.0000 0.73390  0.22350  0.11460  Biso   1.000  C
  C20      1.0000 0.26610  0.77650  0.88540  Biso   1.000  C
  H11      1.0000 0.80880  0.21830  0.10470  Biso   1.000  H
  H12      1.0000 0.19120  0.78170  0.89530  Biso   1.000  H
  C21      1.0000 0.63820  0.12390  0.11910  Biso   1.000  C
  C22      1.0000 0.36180  0.87610  0.88090  Biso   1.000  C
  C23      1.0000 0.65110  0.01070  0.11880  Biso   1.000  C
  C24      1.0000 0.34890  0.98930  0.88120  Biso   1.000  C
  H13      1.0000 0.72430  0.99970  0.11060  Biso   1.000  H
  H14      1.0000 0.27570  0.00030  0.88940  Biso   1.000  H
  C25      1.0000 0.56930  0.81130  0.13410  Biso   1.000  C
  C26      1.0000 0.43070  0.18870  0.86590  Biso   1.000  C
  H15      1.0000 0.54180  0.75670  0.06770  Biso   1.000  H
  H16      1.0000 0.45820  0.24330  0.93230  Biso   1.000  H
  H17      1.0000 0.65910  0.82810  0.16300  Biso   1.000  H
  H18      1.0000 0.34090  0.17190  0.83700  Biso   1.000  H
  C27      1.0000 0.49570  0.74900  0.18750  Biso   1.000  C
  C28      1.0000 0.50430  0.25100  0.81250  Biso   1.000  C
  H19      1.0000 0.53610  0.79820  0.25580  Biso   1.000  H
  H20      1.0000 0.46390  0.20180  0.74420  Biso   1.000  H
  H21      1.0000 0.50670  0.67280  0.18110  Biso   1.000  H
  H22      1.0000 0.49330  0.32720  0.81890  Biso   1.000  H
  C29      1.0000 0.35920  0.71840  0.16730  Biso   1.000  C
  C30      1.0000 0.64080  0.28160  0.83270  Biso   1.000  C
  H23      1.0000 0.33050  0.67790  0.21320  Biso   1.000  H
  H24      1.0000 0.66950  0.32210  0.78680  Biso   1.000  H
  H25      1.0000 0.31600  0.65870  0.10250  Biso   1.000  H
  H26      1.0000 0.68400  0.34130  0.89750  Biso   1.000  H
  C31      1.0000 0.97500  0.43840  0.34830  Biso   1.000  C
  C32      1.0000 0.02500  0.56160  0.65170  Biso   1.000  C
  H27      1.0000 0.03530  0.47410  0.31890  Biso   1.000  H
  H28      1.0000 0.96470  0.52590  0.68110  Biso   1.000  H
  C33      1.0000 0.90280  0.50040  0.37860  Biso   1.000  C
  C34      1.0000 0.09720  0.49960  0.62140  Biso   1.000  C
  H29      1.0000 0.91700  0.57760  0.37240  Biso   1.000  H
  H30      1.0000 0.08300  0.42240  0.62760  Biso   1.000  H
  C35      1.0000 0.81040  0.44620  0.41790  Biso   1.000  C
  C36      1.0000 0.18960  0.55380  0.58210  Biso   1.000  C
  H31      1.0000 0.76170  0.48670  0.44000  Biso   1.000  H
  H32      1.0000 0.23830  0.51330  0.56000  Biso   1.000  H
  C37      1.0000 0.79010  0.33100  0.42450  Biso   1.000  C
  C38      1.0000 0.20990  0.66900  0.57550  Biso   1.000  C
  H33      1.0000 0.72570  0.29170  0.44920  Biso   1.000  H
  H34      1.0000 0.27430  0.70830  0.55080  Biso   1.000  H
  C39      1.0000 0.86640  0.27430  0.39390  Biso   1.000  C
  C40      1.0000 0.13360  0.72570  0.60610  Biso   1.000  C
  C41      1.0000 0.84940  0.15000  0.39130  Biso   1.000  C
  C42      1.0000 0.15060  0.85000  0.60870  Biso   1.000  C
  H35      1.0000 0.78640  0.10290  0.41340  Biso   1.000  H
  H36      1.0000 0.21360  0.89710  0.58660  Biso   1.000  H
  C43      1.0000 0.90490  0.98070  0.34420  Biso   1.000  C
  C44      1.0000 0.09510  0.01930  0.65580  Biso   1.000  C
  H37      1.0000 0.86310  0.93360  0.27550  Biso   1.000  H
  H38      1.0000 0.13690  0.06640  0.72450  Biso   1.000  H
  H39      1.0000 0.84820  0.94700  0.38030  Biso   1.000  H
  H40      1.0000 0.15180  0.05300  0.61970  Biso   1.000  H
  C45      1.0000 0.03110  0.96750  0.37850  Biso   1.000  C
  C46      1.0000 0.96890  0.03250  0.62150  Biso   1.000  C
  H41      1.0000 0.07600  0.01950  0.44580  Biso   1.000  H
  H42      1.0000 0.92400  0.98050  0.55420  Biso   1.000  H
  H43      1.0000 0.01250  0.88330  0.37660  Biso   1.000  H
  H44      1.0000 0.98750  0.11670  0.62340  Biso   1.000  H
  C47      1.0000 0.11860  0.00220  0.31600  Biso   1.000  C
  C48      1.0000 0.88140  0.99780  0.68400  Biso   1.000  C
  H45      1.0000 0.18970  0.97810  0.33270  Biso   1.000  H
  H46      1.0000 0.81030  0.02190  0.66730  Biso   1.000  H
  H47      1.0000 0.07040  0.95790  0.24760  Biso   1.000  H
  H48      1.0000 0.92960  0.04210  0.75240  Biso   1.000  H
  C49      1.0000 0.28850  0.19030  0.34110  Biso   1.000  C
  C50      1.0000 0.71150  0.80970  0.65890  Biso   1.000  C
  H49      1.0000 0.34360  0.15010  0.34020  Biso   1.000  H
  H50      1.0000 0.65640  0.84990  0.65980  Biso   1.000  H
  C51      1.0000 0.33510  0.32130  0.35500  Biso   1.000  C
  C52      1.0000 0.66490  0.67870  0.64500  Biso   1.000  C
  C53      1.0000 0.46140  0.38760  0.36170  Biso   1.000  C
  C54      1.0000 0.53860  0.61240  0.63830  Biso   1.000  C
  H51      1.0000 0.51780  0.34910  0.35830  Biso   1.000  H
  H52      1.0000 0.48220  0.65090  0.64170  Biso   1.000  H
  C55      1.0000 0.50330  0.51060  0.37320  Biso   1.000  C
  C56      1.0000 0.49670  0.48940  0.62680  Biso   1.000  C
  H53      1.0000 0.58710  0.55660  0.37590  Biso   1.000  H
  H54      1.0000 0.41290  0.44340  0.62410  Biso   1.000  H
  C57      1.0000 0.41690  0.56340  0.38080  Biso   1.000  C
  C58      1.0000 0.58310  0.43660  0.61920  Biso   1.000  C
  H55      1.0000 0.44220  0.64690  0.38980  Biso   1.000  H
  H56      1.0000 0.55780  0.35310  0.61020  Biso   1.000  H
  C59      1.0000 0.29320  0.49250  0.37490  Biso   1.000  C
  C60      1.0000 0.70680  0.50750  0.62510  Biso   1.000  C
  H57      1.0000 0.23650  0.53020  0.38090  Biso   1.000  H
  H58      1.0000 0.76350  0.46980  0.61910  Biso   1.000  H
