data_image0
_cell_length_a       6.8759
_cell_length_b       9.9926
_cell_length_c       17.875
_cell_angle_alpha    90
_cell_angle_beta     90
_cell_angle_gamma    90

_symmetry_space_group_name_H-M    "P 1"
_symmetry_int_tables_number       1

loop_
  _symmetry_equiv_pos_as_xyz
  'x, y, z'

loop_
  _atom_site_label
  _atom_site_occupancy
  _atom_site_fract_x
  _atom_site_fract_y
  _atom_site_fract_z
  _atom_site_thermal_displace_type
  _atom_site_B_iso_or_equiv
  _atom_site_type_symbol
  Au1      1.0000 0.50000  0.18990  0.23620  Biso   1.000  Au
  Au2      1.0000 0.00000  0.68990  0.23620  Biso   1.000  Au
  Au3      1.0000 0.50000  0.31010  0.73620  Biso   1.000  Au
  Au4      1.0000 0.00000  0.81010  0.73620  Biso   1.000  Au
  Au5      1.0000 0.50000  0.68990  0.26380  Biso   1.000  Au
  Au6      1.0000 0.00000  0.18990  0.26380  Biso   1.000  Au
  Au7      1.0000 0.50000  0.81010  0.76380  Biso   1.000  Au
  Au8      1.0000 0.00000  0.31010  0.76380  Biso   1.000  Au
  Cu1      1.0000 0.50000  0.00000  0.50000  Biso   1.000  Cu
  Cu2      1.0000 0.00000  0.50000  0.50000  Biso   1.000  Cu
  Cu3      1.0000 0.50000  0.50000  0.00000  Biso   1.000  Cu
  Cu4      1.0000 0.00000  0.00000  0.00000  Biso   1.000  Cu
  N1       1.0000 0.79780  0.00000  0.50000  Biso   1.000  N
  N2       1.0000 0.29780  0.50000  0.50000  Biso   1.000  N
  N3       1.0000 0.79780  0.50000  0.00000  Biso   1.000  N
  N4       1.0000 0.29780  0.00000  0.00000  Biso   1.000  N
  N5       1.0000 0.20220  0.00000  0.50000  Biso   1.000  N
  N6       1.0000 0.70220  0.50000  0.50000  Biso   1.000  N
  N7       1.0000 0.20220  0.50000  0.00000  Biso   1.000  N
  N8       1.0000 0.70220  0.00000  0.00000  Biso   1.000  N
  N9       1.0000 0.50000  0.09130  0.40170  Biso   1.000  N
  N10      1.0000 0.00000  0.59130  0.40170  Biso   1.000  N
  N11      1.0000 0.50000  0.40870  0.90170  Biso   1.000  N
  N12      1.0000 0.00000  0.90870  0.90170  Biso   1.000  N
  N13      1.0000 0.50000  0.59130  0.09830  Biso   1.000  N
  N14      1.0000 0.00000  0.09130  0.09830  Biso   1.000  N
  N15      1.0000 0.50000  0.90870  0.59830  Biso   1.000  N
  N16      1.0000 0.00000  0.40870  0.59830  Biso   1.000  N
  N17      1.0000 0.50000  0.20650  0.57070  Biso   1.000  N
  N18      1.0000 0.00000  0.70650  0.57070  Biso   1.000  N
  N19      1.0000 0.50000  0.29350  0.07070  Biso   1.000  N
  N20      1.0000 0.00000  0.79350  0.07070  Biso   1.000  N
  N21      1.0000 0.50000  0.70650  0.92930  Biso   1.000  N
  N22      1.0000 0.00000  0.20650  0.92930  Biso   1.000  N
  N23      1.0000 0.50000  0.79350  0.42930  Biso   1.000  N
  N24      1.0000 0.00000  0.29350  0.42930  Biso   1.000  N
  C1       1.0000 0.90030  0.05180  0.55670  Biso   1.000  C
  C2       1.0000 0.40030  0.55180  0.55670  Biso   1.000  C
  C3       1.0000 0.90030  0.44820  0.05670  Biso   1.000  C
  C4       1.0000 0.40030  0.94820  0.05670  Biso   1.000  C
  C5       1.0000 0.90030  0.55180  0.94330  Biso   1.000  C
  C6       1.0000 0.40030  0.05180  0.94330  Biso   1.000  C
  C7       1.0000 0.09970  0.05180  0.55670  Biso   1.000  C
  C8       1.0000 0.59970  0.55180  0.55670  Biso   1.000  C
  C9       1.0000 0.09970  0.94820  0.44330  Biso   1.000  C
  C10      1.0000 0.59970  0.44820  0.44330  Biso   1.000  C
  C11      1.0000 0.09970  0.55180  0.94330  Biso   1.000  C
  C12      1.0000 0.59970  0.05180  0.94330  Biso   1.000  C
  C13      1.0000 0.09970  0.44820  0.05670  Biso   1.000  C
  C14      1.0000 0.59970  0.94820  0.05670  Biso   1.000  C
  C15      1.0000 0.90030  0.94820  0.44330  Biso   1.000  C
  C16      1.0000 0.40030  0.44820  0.44330  Biso   1.000  C
  C17      1.0000 0.50000  0.12940  0.34160  Biso   1.000  C
  C18      1.0000 0.00000  0.62940  0.34160  Biso   1.000  C
  C19      1.0000 0.50000  0.37060  0.84160  Biso   1.000  C
  C20      1.0000 0.00000  0.87060  0.84160  Biso   1.000  C
  C21      1.0000 0.50000  0.62940  0.15840  Biso   1.000  C
  C22      1.0000 0.00000  0.12940  0.15840  Biso   1.000  C
  C23      1.0000 0.50000  0.87060  0.65840  Biso   1.000  C
  C24      1.0000 0.00000  0.37060  0.65840  Biso   1.000  C
  C25      1.0000 0.50000  0.24890  0.63060  Biso   1.000  C
  C26      1.0000 0.00000  0.74890  0.63060  Biso   1.000  C
  C27      1.0000 0.50000  0.25110  0.13060  Biso   1.000  C
  C28      1.0000 0.00000  0.75110  0.13060  Biso   1.000  C
  C29      1.0000 0.50000  0.74890  0.86940  Biso   1.000  C
  C30      1.0000 0.00000  0.24890  0.86940  Biso   1.000  C
  C31      1.0000 0.50000  0.75110  0.36940  Biso   1.000  C
  C32      1.0000 0.00000  0.25110  0.36940  Biso   1.000  C
  H1       1.0000 0.83290  0.08630  0.59710  Biso   1.000  H
  H2       1.0000 0.33290  0.58630  0.59710  Biso   1.000  H
  H3       1.0000 0.83290  0.41370  0.09710  Biso   1.000  H
  H4       1.0000 0.33290  0.91370  0.09710  Biso   1.000  H
  H5       1.0000 0.83290  0.58630  0.90290  Biso   1.000  H
  H6       1.0000 0.33290  0.08630  0.90290  Biso   1.000  H
  H7       1.0000 0.16710  0.08630  0.59710  Biso   1.000  H
  H8       1.0000 0.66710  0.58630  0.59710  Biso   1.000  H
  H9       1.0000 0.16710  0.91370  0.40290  Biso   1.000  H
  H10      1.0000 0.66710  0.41370  0.40290  Biso   1.000  H
  H11      1.0000 0.16710  0.58630  0.90290  Biso   1.000  H
  H12      1.0000 0.66710  0.08630  0.90290  Biso   1.000  H
  H13      1.0000 0.16710  0.41370  0.09710  Biso   1.000  H
  H14      1.0000 0.66710  0.91370  0.09710  Biso   1.000  H
  H15      1.0000 0.83290  0.91370  0.40290  Biso   1.000  H
  H16      1.0000 0.33290  0.41370  0.40290  Biso   1.000  H
