data_image0
_cell_length_a       6.5782
_cell_length_b       8.855
_cell_length_c       10.7
_cell_angle_alpha    68.458
_cell_angle_beta     83.528
_cell_angle_gamma    68.646

_symmetry_space_group_name_H-M    "P 1"
_symmetry_int_tables_number       1

loop_
  _symmetry_equiv_pos_as_xyz
  'x, y, z'

loop_
  _atom_site_label
  _atom_site_occupancy
  _atom_site_fract_x
  _atom_site_fract_y
  _atom_site_fract_z
  _atom_site_thermal_displace_type
  _atom_site_B_iso_or_equiv
  _atom_site_type_symbol
  Cu1      1.0000 0.11295  0.30530  0.04668  Biso   1.000  Cu
  Cu2      1.0000 0.88705  0.69470  0.95332  Biso   1.000  Cu
  Cu3      1.0000 0.50000  0.00000  0.00000  Biso   1.000  Cu
  C1       1.0000 0.74010  0.11260  0.36530  Biso   1.000  C
  C2       1.0000 0.25990  0.88740  0.63470  Biso   1.000  C
  H1       1.0000 0.82360  0.05550  0.30920  Biso   1.000  H
  H2       1.0000 0.17640  0.94450  0.69080  Biso   1.000  H
  C3       1.0000 0.75160  0.02190  0.49900  Biso   1.000  C
  C4       1.0000 0.24840  0.97810  0.50100  Biso   1.000  C
  H3       1.0000 0.84190  0.90630  0.53170  Biso   1.000  H
  H4       1.0000 0.15810  0.09370  0.46830  Biso   1.000  H
  C5       1.0000 0.63270  0.09810  0.58540  Biso   1.000  C
  C6       1.0000 0.36730  0.90190  0.41460  Biso   1.000  C
  C7       1.0000 0.65300  0.00120  0.73270  Biso   1.000  C
  C8       1.0000 0.34700  0.99880  0.26730  Biso   1.000  C
  C9       1.0000 0.48810  0.27160  0.53150  Biso   1.000  C
  C10      1.0000 0.51190  0.72840  0.46850  Biso   1.000  C
  H5       1.0000 0.39920  0.32470  0.58850  Biso   1.000  H
  H6       1.0000 0.60080  0.67530  0.41150  Biso   1.000  H
  C11      1.0000 0.61290  0.28380  0.30750  Biso   1.000  C
  C12      1.0000 0.38710  0.71620  0.69250  Biso   1.000  C
  O1       1.0000 0.51890  0.06990  0.80490  Biso   1.000  O
  O2       1.0000 0.48110  0.93010  0.19510  Biso   1.000  O
  O3       1.0000 0.48200  0.29290  0.98670  Biso   1.000  O
  O4       1.0000 0.51800  0.70710  0.01330  Biso   1.000  O
  O5       1.0000 0.62530  0.35830  0.18370  Biso   1.000  O
  O6       1.0000 0.37470  0.64170  0.81630  Biso   1.000  O
  O7       1.0000 0.80550  0.85610  0.77140  Biso   1.000  O
  O8       1.0000 0.19450  0.14390  0.22860  Biso   1.000  O
  N1       1.0000 0.17480  0.11690  0.97570  Biso   1.000  N
  N2       1.0000 0.82520  0.88310  0.02430  Biso   1.000  N
  N3       1.0000 0.96410  0.49980  0.88410  Biso   1.000  N
  N4       1.0000 0.03590  0.50020  0.11590  Biso   1.000  N
  N5       1.0000 0.01630  0.52030  0.76870  Biso   1.000  N
  N6       1.0000 0.98370  0.47970  0.23130  Biso   1.000  N
  N7       1.0000 0.08720  0.13860  0.87140  Biso   1.000  N
  N8       1.0000 0.91280  0.86140  0.12860  Biso   1.000  N
  N9       1.0000 0.05920  0.54230  0.65900  Biso   1.000  N
  N10      1.0000 0.94080  0.45770  0.34100  Biso   1.000  N
  N11      1.0000 0.00440  0.15380  0.77740  Biso   1.000  N
  N12      1.0000 0.99560  0.84620  0.22260  Biso   1.000  N
  N13      1.0000 0.47820  0.36090  0.39740  Biso   1.000  N
  N14      1.0000 0.52180  0.63910  0.60260  Biso   1.000  N
