data_image0
_cell_length_a       15.319
_cell_length_b       16.158
_cell_length_c       13.688
_cell_angle_alpha    90
_cell_angle_beta     90
_cell_angle_gamma    90

_symmetry_space_group_name_H-M    "P 1"
_symmetry_int_tables_number       1

loop_
  _symmetry_equiv_pos_as_xyz
  'x, y, z'

loop_
  _atom_site_label
  _atom_site_occupancy
  _atom_site_fract_x
  _atom_site_fract_y
  _atom_site_fract_z
  _atom_site_thermal_displace_type
  _atom_site_B_iso_or_equiv
  _atom_site_type_symbol
  Cu1      1.0000 0.50000  0.80990  0.75000  Biso   1.000  Cu
  Cu2      1.0000 0.00000  0.69010  0.25000  Biso   1.000  Cu
  Cu3      1.0000 0.50000  0.19010  0.25000  Biso   1.000  Cu
  Cu4      1.0000 0.00000  0.30990  0.75000  Biso   1.000  Cu
  C1       1.0000 0.91297  0.15661  0.81714  Biso   1.000  C
  C2       1.0000 0.58703  0.34339  0.31714  Biso   1.000  C
  C3       1.0000 0.41297  0.34339  0.18286  Biso   1.000  C
  C4       1.0000 0.08703  0.15661  0.68286  Biso   1.000  C
  C5       1.0000 0.08703  0.84339  0.18286  Biso   1.000  C
  C6       1.0000 0.41297  0.65661  0.68286  Biso   1.000  C
  C7       1.0000 0.58703  0.65661  0.81714  Biso   1.000  C
  C8       1.0000 0.91297  0.84339  0.31714  Biso   1.000  C
  H1       1.0000 0.96100  0.15380  0.85860  Biso   1.000  H
  H2       1.0000 0.53900  0.34620  0.35860  Biso   1.000  H
  H3       1.0000 0.46100  0.34620  0.14140  Biso   1.000  H
  H4       1.0000 0.03900  0.15380  0.64140  Biso   1.000  H
  H5       1.0000 0.03900  0.84620  0.14140  Biso   1.000  H
  H6       1.0000 0.46100  0.65380  0.64140  Biso   1.000  H
  H7       1.0000 0.53900  0.65380  0.85860  Biso   1.000  H
  H8       1.0000 0.96100  0.84620  0.35860  Biso   1.000  H
  C9       1.0000 0.78011  0.09591  0.75910  Biso   1.000  C
  C10      1.0000 0.71989  0.40409  0.25910  Biso   1.000  C
  C11      1.0000 0.28011  0.40409  0.24090  Biso   1.000  C
  C12      1.0000 0.21989  0.09591  0.74090  Biso   1.000  C
  C13      1.0000 0.21989  0.90409  0.24090  Biso   1.000  C
  C14      1.0000 0.28011  0.59591  0.74090  Biso   1.000  C
  C15      1.0000 0.71989  0.59591  0.75910  Biso   1.000  C
  C16      1.0000 0.78011  0.90409  0.25910  Biso   1.000  C
  C17      1.0000 0.59682  0.95502  0.68170  Biso   1.000  C
  C18      1.0000 0.90318  0.54498  0.18170  Biso   1.000  C
  C19      1.0000 0.09682  0.54498  0.31830  Biso   1.000  C
  C20      1.0000 0.40318  0.95502  0.81830  Biso   1.000  C
  C21      1.0000 0.40318  0.04498  0.31830  Biso   1.000  C
  C22      1.0000 0.09682  0.45502  0.81830  Biso   1.000  C
  C23      1.0000 0.90318  0.45502  0.68170  Biso   1.000  C
  C24      1.0000 0.59682  0.04498  0.18170  Biso   1.000  C
  H9       1.0000 0.55820  0.95010  0.62960  Biso   1.000  H
  H10      1.0000 0.94180  0.54990  0.12960  Biso   1.000  H
  H11      1.0000 0.05820  0.54990  0.37040  Biso   1.000  H
  H12      1.0000 0.44180  0.95010  0.87040  Biso   1.000  H
  H13      1.0000 0.44180  0.04990  0.37040  Biso   1.000  H
  H14      1.0000 0.05820  0.45010  0.87040  Biso   1.000  H
  H15      1.0000 0.94180  0.45010  0.62960  Biso   1.000  H
  H16      1.0000 0.55820  0.04990  0.12960  Biso   1.000  H
  C25      1.0000 0.71502  0.02809  0.75799  Biso   1.000  C
  C26      1.0000 0.78498  0.47191  0.25799  Biso   1.000  C
  C27      1.0000 0.21502  0.47191  0.24201  Biso   1.000  C
  C28      1.0000 0.28498  0.02809  0.74201  Biso   1.000  C
  C29      1.0000 0.28498  0.97191  0.24201  Biso   1.000  C
  C30      1.0000 0.21502  0.52809  0.74201  Biso   1.000  C
  C31      1.0000 0.78498  0.52809  0.75799  Biso   1.000  C
  C32      1.0000 0.71502  0.97191  0.25799  Biso   1.000  C
  C33      1.0000 0.77261  0.16433  0.69750  Biso   1.000  C
  C34      1.0000 0.72739  0.33567  0.19750  Biso   1.000  C
  C35      1.0000 0.27261  0.33567  0.30250  Biso   1.000  C
  C36      1.0000 0.22739  0.16433  0.80250  Biso   1.000  C
  C37      1.0000 0.22739  0.83567  0.30250  Biso   1.000  C
  C38      1.0000 0.27261  0.66433  0.80250  Biso   1.000  C
  C39      1.0000 0.72739  0.66433  0.69750  Biso   1.000  C
  C40      1.0000 0.77261  0.83567  0.19750  Biso   1.000  C
  H17      1.0000 0.72480  0.16910  0.65600  Biso   1.000  H
  H18      1.0000 0.77520  0.33090  0.15600  Biso   1.000  H
  H19      1.0000 0.22480  0.33090  0.34400  Biso   1.000  H
  H20      1.0000 0.27520  0.16910  0.84400  Biso   1.000  H
  H21      1.0000 0.27520  0.83090  0.34400  Biso   1.000  H
  H22      1.0000 0.22480  0.66910  0.84400  Biso   1.000  H
  H23      1.0000 0.77520  0.66910  0.65600  Biso   1.000  H
  H24      1.0000 0.72480  0.83090  0.15600  Biso   1.000  H
  C41      1.0000 0.65678  0.01887  0.68069  Biso   1.000  C
  C42      1.0000 0.84322  0.48113  0.18069  Biso   1.000  C
  C43      1.0000 0.15678  0.48113  0.31931  Biso   1.000  C
  C44      1.0000 0.34322  0.01887  0.81931  Biso   1.000  C
  C45      1.0000 0.34322  0.98113  0.31931  Biso   1.000  C
  C46      1.0000 0.15678  0.51887  0.81931  Biso   1.000  C
  C47      1.0000 0.84322  0.51887  0.68069  Biso   1.000  C
  C48      1.0000 0.65678  0.98113  0.18069  Biso   1.000  C
  H25      1.0000 0.65820  0.05560  0.62850  Biso   1.000  H
  H26      1.0000 0.84180  0.44440  0.12850  Biso   1.000  H
  H27      1.0000 0.15820  0.44440  0.37150  Biso   1.000  H
  H28      1.0000 0.34180  0.05560  0.87150  Biso   1.000  H
  H29      1.0000 0.34180  0.94440  0.37150  Biso   1.000  H
  H30      1.0000 0.15820  0.55560  0.87150  Biso   1.000  H
  H31      1.0000 0.84180  0.55560  0.62850  Biso   1.000  H
  H32      1.0000 0.65820  0.94440  0.12850  Biso   1.000  H
  C49      1.0000 0.64825  0.90793  0.82900  Biso   1.000  C
  C50      1.0000 0.85175  0.59207  0.32900  Biso   1.000  C
  C51      1.0000 0.14825  0.59207  0.17100  Biso   1.000  C
  C52      1.0000 0.35175  0.90793  0.67100  Biso   1.000  C
  C53      1.0000 0.35175  0.09207  0.17100  Biso   1.000  C
  C54      1.0000 0.14825  0.40793  0.67100  Biso   1.000  C
  C55      1.0000 0.85175  0.40793  0.82900  Biso   1.000  C
  C56      1.0000 0.64825  0.09207  0.32900  Biso   1.000  C
  H33      1.0000 0.64590  0.86970  0.87980  Biso   1.000  H
  H34      1.0000 0.85410  0.63030  0.37980  Biso   1.000  H
  H35      1.0000 0.14590  0.63030  0.12020  Biso   1.000  H
  H36      1.0000 0.35410  0.86970  0.62020  Biso   1.000  H
  H37      1.0000 0.35410  0.13030  0.12020  Biso   1.000  H
  H38      1.0000 0.14590  0.36970  0.62020  Biso   1.000  H
  H39      1.0000 0.85410  0.36970  0.87980  Biso   1.000  H
  H40      1.0000 0.64590  0.13030  0.37980  Biso   1.000  H
  C57      1.0000 0.83594  0.22469  0.69804  Biso   1.000  C
  C58      1.0000 0.66406  0.27531  0.19804  Biso   1.000  C
  C59      1.0000 0.33594  0.27531  0.30196  Biso   1.000  C
  C60      1.0000 0.16406  0.22469  0.80196  Biso   1.000  C
  C61      1.0000 0.16406  0.77531  0.30196  Biso   1.000  C
  C62      1.0000 0.33594  0.72469  0.80196  Biso   1.000  C
  C63      1.0000 0.66406  0.72469  0.69804  Biso   1.000  C
  C64      1.0000 0.83594  0.77531  0.19804  Biso   1.000  C
  H41      1.0000 0.82990  0.26950  0.65590  Biso   1.000  H
  H42      1.0000 0.67010  0.23050  0.15590  Biso   1.000  H
  H43      1.0000 0.32990  0.23050  0.34410  Biso   1.000  H
  H44      1.0000 0.17010  0.26950  0.84410  Biso   1.000  H
  H45      1.0000 0.17010  0.73050  0.34410  Biso   1.000  H
  H46      1.0000 0.32990  0.76950  0.84410  Biso   1.000  H
  H47      1.0000 0.67010  0.76950  0.65590  Biso   1.000  H
  H48      1.0000 0.82990  0.73050  0.15590  Biso   1.000  H
  C65      1.0000 0.85217  0.09358  0.82070  Biso   1.000  C
  C66      1.0000 0.64783  0.40642  0.32070  Biso   1.000  C
  C67      1.0000 0.35217  0.40642  0.17930  Biso   1.000  C
  C68      1.0000 0.14783  0.09358  0.67930  Biso   1.000  C
  C69      1.0000 0.14783  0.90642  0.17930  Biso   1.000  C
  C70      1.0000 0.35217  0.59358  0.67930  Biso   1.000  C
  C71      1.0000 0.64783  0.59358  0.82070  Biso   1.000  C
  C72      1.0000 0.85217  0.90642  0.32070  Biso   1.000  C
  H49      1.0000 0.85940  0.04980  0.86410  Biso   1.000  H
  H50      1.0000 0.64060  0.45020  0.36410  Biso   1.000  H
  H51      1.0000 0.35940  0.45020  0.13590  Biso   1.000  H
  H52      1.0000 0.14060  0.04980  0.63590  Biso   1.000  H
  H53      1.0000 0.14060  0.95020  0.13590  Biso   1.000  H
  H54      1.0000 0.35940  0.54980  0.63590  Biso   1.000  H
  H55      1.0000 0.64060  0.54980  0.86410  Biso   1.000  H
  H56      1.0000 0.85940  0.95020  0.36410  Biso   1.000  H
  C73      1.0000 0.70942  0.97056  0.83342  Biso   1.000  C
  C74      1.0000 0.79058  0.52944  0.33342  Biso   1.000  C
  C75      1.0000 0.20942  0.52944  0.16658  Biso   1.000  C
  C76      1.0000 0.29058  0.97056  0.66658  Biso   1.000  C
  C77      1.0000 0.29058  0.02944  0.16658  Biso   1.000  C
  C78      1.0000 0.20942  0.47056  0.66658  Biso   1.000  C
  C79      1.0000 0.79058  0.47056  0.83342  Biso   1.000  C
  C80      1.0000 0.70942  0.02944  0.33342  Biso   1.000  C
  H57      1.0000 0.74680  0.97430  0.88670  Biso   1.000  H
  H58      1.0000 0.75320  0.52570  0.38670  Biso   1.000  H
  H59      1.0000 0.24680  0.52570  0.11330  Biso   1.000  H
  H60      1.0000 0.25320  0.97430  0.61330  Biso   1.000  H
  H61      1.0000 0.25320  0.02570  0.11330  Biso   1.000  H
  H62      1.0000 0.24680  0.47430  0.61330  Biso   1.000  H
  H63      1.0000 0.75320  0.47430  0.88670  Biso   1.000  H
  H64      1.0000 0.74680  0.02570  0.38670  Biso   1.000  H
  N1       1.0000 0.59205  0.89994  0.75449  Biso   1.000  N
  N2       1.0000 0.90795  0.60006  0.25449  Biso   1.000  N
  N3       1.0000 0.09205  0.60006  0.24551  Biso   1.000  N
  N4       1.0000 0.40795  0.89994  0.74551  Biso   1.000  N
  N5       1.0000 0.40795  0.10006  0.24551  Biso   1.000  N
  N6       1.0000 0.09205  0.39994  0.74551  Biso   1.000  N
  N7       1.0000 0.90795  0.39994  0.75449  Biso   1.000  N
  N8       1.0000 0.59205  0.10006  0.25449  Biso   1.000  N
  N9       1.0000 0.90610  0.22168  0.75687  Biso   1.000  N
  N10      1.0000 0.59390  0.27832  0.25687  Biso   1.000  N
  N11      1.0000 0.40610  0.27832  0.24313  Biso   1.000  N
  N12      1.0000 0.09390  0.22168  0.74313  Biso   1.000  N
  N13      1.0000 0.09390  0.77832  0.24313  Biso   1.000  N
  N14      1.0000 0.40610  0.72168  0.74313  Biso   1.000  N
  N15      1.0000 0.59390  0.72168  0.75687  Biso   1.000  N
  N16      1.0000 0.90610  0.77832  0.25687  Biso   1.000  N
  O1       1.0000 0.47293  0.69714  0.03670  Biso   1.000  O
  O2       1.0000 0.02707  0.80286  0.53670  Biso   1.000  O
  O3       1.0000 0.97293  0.80286  0.96330  Biso   1.000  O
  O4       1.0000 0.52707  0.69714  0.46330  Biso   1.000  O
  O5       1.0000 0.52707  0.30286  0.96330  Biso   1.000  O
  O6       1.0000 0.97293  0.19714  0.46330  Biso   1.000  O
  O7       1.0000 0.02707  0.19714  0.03670  Biso   1.000  O
  O8       1.0000 0.47293  0.30286  0.53670  Biso   1.000  O
  O9       1.0000 0.58640  0.79758  0.06030  Biso   1.000  O
  O10      1.0000 0.91360  0.70242  0.56030  Biso   1.000  O
  O11      1.0000 0.08640  0.70242  0.93970  Biso   1.000  O
  O12      1.0000 0.41360  0.79758  0.43970  Biso   1.000  O
  O13      1.0000 0.41360  0.20242  0.93970  Biso   1.000  O
  O14      1.0000 0.08640  0.29758  0.43970  Biso   1.000  O
  O15      1.0000 0.91360  0.29758  0.06030  Biso   1.000  O
  O16      1.0000 0.58640  0.20242  0.56030  Biso   1.000  O
  O17      1.0000 0.48839  0.80762  0.92320  Biso   1.000  O
  O18      1.0000 0.01161  0.69238  0.42320  Biso   1.000  O
  O19      1.0000 0.98839  0.69238  0.07680  Biso   1.000  O
  O20      1.0000 0.51161  0.80762  0.57680  Biso   1.000  O
  O21      1.0000 0.51161  0.19238  0.07680  Biso   1.000  O
  O22      1.0000 0.98839  0.30762  0.57680  Biso   1.000  O
  O23      1.0000 0.01161  0.30762  0.92320  Biso   1.000  O
  O24      1.0000 0.48839  0.19238  0.42320  Biso   1.000  O
  F1       1.0000 0.45053  0.92376  0.07890  Biso   1.000  F
  F2       1.0000 0.04947  0.57624  0.57890  Biso   1.000  F
  F3       1.0000 0.95053  0.57624  0.92110  Biso   1.000  F
  F4       1.0000 0.54947  0.92376  0.42110  Biso   1.000  F
  F5       1.0000 0.54947  0.07624  0.92110  Biso   1.000  F
  F6       1.0000 0.95053  0.42376  0.42110  Biso   1.000  F
  F7       1.0000 0.04947  0.42376  0.07890  Biso   1.000  F
  F8       1.0000 0.45053  0.07624  0.57890  Biso   1.000  F
  F9       1.0000 0.34696  0.83466  0.05820  Biso   1.000  F
  F10      1.0000 0.15304  0.66534  0.55820  Biso   1.000  F
  F11      1.0000 0.84696  0.66534  0.94180  Biso   1.000  F
  F12      1.0000 0.65304  0.83466  0.44180  Biso   1.000  F
  F13      1.0000 0.65304  0.16534  0.94180  Biso   1.000  F
  F14      1.0000 0.84696  0.33466  0.44180  Biso   1.000  F
  F15      1.0000 0.15304  0.33466  0.05820  Biso   1.000  F
  F16      1.0000 0.34696  0.16534  0.55820  Biso   1.000  F
  F17      1.0000 0.42675  0.82170  0.18400  Biso   1.000  F
  F18      1.0000 0.07325  0.67830  0.68400  Biso   1.000  F
  F19      1.0000 0.92675  0.67830  0.81600  Biso   1.000  F
  F20      1.0000 0.57325  0.82170  0.31600  Biso   1.000  F
  F21      1.0000 0.57325  0.17830  0.81600  Biso   1.000  F
  F22      1.0000 0.92675  0.32170  0.31600  Biso   1.000  F
  F23      1.0000 0.07325  0.32170  0.18400  Biso   1.000  F
  F24      1.0000 0.42675  0.17830  0.68400  Biso   1.000  F
  S1       1.0000 0.50322  0.77971  0.01992  Biso   1.000  S
  S2       1.0000 0.99678  0.72029  0.51992  Biso   1.000  S
  S3       1.0000 0.00322  0.72029  0.98008  Biso   1.000  S
  S4       1.0000 0.49678  0.77971  0.48008  Biso   1.000  S
  S5       1.0000 0.49678  0.22029  0.98008  Biso   1.000  S
  S6       1.0000 0.00322  0.27971  0.48008  Biso   1.000  S
  S7       1.0000 0.99678  0.27971  0.01992  Biso   1.000  S
  S8       1.0000 0.50322  0.22029  0.51992  Biso   1.000  S
  C81      1.0000 0.42830  0.84450  0.08940  Biso   1.000  C
  C82      1.0000 0.07170  0.65550  0.58940  Biso   1.000  C
  C83      1.0000 0.92830  0.65550  0.91060  Biso   1.000  C
  C84      1.0000 0.57170  0.84450  0.41060  Biso   1.000  C
  C85      1.0000 0.57170  0.15550  0.91060  Biso   1.000  C
  C86      1.0000 0.92830  0.34450  0.41060  Biso   1.000  C
  C87      1.0000 0.07170  0.34450  0.08940  Biso   1.000  C
  C88      1.0000 0.42830  0.15550  0.58940  Biso   1.000  C
  S9       1.0000 0.50420  0.83010  0.02720  Biso   1.000  S
  S10      1.0000 0.99580  0.66990  0.52720  Biso   1.000  S
  S11      1.0000 0.00420  0.66990  0.97280  Biso   1.000  S
  S12      1.0000 0.49580  0.83010  0.47280  Biso   1.000  S
  S13      1.0000 0.49580  0.16990  0.97280  Biso   1.000  S
  S14      1.0000 0.00420  0.33010  0.47280  Biso   1.000  S
  S15      1.0000 0.99580  0.33010  0.02720  Biso   1.000  S
  S16      1.0000 0.50420  0.16990  0.52720  Biso   1.000  S
  F25      1.0000 0.40560  0.71090  0.09050  Biso   1.000  F
  F26      1.0000 0.09440  0.78910  0.59050  Biso   1.000  F
  F27      1.0000 0.90560  0.78910  0.90950  Biso   1.000  F
  F28      1.0000 0.59440  0.71090  0.40950  Biso   1.000  F
  F29      1.0000 0.59440  0.28910  0.90950  Biso   1.000  F
  F30      1.0000 0.90560  0.21090  0.40950  Biso   1.000  F
  F31      1.0000 0.09440  0.21090  0.09050  Biso   1.000  F
  F32      1.0000 0.40560  0.28910  0.59050  Biso   1.000  F
  C89      1.0000 0.41140  0.79130  0.09580  Biso   1.000  C
  C90      1.0000 0.08860  0.70870  0.59580  Biso   1.000  C
  C91      1.0000 0.91140  0.70870  0.90420  Biso   1.000  C
  C92      1.0000 0.58860  0.79130  0.40420  Biso   1.000  C
  C93      1.0000 0.58860  0.20870  0.90420  Biso   1.000  C
  C94      1.0000 0.91140  0.29130  0.40420  Biso   1.000  C
  C95      1.0000 0.08860  0.29130  0.09580  Biso   1.000  C
  C96      1.0000 0.41140  0.20870  0.59580  Biso   1.000  C
  O25      1.0000 0.49950  0.91860  0.03820  Biso   1.000  O
  O26      1.0000 0.00050  0.58140  0.53820  Biso   1.000  O
  O27      1.0000 0.99950  0.58140  0.96180  Biso   1.000  O
  O28      1.0000 0.50050  0.91860  0.46180  Biso   1.000  O
  O29      1.0000 0.50050  0.08140  0.96180  Biso   1.000  O
  O30      1.0000 0.99950  0.41860  0.46180  Biso   1.000  O
  O31      1.0000 0.00050  0.41860  0.03820  Biso   1.000  O
  O32      1.0000 0.49950  0.08140  0.53820  Biso   1.000  O
