data_image0
_cell_length_a       16.743
_cell_length_b       14.723
_cell_length_c       14.352
_cell_angle_alpha    90
_cell_angle_beta     90
_cell_angle_gamma    90

_symmetry_space_group_name_H-M    "P 1"
_symmetry_int_tables_number       1

loop_
  _symmetry_equiv_pos_as_xyz
  'x, y, z'

loop_
  _atom_site_label
  _atom_site_occupancy
  _atom_site_fract_x
  _atom_site_fract_y
  _atom_site_fract_z
  _atom_site_thermal_displace_type
  _atom_site_B_iso_or_equiv
  _atom_site_type_symbol
  O1       1.0000 0.11640  0.92720  0.58850  Biso   1.000  O
  O2       1.0000 0.88360  0.07280  0.08850  Biso   1.000  O
  O3       1.0000 0.38360  0.42720  0.08850  Biso   1.000  O
  O4       1.0000 0.61640  0.57280  0.58850  Biso   1.000  O
  H1       1.0000 0.16430  0.92790  0.60050  Biso   1.000  H
  H2       1.0000 0.83570  0.07210  0.10050  Biso   1.000  H
  H3       1.0000 0.33570  0.42790  0.10050  Biso   1.000  H
  H4       1.0000 0.66430  0.57210  0.60050  Biso   1.000  H
  C1       1.0000 0.08480  0.83910  0.60790  Biso   1.000  C
  C2       1.0000 0.91520  0.16090  0.10790  Biso   1.000  C
  C3       1.0000 0.41520  0.33910  0.10790  Biso   1.000  C
  C4       1.0000 0.58480  0.66090  0.60790  Biso   1.000  C
  H5       1.0000 0.09170  0.82380  0.67320  Biso   1.000  H
  H6       1.0000 0.90830  0.17620  0.17320  Biso   1.000  H
  H7       1.0000 0.40830  0.32380  0.17320  Biso   1.000  H
  H8       1.0000 0.59170  0.67620  0.67320  Biso   1.000  H
  H9       1.0000 0.11130  0.79330  0.57030  Biso   1.000  H
  H10      1.0000 0.88870  0.20670  0.07030  Biso   1.000  H
  H11      1.0000 0.38870  0.29330  0.07030  Biso   1.000  H
  H12      1.0000 0.61130  0.70670  0.57030  Biso   1.000  H
  C5       1.0000 0.99690  0.84520  0.58310  Biso   1.000  C
  C6       1.0000 0.00310  0.15480  0.08310  Biso   1.000  C
  C7       1.0000 0.50310  0.34520  0.08310  Biso   1.000  C
  C8       1.0000 0.49690  0.65480  0.58310  Biso   1.000  C
  H13      1.0000 0.97300  0.89470  0.61660  Biso   1.000  H
  H14      1.0000 0.02700  0.10530  0.11660  Biso   1.000  H
  H15      1.0000 0.52700  0.39470  0.11660  Biso   1.000  H
  H16      1.0000 0.47300  0.60530  0.61660  Biso   1.000  H
  H17      1.0000 0.97080  0.78950  0.59980  Biso   1.000  H
  H18      1.0000 0.02920  0.21050  0.09980  Biso   1.000  H
  H19      1.0000 0.52920  0.28950  0.09980  Biso   1.000  H
  H20      1.0000 0.47080  0.71050  0.59980  Biso   1.000  H
  H21      1.0000 0.99140  0.85540  0.51740  Biso   1.000  H
  H22      1.0000 0.00860  0.14460  0.01740  Biso   1.000  H
  H23      1.0000 0.50860  0.35540  0.01740  Biso   1.000  H
  H24      1.0000 0.49140  0.64460  0.51740  Biso   1.000  H
  C9       1.0000 0.90330  0.94780  0.33420  Biso   1.000  C
  C10      1.0000 0.09670  0.05220  0.83420  Biso   1.000  C
  C11      1.0000 0.59670  0.44780  0.83420  Biso   1.000  C
  C12      1.0000 0.40330  0.55220  0.33420  Biso   1.000  C
  H25      1.0000 0.95820  0.93160  0.32430  Biso   1.000  H
  H26      1.0000 0.04180  0.06840  0.82430  Biso   1.000  H
  H27      1.0000 0.54180  0.43160  0.82430  Biso   1.000  H
  H28      1.0000 0.45820  0.56840  0.32430  Biso   1.000  H
  H29      1.0000 0.87240  0.93160  0.28030  Biso   1.000  H
  H30      1.0000 0.12760  0.06840  0.78030  Biso   1.000  H
  H31      1.0000 0.62760  0.43160  0.78030  Biso   1.000  H
  H32      1.0000 0.37240  0.56840  0.28030  Biso   1.000  H
  H33      1.0000 0.88320  0.91580  0.38760  Biso   1.000  H
  H34      1.0000 0.11680  0.08420  0.88760  Biso   1.000  H
  H35      1.0000 0.61680  0.41580  0.88760  Biso   1.000  H
  H36      1.0000 0.38320  0.58420  0.38760  Biso   1.000  H
  C13      1.0000 0.89730  0.04580  0.35020  Biso   1.000  C
  C14      1.0000 0.10270  0.95420  0.85020  Biso   1.000  C
  C15      1.0000 0.60270  0.54580  0.85020  Biso   1.000  C
  C16      1.0000 0.39730  0.45420  0.35020  Biso   1.000  C
  H37      1.0000 0.94010  0.07630  0.31710  Biso   1.000  H
  H38      1.0000 0.05990  0.92370  0.81710  Biso   1.000  H
  H39      1.0000 0.55990  0.57630  0.81710  Biso   1.000  H
  H40      1.0000 0.44010  0.42370  0.31710  Biso   1.000  H
  H41      1.0000 0.84700  0.06770  0.32530  Biso   1.000  H
  H42      1.0000 0.15300  0.93230  0.82530  Biso   1.000  H
  H43      1.0000 0.65300  0.56770  0.82530  Biso   1.000  H
  H44      1.0000 0.34700  0.43230  0.32530  Biso   1.000  H
  O5       1.0000 0.90190  0.06810  0.44610  Biso   1.000  O
  O6       1.0000 0.09810  0.93190  0.94610  Biso   1.000  O
  O7       1.0000 0.59810  0.56810  0.94610  Biso   1.000  O
  O8       1.0000 0.40190  0.43190  0.44610  Biso   1.000  O
  H45      1.0000 0.86500  0.04360  0.47410  Biso   1.000  H
  H46      1.0000 0.13500  0.95640  0.97410  Biso   1.000  H
  H47      1.0000 0.63500  0.54360  0.97410  Biso   1.000  H
  H48      1.0000 0.36500  0.45640  0.47410  Biso   1.000  H
  O9       1.0000 0.02310  0.08990  0.58030  Biso   1.000  O
  O10      1.0000 0.97690  0.91010  0.08030  Biso   1.000  O
  O11      1.0000 0.47690  0.58990  0.08030  Biso   1.000  O
  O12      1.0000 0.52310  0.41010  0.58030  Biso   1.000  O
  H49      1.0000 0.05660  0.04680  0.57380  Biso   1.000  H
  H50      1.0000 0.94340  0.95320  0.07380  Biso   1.000  H
  H51      1.0000 0.44340  0.54680  0.07380  Biso   1.000  H
  H52      1.0000 0.55660  0.45320  0.57380  Biso   1.000  H
  H53      1.0000 0.98700  0.08310  0.53900  Biso   1.000  H
  H54      1.0000 0.01300  0.91690  0.03900  Biso   1.000  H
  H55      1.0000 0.51300  0.58310  0.03900  Biso   1.000  H
  H56      1.0000 0.48700  0.41690  0.53900  Biso   1.000  H
  C17      1.0000 0.53820  0.21190  0.31860  Biso   1.000  C
  C18      1.0000 0.46180  0.78810  0.81860  Biso   1.000  C
  C19      1.0000 0.96180  0.71190  0.81860  Biso   1.000  C
  C20      1.0000 0.03820  0.28810  0.31860  Biso   1.000  C
  C21      1.0000 0.67350  0.40730  0.38120  Biso   1.000  C
  C22      1.0000 0.32650  0.59270  0.88120  Biso   1.000  C
  C23      1.0000 0.82650  0.90730  0.88120  Biso   1.000  C
  C24      1.0000 0.17350  0.09270  0.38120  Biso   1.000  C
  H57      1.0000 0.67420  0.45490  0.42380  Biso   1.000  H
  H58      1.0000 0.32580  0.54510  0.92380  Biso   1.000  H
  H59      1.0000 0.82580  0.95490  0.92380  Biso   1.000  H
  H60      1.0000 0.17420  0.04510  0.42380  Biso   1.000  H
  C25      1.0000 0.22700  0.83700  0.36910  Biso   1.000  C
  C26      1.0000 0.77300  0.16300  0.86910  Biso   1.000  C
  C27      1.0000 0.27300  0.33700  0.86910  Biso   1.000  C
  C28      1.0000 0.72700  0.66300  0.36910  Biso   1.000  C
  H61      1.0000 0.26870  0.82990  0.41140  Biso   1.000  H
  H62      1.0000 0.73130  0.17010  0.91140  Biso   1.000  H
  H63      1.0000 0.23130  0.32990  0.91140  Biso   1.000  H
  H64      1.0000 0.76870  0.67010  0.41140  Biso   1.000  H
  C29      1.0000 0.95700  0.60030  0.38290  Biso   1.000  C
  C30      1.0000 0.04300  0.39970  0.88290  Biso   1.000  C
  C31      1.0000 0.54300  0.10030  0.88290  Biso   1.000  C
  C32      1.0000 0.45700  0.89970  0.38290  Biso   1.000  C
  H65      1.0000 0.95150  0.55940  0.43190  Biso   1.000  H
  H66      1.0000 0.04850  0.44060  0.93190  Biso   1.000  H
  H67      1.0000 0.54850  0.05940  0.93190  Biso   1.000  H
  H68      1.0000 0.45150  0.94060  0.43190  Biso   1.000  H
  C33      1.0000 0.10054  0.78390  0.30850  Biso   1.000  C
  C34      1.0000 0.89946  0.21610  0.80850  Biso   1.000  C
  C35      1.0000 0.39946  0.28390  0.80850  Biso   1.000  C
  C36      1.0000 0.60054  0.71610  0.30850  Biso   1.000  C
  C37      1.0000 0.10370  0.85570  0.24600  Biso   1.000  C
  C38      1.0000 0.89630  0.14430  0.74600  Biso   1.000  C
  C39      1.0000 0.39630  0.35570  0.74600  Biso   1.000  C
  C40      1.0000 0.60370  0.64430  0.24600  Biso   1.000  C
  H69      1.0000 0.06240  0.86480  0.20370  Biso   1.000  H
  H70      1.0000 0.93760  0.13520  0.70370  Biso   1.000  H
  H71      1.0000 0.43760  0.36480  0.70370  Biso   1.000  H
  H72      1.0000 0.56240  0.63520  0.20370  Biso   1.000  H
  C41      1.0000 0.03106  0.72070  0.31120  Biso   1.000  C
  C42      1.0000 0.96894  0.27930  0.81120  Biso   1.000  C
  C43      1.0000 0.46894  0.22070  0.81120  Biso   1.000  C
  C44      1.0000 0.53106  0.77930  0.31120  Biso   1.000  C
  C45      1.0000 0.60808  0.27470  0.32050  Biso   1.000  C
  C46      1.0000 0.39192  0.72530  0.82050  Biso   1.000  C
  C47      1.0000 0.89192  0.77470  0.82050  Biso   1.000  C
  C48      1.0000 0.10808  0.22530  0.32050  Biso   1.000  C
  C49      1.0000 0.91010  0.65970  0.24520  Biso   1.000  C
  C50      1.0000 0.08990  0.34030  0.74520  Biso   1.000  C
  C51      1.0000 0.58990  0.15970  0.74520  Biso   1.000  C
  C52      1.0000 0.41010  0.84030  0.24520  Biso   1.000  C
  H73      1.0000 0.87140  0.66150  0.19880  Biso   1.000  H
  H74      1.0000 0.12860  0.33850  0.69880  Biso   1.000  H
  H75      1.0000 0.62860  0.16150  0.69880  Biso   1.000  H
  H76      1.0000 0.37140  0.83850  0.19880  Biso   1.000  H
  C53      1.0000 0.16950  0.91460  0.24680  Biso   1.000  C
  C54      1.0000 0.83050  0.08540  0.74680  Biso   1.000  C
  C55      1.0000 0.33050  0.41460  0.74680  Biso   1.000  C
  C56      1.0000 0.66950  0.58540  0.24680  Biso   1.000  C
  H77      1.0000 0.17160  0.96120  0.20310  Biso   1.000  H
  H78      1.0000 0.82840  0.03880  0.70310  Biso   1.000  H
  H79      1.0000 0.32840  0.46120  0.70310  Biso   1.000  H
  H80      1.0000 0.67160  0.53880  0.20310  Biso   1.000  H
  C57      1.0000 0.41260  0.15800  0.37710  Biso   1.000  C
  C58      1.0000 0.58740  0.84200  0.87710  Biso   1.000  C
  C59      1.0000 0.08740  0.65800  0.87710  Biso   1.000  C
  C60      1.0000 0.91260  0.34200  0.37710  Biso   1.000  C
  H81      1.0000 0.37180  0.16290  0.42080  Biso   1.000  H
  H82      1.0000 0.62820  0.83710  0.92080  Biso   1.000  H
  H83      1.0000 0.12820  0.66290  0.92080  Biso   1.000  H
  H84      1.0000 0.87180  0.33710  0.42080  Biso   1.000  H
  C61      1.0000 0.02060  0.65930  0.38400  Biso   1.000  C
  C62      1.0000 0.97940  0.34070  0.88400  Biso   1.000  C
  C63      1.0000 0.47940  0.15930  0.88400  Biso   1.000  C
  C64      1.0000 0.52060  0.84070  0.38400  Biso   1.000  C
  H85      1.0000 0.05660  0.65820  0.43340  Biso   1.000  H
  H86      1.0000 0.94340  0.34180  0.93340  Biso   1.000  H
  H87      1.0000 0.44340  0.15820  0.93340  Biso   1.000  H
  H88      1.0000 0.55660  0.84180  0.43340  Biso   1.000  H
  C65      1.0000 0.46660  0.08660  0.24940  Biso   1.000  C
  C66      1.0000 0.53340  0.91340  0.74940  Biso   1.000  C
  C67      1.0000 0.03340  0.58660  0.74940  Biso   1.000  C
  C68      1.0000 0.96660  0.41340  0.24940  Biso   1.000  C
  H89      1.0000 0.46410  0.04210  0.20350  Biso   1.000  H
  H90      1.0000 0.53590  0.95790  0.70350  Biso   1.000  H
  H91      1.0000 0.03590  0.54210  0.70350  Biso   1.000  H
  H92      1.0000 0.96410  0.45790  0.20350  Biso   1.000  H
  C69      1.0000 0.73320  0.33000  0.25920  Biso   1.000  C
  C70      1.0000 0.26680  0.67000  0.75920  Biso   1.000  C
  C71      1.0000 0.76680  0.83000  0.75920  Biso   1.000  C
  C72      1.0000 0.23320  0.17000  0.25920  Biso   1.000  C
  H93      1.0000 0.77550  0.32350  0.21770  Biso   1.000  H
  H94      1.0000 0.22450  0.67650  0.71770  Biso   1.000  H
  H95      1.0000 0.72450  0.82350  0.71770  Biso   1.000  H
  H96      1.0000 0.27550  0.17650  0.21770  Biso   1.000  H
  C73      1.0000 0.47640  0.21840  0.38230  Biso   1.000  C
  C74      1.0000 0.52360  0.78160  0.88230  Biso   1.000  C
  C75      1.0000 0.02360  0.71840  0.88230  Biso   1.000  C
  C76      1.0000 0.97640  0.28160  0.38230  Biso   1.000  C
  H97      1.0000 0.47760  0.26280  0.42840  Biso   1.000  H
  H98      1.0000 0.52240  0.73720  0.92840  Biso   1.000  H
  H99      1.0000 0.02240  0.76280  0.92840  Biso   1.000  H
  H100     1.0000 0.97760  0.23720  0.42840  Biso   1.000  H
  C77      1.0000 0.61100  0.34630  0.38440  Biso   1.000  C
  C78      1.0000 0.38900  0.65370  0.88440  Biso   1.000  C
  C79      1.0000 0.88900  0.84630  0.88440  Biso   1.000  C
  C80      1.0000 0.11100  0.15370  0.38440  Biso   1.000  C
  H101     1.0000 0.57110  0.35280  0.42890  Biso   1.000  H
  H102     1.0000 0.42890  0.64720  0.92890  Biso   1.000  H
  H103     1.0000 0.92890  0.85280  0.92890  Biso   1.000  H
  H104     1.0000 0.07110  0.14720  0.42890  Biso   1.000  H
  C81      1.0000 0.16400  0.77510  0.37140  Biso   1.000  C
  C82      1.0000 0.83600  0.22490  0.87140  Biso   1.000  C
  C83      1.0000 0.33600  0.27510  0.87140  Biso   1.000  C
  C84      1.0000 0.66400  0.72490  0.37140  Biso   1.000  C
  H105     1.0000 0.16410  0.72800  0.41460  Biso   1.000  H
  H106     1.0000 0.83590  0.27200  0.91460  Biso   1.000  H
  H107     1.0000 0.33590  0.22800  0.91460  Biso   1.000  H
  H108     1.0000 0.66410  0.77200  0.41460  Biso   1.000  H
  C85      1.0000 0.67180  0.26610  0.25750  Biso   1.000  C
  C86      1.0000 0.32820  0.73390  0.75750  Biso   1.000  C
  C87      1.0000 0.82820  0.76610  0.75750  Biso   1.000  C
  C88      1.0000 0.17180  0.23390  0.25750  Biso   1.000  C
  H109     1.0000 0.67300  0.21840  0.21510  Biso   1.000  H
  H110     1.0000 0.32700  0.78160  0.71510  Biso   1.000  H
  H111     1.0000 0.82700  0.71840  0.71510  Biso   1.000  H
  H112     1.0000 0.17300  0.28160  0.21510  Biso   1.000  H
  C89      1.0000 0.97360  0.72000  0.24020  Biso   1.000  C
  C90      1.0000 0.02640  0.28000  0.74020  Biso   1.000  C
  C91      1.0000 0.52640  0.22000  0.74020  Biso   1.000  C
  C92      1.0000 0.47360  0.78000  0.24020  Biso   1.000  C
  H113     1.0000 0.97800  0.75970  0.19000  Biso   1.000  H
  H114     1.0000 0.02200  0.24030  0.69000  Biso   1.000  H
  H115     1.0000 0.52200  0.25970  0.69000  Biso   1.000  H
  H116     1.0000 0.47800  0.74030  0.19000  Biso   1.000  H
  C93      1.0000 0.53240  0.14510  0.25150  Biso   1.000  C
  C94      1.0000 0.46760  0.85490  0.75150  Biso   1.000  C
  C95      1.0000 0.96760  0.64510  0.75150  Biso   1.000  C
  C96      1.0000 0.03240  0.35490  0.25150  Biso   1.000  C
  H117     1.0000 0.57270  0.13890  0.20730  Biso   1.000  H
  H118     1.0000 0.42730  0.86110  0.70730  Biso   1.000  H
  H119     1.0000 0.92730  0.63890  0.70730  Biso   1.000  H
  H120     1.0000 0.07270  0.36110  0.20730  Biso   1.000  H
  C97      1.0000 0.34410  0.95320  0.97770  Biso   1.000  C
  C98      1.0000 0.65590  0.04680  0.47770  Biso   1.000  C
  C99      1.0000 0.15590  0.45320  0.47770  Biso   1.000  C
  C100     1.0000 0.84410  0.54680  0.97770  Biso   1.000  C
  C101     1.0000 0.29800  0.09970  0.63460  Biso   1.000  C
  C102     1.0000 0.70200  0.90030  0.13460  Biso   1.000  C
  C103     1.0000 0.20200  0.59970  0.13460  Biso   1.000  C
  C104     1.0000 0.79800  0.40030  0.63460  Biso   1.000  C
  N1       1.0000 0.22999  0.90642  0.30860  Biso   1.000  N
  N2       1.0000 0.77001  0.09358  0.80860  Biso   1.000  N
  N3       1.0000 0.27001  0.40642  0.80860  Biso   1.000  N
  N4       1.0000 0.72999  0.59358  0.30860  Biso   1.000  N
  N5       1.0000 0.90231  0.59888  0.31410  Biso   1.000  N
  N6       1.0000 0.09769  0.40112  0.81410  Biso   1.000  N
  N7       1.0000 0.59769  0.09888  0.81410  Biso   1.000  N
  N8       1.0000 0.40231  0.90112  0.31410  Biso   1.000  N
  N9       1.0000 0.40715  0.09288  0.31160  Biso   1.000  N
  N10      1.0000 0.59285  0.90712  0.81160  Biso   1.000  N
  N11      1.0000 0.09285  0.59288  0.81160  Biso   1.000  N
  N12      1.0000 0.90715  0.40712  0.31160  Biso   1.000  N
  N13      1.0000 0.73378  0.40083  0.31880  Biso   1.000  N
  N14      1.0000 0.26622  0.59917  0.81880  Biso   1.000  N
  N15      1.0000 0.76622  0.90083  0.81880  Biso   1.000  N
  N16      1.0000 0.23378  0.09917  0.31880  Biso   1.000  N
  O13      1.0000 0.31966  0.99619  0.14790  Biso   1.000  O
  O14      1.0000 0.68034  0.00381  0.64790  Biso   1.000  O
  O15      1.0000 0.18034  0.49619  0.64790  Biso   1.000  O
  O16      1.0000 0.81966  0.50381  0.14790  Biso   1.000  O
  O17      1.0000 0.30970  0.00470  0.48240  Biso   1.000  O
  O18      1.0000 0.69030  0.99530  0.98240  Biso   1.000  O
  O19      1.0000 0.19030  0.50470  0.98240  Biso   1.000  O
  O20      1.0000 0.80970  0.49530  0.48240  Biso   1.000  O
  O21      1.0000 0.33740  0.11840  0.04090  Biso   1.000  O
  O22      1.0000 0.66260  0.88160  0.54090  Biso   1.000  O
  O23      1.0000 0.16260  0.61840  0.54090  Biso   1.000  O
  O24      1.0000 0.83740  0.38160  0.04090  Biso   1.000  O
  O25      1.0000 0.21380  0.03110  0.03990  Biso   1.000  O
  O26      1.0000 0.78620  0.96890  0.53990  Biso   1.000  O
  O27      1.0000 0.28620  0.53110  0.53990  Biso   1.000  O
  O28      1.0000 0.71380  0.46890  0.03990  Biso   1.000  O
  O29      1.0000 0.41670  0.99640  0.59680  Biso   1.000  O
  O30      1.0000 0.58330  0.00360  0.09680  Biso   1.000  O
  O31      1.0000 0.08330  0.49640  0.09680  Biso   1.000  O
  O32      1.0000 0.91670  0.50360  0.59680  Biso   1.000  O
  O33      1.0000 0.29040  0.92330  0.62870  Biso   1.000  O
  O34      1.0000 0.70960  0.07670  0.12870  Biso   1.000  O
  O35      1.0000 0.20960  0.42330  0.12870  Biso   1.000  O
  O36      1.0000 0.79040  0.57670  0.62870  Biso   1.000  O
  F1       1.0000 0.42220  0.94950  0.99000  Biso   1.000  F
  F2       1.0000 0.57780  0.05050  0.49000  Biso   1.000  F
  F3       1.0000 0.07780  0.44950  0.49000  Biso   1.000  F
  F4       1.0000 0.92220  0.55050  0.99000  Biso   1.000  F
  F5       1.0000 0.33260  0.17130  0.59900  Biso   1.000  F
  F6       1.0000 0.66740  0.82870  0.09900  Biso   1.000  F
  F7       1.0000 0.16740  0.67130  0.09900  Biso   1.000  F
  F8       1.0000 0.83260  0.32870  0.59900  Biso   1.000  F
  F9       1.0000 0.21900  0.11080  0.62220  Biso   1.000  F
  F10      1.0000 0.78100  0.88920  0.12220  Biso   1.000  F
  F11      1.0000 0.28100  0.61080  0.12220  Biso   1.000  F
  F12      1.0000 0.71900  0.38920  0.62220  Biso   1.000  F
  F13      1.0000 0.31030  0.09940  0.72570  Biso   1.000  F
  F14      1.0000 0.68970  0.90060  0.22570  Biso   1.000  F
  F15      1.0000 0.18970  0.59940  0.22570  Biso   1.000  F
  F16      1.0000 0.81030  0.40060  0.72570  Biso   1.000  F
  F17      1.0000 0.31500  0.87000  0.99100  Biso   1.000  F
  F18      1.0000 0.68500  0.13000  0.49100  Biso   1.000  F
  F19      1.0000 0.18500  0.37000  0.49100  Biso   1.000  F
  F20      1.0000 0.81500  0.63000  0.99100  Biso   1.000  F
  F21      1.0000 0.32890  0.97830  0.88990  Biso   1.000  F
  F22      1.0000 0.67110  0.02170  0.38990  Biso   1.000  F
  F23      1.0000 0.17110  0.47830  0.38990  Biso   1.000  F
  F24      1.0000 0.82890  0.52170  0.88990  Biso   1.000  F
  S1       1.0000 0.29801  0.03388  0.05971  Biso   1.000  S
  S2       1.0000 0.70199  0.96612  0.55971  Biso   1.000  S
  S3       1.0000 0.20199  0.53388  0.55971  Biso   1.000  S
  S4       1.0000 0.79801  0.46612  0.05971  Biso   1.000  S
  S5       1.0000 0.33164  0.99488  0.58055  Biso   1.000  S
  S6       1.0000 0.66836  0.00512  0.08055  Biso   1.000  S
  S7       1.0000 0.16836  0.49488  0.08055  Biso   1.000  S
  S8       1.0000 0.83164  0.50512  0.58055  Biso   1.000  S
  Cu1      1.0000 0.31784  0.00010  0.31243  Biso   1.000  Cu
  Cu2      1.0000 0.68216  0.99990  0.81243  Biso   1.000  Cu
  Cu3      1.0000 0.18216  0.50010  0.81243  Biso   1.000  Cu
  Cu4      1.0000 0.81784  0.49990  0.31243  Biso   1.000  Cu
