data_image0
_cell_length_a       12.985
_cell_length_b       16.589
_cell_length_c       20.224
_cell_angle_alpha    90
_cell_angle_beta     97.959
_cell_angle_gamma    90

_symmetry_space_group_name_H-M    "P 1"
_symmetry_int_tables_number       1

loop_
  _symmetry_equiv_pos_as_xyz
  'x, y, z'

loop_
  _atom_site_label
  _atom_site_occupancy
  _atom_site_fract_x
  _atom_site_fract_y
  _atom_site_fract_z
  _atom_site_thermal_displace_type
  _atom_site_B_iso_or_equiv
  _atom_site_type_symbol
  C1       1.0000 0.68900  0.11200  0.13500  Biso   1.000  C
  C2       1.0000 0.81100  0.61200  0.36500  Biso   1.000  C
  C3       1.0000 0.31100  0.88800  0.86500  Biso   1.000  C
  C4       1.0000 0.18900  0.38800  0.63500  Biso   1.000  C
  C5       1.0000 0.93700  0.09000  0.94500  Biso   1.000  C
  C6       1.0000 0.56300  0.59000  0.55500  Biso   1.000  C
  C7       1.0000 0.06300  0.91000  0.05500  Biso   1.000  C
  C8       1.0000 0.43700  0.41000  0.44500  Biso   1.000  C
  C9       1.0000 0.00300  0.27800  0.07000  Biso   1.000  C
  C10      1.0000 0.49700  0.77800  0.43000  Biso   1.000  C
  C11      1.0000 0.99700  0.72200  0.93000  Biso   1.000  C
  C12      1.0000 0.50300  0.22200  0.57000  Biso   1.000  C
  C13      1.0000 0.01400  0.32400  0.13000  Biso   1.000  C
  C14      1.0000 0.48600  0.82400  0.37000  Biso   1.000  C
  C15      1.0000 0.98600  0.67600  0.87000  Biso   1.000  C
  C16      1.0000 0.51400  0.17600  0.63000  Biso   1.000  C
  C17      1.0000 0.52100  0.23200  0.28300  Biso   1.000  C
  C18      1.0000 0.97900  0.73200  0.21700  Biso   1.000  C
  C19      1.0000 0.47900  0.76800  0.71700  Biso   1.000  C
  C20      1.0000 0.02100  0.26800  0.78300  Biso   1.000  C
  C21      1.0000 0.51100  0.19600  0.22000  Biso   1.000  C
  C22      1.0000 0.98900  0.69600  0.28000  Biso   1.000  C
  C23      1.0000 0.48900  0.80400  0.78000  Biso   1.000  C
  C24      1.0000 0.01100  0.30400  0.72000  Biso   1.000  C
  C25      1.0000 0.74400  0.13700  0.07600  Biso   1.000  C
  C26      1.0000 0.75600  0.63700  0.42400  Biso   1.000  C
  C27      1.0000 0.25600  0.86300  0.92400  Biso   1.000  C
  C28      1.0000 0.24400  0.36300  0.57600  Biso   1.000  C
  C29      1.0000 0.99400  0.13400  0.94400  Biso   1.000  C
  C30      1.0000 0.50600  0.63400  0.55600  Biso   1.000  C
  C31      1.0000 0.00600  0.86600  0.05600  Biso   1.000  C
  C32      1.0000 0.49400  0.36600  0.44400  Biso   1.000  C
  C33      1.0000 0.74600  0.10200  0.78800  Biso   1.000  C
  C34      1.0000 0.75400  0.60200  0.71200  Biso   1.000  C
  C35      1.0000 0.25400  0.89800  0.21200  Biso   1.000  C
  C36      1.0000 0.24600  0.39800  0.28800  Biso   1.000  C
  C37      1.0000 0.69800  0.08000  0.72600  Biso   1.000  C
  C38      1.0000 0.80200  0.58000  0.77400  Biso   1.000  C
  C39      1.0000 0.30200  0.92000  0.27400  Biso   1.000  C
  C40      1.0000 0.19800  0.42000  0.22600  Biso   1.000  C
  N1       1.0000 0.00100  0.40600  0.04970  Biso   1.000  N
  N2       1.0000 0.49900  0.90600  0.45030  Biso   1.000  N
  N3       1.0000 0.99900  0.59400  0.95030  Biso   1.000  N
  N4       1.0000 0.50100  0.09400  0.54970  Biso   1.000  N
  N5       1.0000 0.00400  0.33600  0.02020  Biso   1.000  N
  N6       1.0000 0.49600  0.83600  0.47980  Biso   1.000  N
  N7       1.0000 0.99600  0.66400  0.97980  Biso   1.000  N
  N8       1.0000 0.50400  0.16400  0.52020  Biso   1.000  N
  N9       1.0000 0.62000  0.03700  0.73180  Biso   1.000  N
  N10      1.0000 0.88000  0.53700  0.76820  Biso   1.000  N
  N11      1.0000 0.38000  0.96300  0.26820  Biso   1.000  N
  N12      1.0000 0.12000  0.46300  0.23180  Biso   1.000  N
  N13      1.0000 0.61300  0.02500  0.79940  Biso   1.000  N
  N14      1.0000 0.88700  0.52500  0.70060  Biso   1.000  N
  N15      1.0000 0.38700  0.97500  0.20060  Biso   1.000  N
  N16      1.0000 0.11300  0.47500  0.29940  Biso   1.000  N
  N17      1.0000 0.68900  0.06900  0.83600  Biso   1.000  N
  N18      1.0000 0.81100  0.56900  0.66400  Biso   1.000  N
  N19      1.0000 0.31100  0.93100  0.16400  Biso   1.000  N
  N20      1.0000 0.18900  0.43100  0.33600  Biso   1.000  N
  N21      1.0000 0.85300  0.19900  0.92700  Biso   1.000  N
  N22      1.0000 0.64700  0.69900  0.57300  Biso   1.000  N
  N23      1.0000 0.14700  0.80100  0.07300  Biso   1.000  N
  N24      1.0000 0.35300  0.30100  0.42700  Biso   1.000  N
  N25      1.0000 0.95200  0.21200  0.92820  Biso   1.000  N
  N26      1.0000 0.54800  0.71200  0.57180  Biso   1.000  N
  N27      1.0000 0.04800  0.78800  0.07180  Biso   1.000  N
  N28      1.0000 0.45200  0.28800  0.42820  Biso   1.000  N
  N29      1.0000 0.00700  0.39800  0.11600  Biso   1.000  N
  N30      1.0000 0.49300  0.89800  0.38400  Biso   1.000  N
  N31      1.0000 0.99300  0.60200  0.88400  Biso   1.000  N
  N32      1.0000 0.50700  0.10200  0.61600  Biso   1.000  N
  N33      1.0000 0.50600  0.10800  0.29500  Biso   1.000  N
  N34      1.0000 0.99400  0.60800  0.20500  Biso   1.000  N
  N35      1.0000 0.49400  0.89200  0.70500  Biso   1.000  N
  N36      1.0000 0.00600  0.39200  0.79500  Biso   1.000  N
  N37      1.0000 0.50300  0.12200  0.22790  Biso   1.000  N
  N38      1.0000 0.99700  0.62200  0.27210  Biso   1.000  N
  N39      1.0000 0.49700  0.87800  0.77210  Biso   1.000  N
  N40      1.0000 0.00300  0.37800  0.72790  Biso   1.000  N
  N41      1.0000 0.51100  0.17700  0.32800  Biso   1.000  N
  N42      1.0000 0.98900  0.67700  0.17200  Biso   1.000  N
  N43      1.0000 0.48900  0.82300  0.67200  Biso   1.000  N
  N44      1.0000 0.01100  0.32300  0.82800  Biso   1.000  N
  N45      1.0000 0.84000  0.11900  0.93700  Biso   1.000  N
  N46      1.0000 0.66000  0.61900  0.56300  Biso   1.000  N
  N47      1.0000 0.16000  0.88100  0.06300  Biso   1.000  N
  N48      1.0000 0.34000  0.38100  0.43700  Biso   1.000  N
  N49      1.0000 0.69200  0.08900  0.02700  Biso   1.000  N
  N50      1.0000 0.80800  0.58900  0.47300  Biso   1.000  N
  N51      1.0000 0.30800  0.91100  0.97300  Biso   1.000  N
  N52      1.0000 0.19200  0.41100  0.52700  Biso   1.000  N
  N53      1.0000 0.60400  0.06800  0.05400  Biso   1.000  N
  N54      1.0000 0.89600  0.56800  0.44600  Biso   1.000  N
  N55      1.0000 0.39600  0.93200  0.94600  Biso   1.000  N
  N56      1.0000 0.10400  0.43200  0.55400  Biso   1.000  N
  N57      1.0000 0.60700  0.08300  0.11700  Biso   1.000  N
  N58      1.0000 0.89300  0.58300  0.38300  Biso   1.000  N
  N59      1.0000 0.39300  0.91700  0.88300  Biso   1.000  N
  N60      1.0000 0.10700  0.41700  0.61700  Biso   1.000  N
  Cu1      1.0000 0.00000  0.50000  0.00000  Biso   1.000  Cu
  Cu2      1.0000 0.50000  0.00000  0.50000  Biso   1.000  Cu
  Cu3      1.0000 0.00280  0.32460  0.92460  Biso   1.000  Cu
  Cu4      1.0000 0.49720  0.82460  0.57540  Biso   1.000  Cu
  Cu5      1.0000 0.99720  0.67540  0.07540  Biso   1.000  Cu
  Cu6      1.0000 0.50280  0.17540  0.42460  Biso   1.000  Cu
  Cu7      1.0000 0.49160  0.00430  0.33860  Biso   1.000  Cu
  Cu8      1.0000 0.00840  0.50430  0.16140  Biso   1.000  Cu
  Cu9      1.0000 0.50840  0.99570  0.66140  Biso   1.000  Cu
  Cu10     1.0000 0.99160  0.49570  0.83860  Biso   1.000  Cu
  Cu11     1.0000 0.69810  0.07360  0.93100  Biso   1.000  Cu
  Cu12     1.0000 0.80190  0.57360  0.56900  Biso   1.000  Cu
  Cu13     1.0000 0.30190  0.92640  0.06900  Biso   1.000  Cu
  Cu14     1.0000 0.19810  0.42640  0.43100  Biso   1.000  Cu
  Cu15     1.0000 0.50000  0.00000  0.00000  Biso   1.000  Cu
  Cu16     1.0000 0.00000  0.50000  0.50000  Biso   1.000  Cu
  Cu17     1.0000 0.49590  0.03360  0.16150  Biso   1.000  Cu
  Cu18     1.0000 0.00410  0.53360  0.33850  Biso   1.000  Cu
  Cu19     1.0000 0.50410  0.96640  0.83850  Biso   1.000  Cu
  Cu20     1.0000 0.99590  0.46640  0.66150  Biso   1.000  Cu
  Cl1      1.0000 0.55000  0.03400  0.91860  Biso   1.000  Cl
  Cl2      1.0000 0.95000  0.53400  0.58140  Biso   1.000  Cl
  Cl3      1.0000 0.45000  0.96600  0.08140  Biso   1.000  Cl
  Cl4      1.0000 0.05000  0.46600  0.41860  Biso   1.000  Cl
  Cl5      1.0000 0.05100  0.44100  0.92500  Biso   1.000  Cl
  Cl6      1.0000 0.44900  0.94100  0.57500  Biso   1.000  Cl
  Cl7      1.0000 0.94900  0.55900  0.07500  Biso   1.000  Cl
  Cl8      1.0000 0.55100  0.05900  0.42500  Biso   1.000  Cl
  O1       1.0000 0.75500  0.93900  0.95000  Biso   1.000  O
  O2       1.0000 0.74500  0.43900  0.55000  Biso   1.000  O
  O3       1.0000 0.24500  0.06100  0.05000  Biso   1.000  O
  O4       1.0000 0.25500  0.56100  0.45000  Biso   1.000  O
  O5       1.0000 0.61400  0.95700  0.25190  Biso   1.000  O
  O6       1.0000 0.88600  0.45700  0.24810  Biso   1.000  O
  O7       1.0000 0.38600  0.04300  0.74810  Biso   1.000  O
  O8       1.0000 0.11400  0.54300  0.75190  Biso   1.000  O
  O9       1.0000 0.72700  0.62800  0.06600  Biso   1.000  O
  O10      1.0000 0.77300  0.12800  0.43400  Biso   1.000  O
  O11      1.0000 0.27300  0.37200  0.93400  Biso   1.000  O
  O12      1.0000 0.22700  0.87200  0.56600  Biso   1.000  O
  O13      1.0000 0.42200  0.29000  0.00010  Biso   1.000  O
  O14      1.0000 0.07800  0.79000  0.49990  Biso   1.000  O
  O15      1.0000 0.57800  0.71000  0.99990  Biso   1.000  O
  O16      1.0000 0.92200  0.21000  0.50010  Biso   1.000  O
  O17      1.0000 0.74900  0.42200  0.02410  Biso   1.000  O
  O18      1.0000 0.75100  0.92200  0.47590  Biso   1.000  O
  O19      1.0000 0.25100  0.57800  0.97590  Biso   1.000  O
  O20      1.0000 0.24900  0.07800  0.52410  Biso   1.000  O
  O21      1.0000 0.65400  0.49700  0.85800  Biso   1.000  O
  O22      1.0000 0.84600  0.99700  0.64200  Biso   1.000  O
  O23      1.0000 0.34600  0.50300  0.14200  Biso   1.000  O
  O24      1.0000 0.15400  0.00300  0.35800  Biso   1.000  O
  O25      1.0000 0.83500  0.41500  0.90400  Biso   1.000  O
  O26      1.0000 0.66500  0.91500  0.59600  Biso   1.000  O
  O27      1.0000 0.16500  0.58500  0.09600  Biso   1.000  O
  O28      1.0000 0.33500  0.08500  0.40400  Biso   1.000  O
  O29      1.0000 0.72600  0.47700  0.13300  Biso   1.000  O
  O30      1.0000 0.77400  0.97700  0.36700  Biso   1.000  O
  O31      1.0000 0.27400  0.52300  0.86700  Biso   1.000  O
  O32      1.0000 0.22600  0.02300  0.63300  Biso   1.000  O
  O33      1.0000 0.61500  0.30200  0.03300  Biso   1.000  O
  O34      1.0000 0.88500  0.80200  0.46700  Biso   1.000  O
  O35      1.0000 0.38500  0.69800  0.96700  Biso   1.000  O
  O36      1.0000 0.11500  0.19800  0.53300  Biso   1.000  O
  O37      1.0000 0.43100  0.33900  0.87900  Biso   1.000  O
  O38      1.0000 0.06900  0.83900  0.62100  Biso   1.000  O
  O39      1.0000 0.56900  0.66100  0.12100  Biso   1.000  O
  O40      1.0000 0.93100  0.16100  0.37900  Biso   1.000  O
  O41      1.0000 0.76600  0.55000  0.96400  Biso   1.000  O
  O42      1.0000 0.73400  0.05000  0.53600  Biso   1.000  O
  O43      1.0000 0.23400  0.45000  0.03600  Biso   1.000  O
  O44      1.0000 0.26600  0.95000  0.46400  Biso   1.000  O
  O45      1.0000 0.44000  0.47100  0.82100  Biso   1.000  O
  O46      1.0000 0.06000  0.97100  0.67900  Biso   1.000  O
  O47      1.0000 0.56000  0.52900  0.17900  Biso   1.000  O
  O48      1.0000 0.94000  0.02900  0.32100  Biso   1.000  O
  O49      1.0000 0.54200  0.59300  0.76030  Biso   1.000  O
  O50      1.0000 0.95800  0.09300  0.73970  Biso   1.000  O
  O51      1.0000 0.45800  0.40700  0.23970  Biso   1.000  O
  O52      1.0000 0.04200  0.90700  0.26030  Biso   1.000  O
  O53      1.0000 0.78300  0.71400  0.96500  Biso   1.000  O
  O54      1.0000 0.71700  0.21400  0.53500  Biso   1.000  O
  O55      1.0000 0.21700  0.28600  0.03500  Biso   1.000  O
  O56      1.0000 0.28300  0.78600  0.46500  Biso   1.000  O
  O57      1.0000 0.74100  0.62200  0.20200  Biso   1.000  O
  O58      1.0000 0.75900  0.12200  0.29800  Biso   1.000  O
  O59      1.0000 0.25900  0.37800  0.79800  Biso   1.000  O
  O60      1.0000 0.24100  0.87800  0.70200  Biso   1.000  O
  O61      1.0000 0.78100  0.31800  0.14020  Biso   1.000  O
  O62      1.0000 0.71900  0.81800  0.35980  Biso   1.000  O
  O63      1.0000 0.21900  0.68200  0.85980  Biso   1.000  O
  O64      1.0000 0.28100  0.18200  0.64020  Biso   1.000  O
  O65      1.0000 0.58600  0.54900  0.96400  Biso   1.000  O
  O66      1.0000 0.91400  0.04900  0.53600  Biso   1.000  O
  O67      1.0000 0.41400  0.45100  0.03600  Biso   1.000  O
  O68      1.0000 0.08600  0.95100  0.46400  Biso   1.000  O
  O69      1.0000 0.55600  0.42800  0.99300  Biso   1.000  O
  O70      1.0000 0.94400  0.92800  0.50700  Biso   1.000  O
  O71      1.0000 0.44400  0.57200  0.00700  Biso   1.000  O
  O72      1.0000 0.05600  0.07200  0.49300  Biso   1.000  O
  O73      1.0000 0.57700  0.37800  0.13900  Biso   1.000  O
  O74      1.0000 0.92300  0.87800  0.36100  Biso   1.000  O
  O75      1.0000 0.42300  0.62200  0.86100  Biso   1.000  O
  O76      1.0000 0.07700  0.12200  0.63900  Biso   1.000  O
  O77      1.0000 0.62500  0.64000  0.88900  Biso   1.000  O
  O78      1.0000 0.87500  0.14000  0.61100  Biso   1.000  O
  O79      1.0000 0.37500  0.36000  0.11100  Biso   1.000  O
  O80      1.0000 0.12500  0.86000  0.38900  Biso   1.000  O
  O81      1.0000 0.53900  0.20600  0.91800  Biso   1.000  O
  O82      1.0000 0.96100  0.70600  0.58200  Biso   1.000  O
  O83      1.0000 0.46100  0.79400  0.08200  Biso   1.000  O
  O84      1.0000 0.03900  0.29400  0.41800  Biso   1.000  O
  O85      1.0000 0.56600  0.48300  0.07300  Biso   1.000  O
  O86      1.0000 0.93400  0.98300  0.42700  Biso   1.000  O
  O87      1.0000 0.43400  0.51700  0.92700  Biso   1.000  O
  O88      1.0000 0.06600  0.01700  0.57300  Biso   1.000  O
  O89      1.0000 0.65700  0.36500  0.91600  Biso   1.000  O
  O90      1.0000 0.84300  0.86500  0.58400  Biso   1.000  O
  O91      1.0000 0.34300  0.63500  0.08400  Biso   1.000  O
  O92      1.0000 0.15700  0.13500  0.41600  Biso   1.000  O
  P1       1.0000 0.50000  0.50000  0.00000  Biso   1.000  P
  P2       1.0000 0.00000  0.00000  0.50000  Biso   1.000  P
  W1       1.0000 0.72930  0.44548  0.93347  Biso   1.000  W
  W2       1.0000 0.77070  0.94548  0.56653  Biso   1.000  W
  W3       1.0000 0.27070  0.55452  0.06653  Biso   1.000  W
  W4       1.0000 0.22930  0.05452  0.43347  Biso   1.000  W
  W5       1.0000 0.66240  0.58062  0.13856  Biso   1.000  W
  W6       1.0000 0.83760  0.08062  0.36144  Biso   1.000  W
  W7       1.0000 0.33760  0.41938  0.86144  Biso   1.000  W
  W8       1.0000 0.16240  0.91938  0.63856  Biso   1.000  W
  W9       1.0000 0.53410  0.29773  0.95034  Biso   1.000  W
  W10      1.0000 0.96590  0.79773  0.54966  Biso   1.000  W
  W11      1.0000 0.46590  0.70227  0.04966  Biso   1.000  W
  W12      1.0000 0.03410  0.20227  0.45034  Biso   1.000  W
  W13      1.0000 0.68850  0.37430  0.09374  Biso   1.000  W
  W14      1.0000 0.81150  0.87430  0.40626  Biso   1.000  W
  W15      1.0000 0.31150  0.62570  0.90626  Biso   1.000  W
  W16      1.0000 0.18850  0.12570  0.59374  Biso   1.000  W
  W17      1.0000 0.53490  0.56250  0.83822  Biso   1.000  W
  W18      1.0000 0.96510  0.06250  0.66178  Biso   1.000  W
  W19      1.0000 0.46510  0.43750  0.16178  Biso   1.000  W
  W20      1.0000 0.03490  0.93750  0.33822  Biso   1.000  W
  W21      1.0000 0.69040  0.64890  0.97574  Biso   1.000  W
  W22      1.0000 0.80960  0.14890  0.52426  Biso   1.000  W
  W23      1.0000 0.30960  0.35110  0.02426  Biso   1.000  W
  W24      1.0000 0.19040  0.85110  0.47574  Biso   1.000  W
  O93      1.0000 0.62600  0.80200  0.22500  Biso   1.000  O
  O94      1.0000 0.87400  0.30200  0.27500  Biso   1.000  O
  O95      1.0000 0.37400  0.19800  0.77500  Biso   1.000  O
  O96      1.0000 0.12600  0.69800  0.72500  Biso   1.000  O
  O97      1.0000 0.63000  0.86200  0.01700  Biso   1.000  O
  O98      1.0000 0.87000  0.36200  0.48300  Biso   1.000  O
  O99      1.0000 0.37000  0.13800  0.98300  Biso   1.000  O
  O100     1.0000 0.13000  0.63800  0.51700  Biso   1.000  O
  O101     1.0000 0.82800  0.98400  0.18000  Biso   1.000  O
  O102     1.0000 0.67200  0.48400  0.32000  Biso   1.000  O
  O103     1.0000 0.17200  0.01600  0.82000  Biso   1.000  O
  O104     1.0000 0.32800  0.51600  0.68000  Biso   1.000  O
