data_image0
_cell_length_a       27.08
_cell_length_b       15.096
_cell_length_c       16.136
_cell_angle_alpha    90
_cell_angle_beta     111.344
_cell_angle_gamma    90

_symmetry_space_group_name_H-M    "P 1"
_symmetry_int_tables_number       1

loop_
  _symmetry_equiv_pos_as_xyz
  'x, y, z'

loop_
  _atom_site_label
  _atom_site_occupancy
  _atom_site_fract_x
  _atom_site_fract_y
  _atom_site_fract_z
  _atom_site_thermal_displace_type
  _atom_site_B_iso_or_equiv
  _atom_site_type_symbol
  S1       1.0000 0.76190  0.25590  0.22730  Biso   1.000  S
  S2       1.0000 0.26190  0.75590  0.22730  Biso   1.000  S
  S3       1.0000 0.23810  0.25590  0.27270  Biso   1.000  S
  S4       1.0000 0.73810  0.75590  0.27270  Biso   1.000  S
  S5       1.0000 0.23810  0.74410  0.77270  Biso   1.000  S
  S6       1.0000 0.73810  0.24410  0.77270  Biso   1.000  S
  S7       1.0000 0.76190  0.74410  0.72730  Biso   1.000  S
  S8       1.0000 0.26190  0.24410  0.72730  Biso   1.000  S
  O1       1.0000 0.71050  0.23410  0.16990  Biso   1.000  O
  O2       1.0000 0.21050  0.73410  0.16990  Biso   1.000  O
  O3       1.0000 0.28950  0.23410  0.33010  Biso   1.000  O
  O4       1.0000 0.78950  0.73410  0.33010  Biso   1.000  O
  O5       1.0000 0.28950  0.76590  0.83010  Biso   1.000  O
  O6       1.0000 0.78950  0.26590  0.83010  Biso   1.000  O
  O7       1.0000 0.71050  0.76590  0.66990  Biso   1.000  O
  O8       1.0000 0.21050  0.26590  0.66990  Biso   1.000  O
  O9       1.0000 0.78210  0.33990  0.22090  Biso   1.000  O
  O10      1.0000 0.28210  0.83990  0.22090  Biso   1.000  O
  O11      1.0000 0.21790  0.33990  0.27910  Biso   1.000  O
  O12      1.0000 0.71790  0.83990  0.27910  Biso   1.000  O
  O13      1.0000 0.21790  0.66010  0.77910  Biso   1.000  O
  O14      1.0000 0.71790  0.16010  0.77910  Biso   1.000  O
  O15      1.0000 0.78210  0.66010  0.72090  Biso   1.000  O
  O16      1.0000 0.28210  0.16010  0.72090  Biso   1.000  O
  O17      1.0000 0.77160  0.23370  0.31650  Biso   1.000  O
  O18      1.0000 0.27160  0.73370  0.31650  Biso   1.000  O
  O19      1.0000 0.22840  0.23370  0.18350  Biso   1.000  O
  O20      1.0000 0.72840  0.73370  0.18350  Biso   1.000  O
  O21      1.0000 0.22840  0.76630  0.68350  Biso   1.000  O
  O22      1.0000 0.72840  0.26630  0.68350  Biso   1.000  O
  O23      1.0000 0.77160  0.76630  0.81650  Biso   1.000  O
  O24      1.0000 0.27160  0.26630  0.81650  Biso   1.000  O
  C1       1.0000 0.80150  0.17390  0.19930  Biso   1.000  C
  C2       1.0000 0.30150  0.67390  0.19930  Biso   1.000  C
  C3       1.0000 0.19850  0.17390  0.30070  Biso   1.000  C
  C4       1.0000 0.69850  0.67390  0.30070  Biso   1.000  C
  C5       1.0000 0.19850  0.82610  0.80070  Biso   1.000  C
  C6       1.0000 0.69850  0.32610  0.80070  Biso   1.000  C
  C7       1.0000 0.80150  0.82610  0.69930  Biso   1.000  C
  C8       1.0000 0.30150  0.32610  0.69930  Biso   1.000  C
  F1       1.0000 0.78370  0.09600  0.19960  Biso   1.000  F
  F2       1.0000 0.28370  0.59600  0.19960  Biso   1.000  F
  F3       1.0000 0.21630  0.09600  0.30040  Biso   1.000  F
  F4       1.0000 0.71630  0.59600  0.30040  Biso   1.000  F
  F5       1.0000 0.21630  0.90400  0.80040  Biso   1.000  F
  F6       1.0000 0.71630  0.40400  0.80040  Biso   1.000  F
  F7       1.0000 0.78370  0.90400  0.69960  Biso   1.000  F
  F8       1.0000 0.28370  0.40400  0.69960  Biso   1.000  F
  F9       1.0000 0.85110  0.17240  0.24350  Biso   1.000  F
  F10      1.0000 0.35110  0.67240  0.24350  Biso   1.000  F
  F11      1.0000 0.14890  0.17240  0.25650  Biso   1.000  F
  F12      1.0000 0.64890  0.67240  0.25650  Biso   1.000  F
  F13      1.0000 0.14890  0.82760  0.75650  Biso   1.000  F
  F14      1.0000 0.64890  0.32760  0.75650  Biso   1.000  F
  F15      1.0000 0.85110  0.82760  0.74350  Biso   1.000  F
  F16      1.0000 0.35110  0.32760  0.74350  Biso   1.000  F
  F17      1.0000 0.79450  0.19450  0.11900  Biso   1.000  F
  F18      1.0000 0.29450  0.69450  0.11900  Biso   1.000  F
  F19      1.0000 0.20550  0.19450  0.38100  Biso   1.000  F
  F20      1.0000 0.70550  0.69450  0.38100  Biso   1.000  F
  F21      1.0000 0.20550  0.80550  0.88100  Biso   1.000  F
  F22      1.0000 0.70550  0.30550  0.88100  Biso   1.000  F
  F23      1.0000 0.79450  0.80550  0.61900  Biso   1.000  F
  F24      1.0000 0.29450  0.30550  0.61900  Biso   1.000  F
  S9       1.0000 0.76180  0.26000  0.17880  Biso   1.000  S
  S10      1.0000 0.26180  0.76000  0.17880  Biso   1.000  S
  S11      1.0000 0.23820  0.26000  0.32120  Biso   1.000  S
  S12      1.0000 0.73820  0.76000  0.32120  Biso   1.000  S
  S13      1.0000 0.23820  0.74000  0.82120  Biso   1.000  S
  S14      1.0000 0.73820  0.24000  0.82120  Biso   1.000  S
  S15      1.0000 0.76180  0.74000  0.67880  Biso   1.000  S
  S16      1.0000 0.26180  0.24000  0.67880  Biso   1.000  S
  O25      1.0000 0.77600  0.26300  0.10400  Biso   1.000  O
  O26      1.0000 0.27600  0.76300  0.10400  Biso   1.000  O
  O27      1.0000 0.22400  0.26300  0.39600  Biso   1.000  O
  O28      1.0000 0.72400  0.76300  0.39600  Biso   1.000  O
  O29      1.0000 0.22400  0.73700  0.89600  Biso   1.000  O
  O30      1.0000 0.72400  0.23700  0.89600  Biso   1.000  O
  O31      1.0000 0.77600  0.73700  0.60400  Biso   1.000  O
  O32      1.0000 0.27600  0.23700  0.60400  Biso   1.000  O
  S17      1.0000 0.46990  0.26090  0.04910  Biso   1.000  S
  S18      1.0000 0.96990  0.76090  0.04910  Biso   1.000  S
  S19      1.0000 0.53010  0.26090  0.45090  Biso   1.000  S
  S20      1.0000 0.03010  0.76090  0.45090  Biso   1.000  S
  S21      1.0000 0.53010  0.73910  0.95090  Biso   1.000  S
  S22      1.0000 0.03010  0.23910  0.95090  Biso   1.000  S
  S23      1.0000 0.46990  0.73910  0.54910  Biso   1.000  S
  S24      1.0000 0.96990  0.23910  0.54910  Biso   1.000  S
  O33      1.0000 0.52270  0.26430  0.05180  Biso   1.000  O
  O34      1.0000 0.02270  0.76430  0.05180  Biso   1.000  O
  O35      1.0000 0.47730  0.26430  0.44820  Biso   1.000  O
  O36      1.0000 0.97730  0.76430  0.44820  Biso   1.000  O
  O37      1.0000 0.47730  0.73570  0.94820  Biso   1.000  O
  O38      1.0000 0.97730  0.23570  0.94820  Biso   1.000  O
  O39      1.0000 0.52270  0.73570  0.55180  Biso   1.000  O
  O40      1.0000 0.02270  0.23570  0.55180  Biso   1.000  O
  O41      1.0000 0.44540  0.17840  0.02090  Biso   1.000  O
  O42      1.0000 0.94540  0.67840  0.02090  Biso   1.000  O
  O43      1.0000 0.55460  0.17840  0.47910  Biso   1.000  O
  O44      1.0000 0.05460  0.67840  0.47910  Biso   1.000  O
  O45      1.0000 0.55460  0.82160  0.97910  Biso   1.000  O
  O46      1.0000 0.05460  0.32160  0.97910  Biso   1.000  O
  O47      1.0000 0.44540  0.82160  0.52090  Biso   1.000  O
  O48      1.0000 0.94540  0.32160  0.52090  Biso   1.000  O
  O49      1.0000 0.46130  0.29100  0.12530  Biso   1.000  O
  O50      1.0000 0.96130  0.79100  0.12530  Biso   1.000  O
  O51      1.0000 0.53870  0.29100  0.37470  Biso   1.000  O
  O52      1.0000 0.03870  0.79100  0.37470  Biso   1.000  O
  O53      1.0000 0.53870  0.70900  0.87470  Biso   1.000  O
  O54      1.0000 0.03870  0.20900  0.87470  Biso   1.000  O
  O55      1.0000 0.46130  0.70900  0.62530  Biso   1.000  O
  O56      1.0000 0.96130  0.20900  0.62530  Biso   1.000  O
  C9       1.0000 0.43440  0.34520  0.97160  Biso   1.000  C
  C10      1.0000 0.93440  0.84520  0.97160  Biso   1.000  C
  C11      1.0000 0.56560  0.34520  0.52840  Biso   1.000  C
  C12      1.0000 0.06560  0.84520  0.52840  Biso   1.000  C
  C13      1.0000 0.56560  0.65480  0.02840  Biso   1.000  C
  C14      1.0000 0.06560  0.15480  0.02840  Biso   1.000  C
  C15      1.0000 0.43440  0.65480  0.47160  Biso   1.000  C
  C16      1.0000 0.93440  0.15480  0.47160  Biso   1.000  C
  F25      1.0000 0.45620  0.41860  0.00260  Biso   1.000  F
  F26      1.0000 0.95620  0.91860  0.00260  Biso   1.000  F
  F27      1.0000 0.54380  0.41860  0.49740  Biso   1.000  F
  F28      1.0000 0.04380  0.91860  0.49740  Biso   1.000  F
  F29      1.0000 0.54380  0.58140  0.99740  Biso   1.000  F
  F30      1.0000 0.04380  0.08140  0.99740  Biso   1.000  F
  F31      1.0000 0.45620  0.58140  0.50260  Biso   1.000  F
  F32      1.0000 0.95620  0.08140  0.50260  Biso   1.000  F
  F33      1.0000 0.43910  0.33310  0.89660  Biso   1.000  F
  F34      1.0000 0.93910  0.83310  0.89660  Biso   1.000  F
  F35      1.0000 0.56090  0.33310  0.60340  Biso   1.000  F
  F36      1.0000 0.06090  0.83310  0.60340  Biso   1.000  F
  F37      1.0000 0.56090  0.66690  0.10340  Biso   1.000  F
  F38      1.0000 0.06090  0.16690  0.10340  Biso   1.000  F
  F39      1.0000 0.43910  0.66690  0.39660  Biso   1.000  F
  F40      1.0000 0.93910  0.16690  0.39660  Biso   1.000  F
  F41      1.0000 0.38510  0.35050  0.95880  Biso   1.000  F
  F42      1.0000 0.88510  0.85050  0.95880  Biso   1.000  F
  F43      1.0000 0.61490  0.35050  0.54120  Biso   1.000  F
  F44      1.0000 0.11490  0.85050  0.54120  Biso   1.000  F
  F45      1.0000 0.61490  0.64950  0.04120  Biso   1.000  F
  F46      1.0000 0.11490  0.14950  0.04120  Biso   1.000  F
  F47      1.0000 0.38510  0.64950  0.45880  Biso   1.000  F
  F48      1.0000 0.88510  0.14950  0.45880  Biso   1.000  F
  S25      1.0000 0.47130  0.24570  0.99310  Biso   1.000  S
  S26      1.0000 0.97130  0.74570  0.99310  Biso   1.000  S
  S27      1.0000 0.52870  0.24570  0.50690  Biso   1.000  S
  S28      1.0000 0.02870  0.74570  0.50690  Biso   1.000  S
  S29      1.0000 0.52870  0.75430  0.00690  Biso   1.000  S
  S30      1.0000 0.02870  0.25430  0.00690  Biso   1.000  S
  S31      1.0000 0.47130  0.75430  0.49310  Biso   1.000  S
  S32      1.0000 0.97130  0.25430  0.49310  Biso   1.000  S
  O57      1.0000 0.45800  0.24700  0.90030  Biso   1.000  O
  O58      1.0000 0.95800  0.74700  0.90030  Biso   1.000  O
  O59      1.0000 0.54200  0.24700  0.59970  Biso   1.000  O
  O60      1.0000 0.04200  0.74700  0.59970  Biso   1.000  O
  O61      1.0000 0.54200  0.75300  0.09970  Biso   1.000  O
  O62      1.0000 0.04200  0.25300  0.09970  Biso   1.000  O
  O63      1.0000 0.45800  0.75300  0.40030  Biso   1.000  O
  O64      1.0000 0.95800  0.25300  0.40030  Biso   1.000  O
  Cu1      1.0000 0.61637  0.24974  0.10907  Biso   1.000  Cu
  Cu2      1.0000 0.11637  0.74974  0.10907  Biso   1.000  Cu
  Cu3      1.0000 0.38363  0.24974  0.39093  Biso   1.000  Cu
  Cu4      1.0000 0.88363  0.74974  0.39093  Biso   1.000  Cu
  Cu5      1.0000 0.38363  0.75026  0.89093  Biso   1.000  Cu
  Cu6      1.0000 0.88363  0.25026  0.89093  Biso   1.000  Cu
  Cu7      1.0000 0.61637  0.75026  0.60907  Biso   1.000  Cu
  Cu8      1.0000 0.11637  0.25026  0.60907  Biso   1.000  Cu
  N1       1.0000 0.60950  0.15300  0.18930  Biso   1.000  N
  N2       1.0000 0.10950  0.65300  0.18930  Biso   1.000  N
  N3       1.0000 0.39050  0.15300  0.31070  Biso   1.000  N
  N4       1.0000 0.89050  0.65300  0.31070  Biso   1.000  N
  N5       1.0000 0.39050  0.84700  0.81070  Biso   1.000  N
  N6       1.0000 0.89050  0.34700  0.81070  Biso   1.000  N
  N7       1.0000 0.60950  0.84700  0.68930  Biso   1.000  N
  N8       1.0000 0.10950  0.34700  0.68930  Biso   1.000  N
  C17      1.0000 0.57890  0.16160  0.23890  Biso   1.000  C
  C18      1.0000 0.07890  0.66160  0.23890  Biso   1.000  C
  C19      1.0000 0.42110  0.16160  0.26110  Biso   1.000  C
  C20      1.0000 0.92110  0.66160  0.26110  Biso   1.000  C
  C21      1.0000 0.42110  0.83840  0.76110  Biso   1.000  C
  C22      1.0000 0.92110  0.33840  0.76110  Biso   1.000  C
  C23      1.0000 0.57890  0.83840  0.73890  Biso   1.000  C
  C24      1.0000 0.07890  0.33840  0.73890  Biso   1.000  C
  H1       1.0000 0.55710  0.21100  0.22980  Biso   1.000  H
  H2       1.0000 0.05710  0.71100  0.22980  Biso   1.000  H
  H3       1.0000 0.44290  0.21100  0.27020  Biso   1.000  H
  H4       1.0000 0.94290  0.71100  0.27020  Biso   1.000  H
  H5       1.0000 0.44290  0.78900  0.77020  Biso   1.000  H
  H6       1.0000 0.94290  0.28900  0.77020  Biso   1.000  H
  H7       1.0000 0.55710  0.78900  0.72980  Biso   1.000  H
  H8       1.0000 0.05710  0.28900  0.72980  Biso   1.000  H
  C25      1.0000 0.57850  0.10220  0.30040  Biso   1.000  C
  C26      1.0000 0.07850  0.60220  0.30040  Biso   1.000  C
  C27      1.0000 0.42150  0.10220  0.19960  Biso   1.000  C
  C28      1.0000 0.92150  0.60220  0.19960  Biso   1.000  C
  C29      1.0000 0.42150  0.89780  0.69960  Biso   1.000  C
  C30      1.0000 0.92150  0.39780  0.69960  Biso   1.000  C
  C31      1.0000 0.57850  0.89780  0.80040  Biso   1.000  C
  C32      1.0000 0.07850  0.39780  0.80040  Biso   1.000  C
  H9       1.0000 0.55680  0.11150  0.33300  Biso   1.000  H
  H10      1.0000 0.05680  0.61150  0.33300  Biso   1.000  H
  H11      1.0000 0.44320  0.11150  0.16700  Biso   1.000  H
  H12      1.0000 0.94320  0.61150  0.16700  Biso   1.000  H
  H13      1.0000 0.44320  0.88850  0.66700  Biso   1.000  H
  H14      1.0000 0.94320  0.38850  0.66700  Biso   1.000  H
  H15      1.0000 0.55680  0.88850  0.83300  Biso   1.000  H
  H16      1.0000 0.05680  0.38850  0.83300  Biso   1.000  H
  C33      1.0000 0.60980  0.02730  0.31600  Biso   1.000  C
  C34      1.0000 0.10980  0.52730  0.31600  Biso   1.000  C
  C35      1.0000 0.39020  0.02730  0.18400  Biso   1.000  C
  C36      1.0000 0.89020  0.52730  0.18400  Biso   1.000  C
  C37      1.0000 0.39020  0.97270  0.68400  Biso   1.000  C
  C38      1.0000 0.89020  0.47270  0.68400  Biso   1.000  C
  C39      1.0000 0.60980  0.97270  0.81600  Biso   1.000  C
  C40      1.0000 0.10980  0.47270  0.81600  Biso   1.000  C
  C41      1.0000 0.64290  0.01900  0.26570  Biso   1.000  C
  C42      1.0000 0.14290  0.51900  0.26570  Biso   1.000  C
  C43      1.0000 0.35710  0.01900  0.23430  Biso   1.000  C
  C44      1.0000 0.85710  0.51900  0.23430  Biso   1.000  C
  C45      1.0000 0.35710  0.98100  0.73430  Biso   1.000  C
  C46      1.0000 0.85710  0.48100  0.73430  Biso   1.000  C
  C47      1.0000 0.64290  0.98100  0.76570  Biso   1.000  C
  C48      1.0000 0.14290  0.48100  0.76570  Biso   1.000  C
  H17      1.0000 0.66500  0.97000  0.27350  Biso   1.000  H
  H18      1.0000 0.16500  0.47000  0.27350  Biso   1.000  H
  H19      1.0000 0.33500  0.97000  0.22650  Biso   1.000  H
  H20      1.0000 0.83500  0.47000  0.22650  Biso   1.000  H
  H21      1.0000 0.33500  0.03000  0.72650  Biso   1.000  H
  H22      1.0000 0.83500  0.53000  0.72650  Biso   1.000  H
  H23      1.0000 0.66500  0.03000  0.77350  Biso   1.000  H
  H24      1.0000 0.16500  0.53000  0.77350  Biso   1.000  H
  C49      1.0000 0.64230  0.08110  0.20760  Biso   1.000  C
  C50      1.0000 0.14230  0.58110  0.20760  Biso   1.000  C
  C51      1.0000 0.35770  0.08110  0.29240  Biso   1.000  C
  C52      1.0000 0.85770  0.58110  0.29240  Biso   1.000  C
  C53      1.0000 0.35770  0.91890  0.79240  Biso   1.000  C
  C54      1.0000 0.85770  0.41890  0.79240  Biso   1.000  C
  C55      1.0000 0.64230  0.91890  0.70760  Biso   1.000  C
  C56      1.0000 0.14230  0.41890  0.70760  Biso   1.000  C
  H25      1.0000 0.66550  0.07550  0.17740  Biso   1.000  H
  H26      1.0000 0.16550  0.57550  0.17740  Biso   1.000  H
  H27      1.0000 0.33450  0.07550  0.32260  Biso   1.000  H
  H28      1.0000 0.83450  0.57550  0.32260  Biso   1.000  H
  H29      1.0000 0.33450  0.92450  0.82260  Biso   1.000  H
  H30      1.0000 0.83450  0.42450  0.82260  Biso   1.000  H
  H31      1.0000 0.66550  0.92450  0.67740  Biso   1.000  H
  H32      1.0000 0.16550  0.42450  0.67740  Biso   1.000  H
  N9       1.0000 0.61270  0.84020  0.51310  Biso   1.000  N
  N10      1.0000 0.11270  0.34020  0.51310  Biso   1.000  N
  N11      1.0000 0.38730  0.84020  0.98690  Biso   1.000  N
  N12      1.0000 0.88730  0.34020  0.98690  Biso   1.000  N
  N13      1.0000 0.38730  0.15980  0.48690  Biso   1.000  N
  N14      1.0000 0.88730  0.65980  0.48690  Biso   1.000  N
  N15      1.0000 0.61270  0.15980  0.01310  Biso   1.000  N
  N16      1.0000 0.11270  0.65980  0.01310  Biso   1.000  N
  C57      1.0000 0.57270  0.89720  0.48250  Biso   1.000  C
  C58      1.0000 0.07270  0.39720  0.48250  Biso   1.000  C
  C59      1.0000 0.42730  0.89720  0.01750  Biso   1.000  C
  C60      1.0000 0.92730  0.39720  0.01750  Biso   1.000  C
  C61      1.0000 0.42730  0.10280  0.51750  Biso   1.000  C
  C62      1.0000 0.92730  0.60280  0.51750  Biso   1.000  C
  C63      1.0000 0.57270  0.10280  0.98250  Biso   1.000  C
  C64      1.0000 0.07270  0.60280  0.98250  Biso   1.000  C
  H33      1.0000 0.54590  0.89600  0.50590  Biso   1.000  H
  H34      1.0000 0.04590  0.39600  0.50590  Biso   1.000  H
  H35      1.0000 0.45410  0.89600  0.99410  Biso   1.000  H
  H36      1.0000 0.95410  0.39600  0.99410  Biso   1.000  H
  H37      1.0000 0.45410  0.10400  0.49410  Biso   1.000  H
  H38      1.0000 0.95410  0.60400  0.49410  Biso   1.000  H
  H39      1.0000 0.54590  0.10400  0.00590  Biso   1.000  H
  H40      1.0000 0.04590  0.60400  0.00590  Biso   1.000  H
  C65      1.0000 0.57000  0.95620  0.41880  Biso   1.000  C
  C66      1.0000 0.07000  0.45620  0.41880  Biso   1.000  C
  C67      1.0000 0.43000  0.95620  0.08120  Biso   1.000  C
  C68      1.0000 0.93000  0.45620  0.08120  Biso   1.000  C
  C69      1.0000 0.43000  0.04380  0.58120  Biso   1.000  C
  C70      1.0000 0.93000  0.54380  0.58120  Biso   1.000  C
  C71      1.0000 0.57000  0.04380  0.91880  Biso   1.000  C
  C72      1.0000 0.07000  0.54380  0.91880  Biso   1.000  C
  H41      1.0000 0.54050  0.99320  0.39690  Biso   1.000  H
  H42      1.0000 0.04050  0.49320  0.39690  Biso   1.000  H
  H43      1.0000 0.45950  0.99320  0.10310  Biso   1.000  H
  H44      1.0000 0.95950  0.49320  0.10310  Biso   1.000  H
  H45      1.0000 0.45950  0.00680  0.60310  Biso   1.000  H
  H46      1.0000 0.95950  0.50680  0.60310  Biso   1.000  H
  H47      1.0000 0.54050  0.00680  0.89690  Biso   1.000  H
  H48      1.0000 0.04050  0.50680  0.89690  Biso   1.000  H
  C73      1.0000 0.61010  0.96330  0.38490  Biso   1.000  C
  C74      1.0000 0.11010  0.46330  0.38490  Biso   1.000  C
  C75      1.0000 0.38990  0.96330  0.11510  Biso   1.000  C
  C76      1.0000 0.88990  0.46330  0.11510  Biso   1.000  C
  C77      1.0000 0.38990  0.03670  0.61510  Biso   1.000  C
  C78      1.0000 0.88990  0.53670  0.61510  Biso   1.000  C
  C79      1.0000 0.61010  0.03670  0.88490  Biso   1.000  C
  C80      1.0000 0.11010  0.53670  0.88490  Biso   1.000  C
  C81      1.0000 0.65380  0.90780  0.42430  Biso   1.000  C
  C82      1.0000 0.15380  0.40780  0.42430  Biso   1.000  C
  C83      1.0000 0.34620  0.90780  0.07570  Biso   1.000  C
  C84      1.0000 0.84620  0.40780  0.07570  Biso   1.000  C
  C85      1.0000 0.34620  0.09220  0.57570  Biso   1.000  C
  C86      1.0000 0.84620  0.59220  0.57570  Biso   1.000  C
  C87      1.0000 0.65380  0.09220  0.92430  Biso   1.000  C
  C88      1.0000 0.15380  0.59220  0.92430  Biso   1.000  C
  H49      1.0000 0.68310  0.91140  0.40740  Biso   1.000  H
  H50      1.0000 0.18310  0.41140  0.40740  Biso   1.000  H
  H51      1.0000 0.31690  0.91140  0.09260  Biso   1.000  H
  H52      1.0000 0.81690  0.41140  0.09260  Biso   1.000  H
  H53      1.0000 0.31690  0.08860  0.59260  Biso   1.000  H
  H54      1.0000 0.81690  0.58860  0.59260  Biso   1.000  H
  H55      1.0000 0.68310  0.08860  0.90740  Biso   1.000  H
  H56      1.0000 0.18310  0.58860  0.90740  Biso   1.000  H
  C89      1.0000 0.65320  0.84830  0.48780  Biso   1.000  C
  C90      1.0000 0.15320  0.34830  0.48780  Biso   1.000  C
  C91      1.0000 0.34680  0.84830  0.01220  Biso   1.000  C
  C92      1.0000 0.84680  0.34830  0.01220  Biso   1.000  C
  C93      1.0000 0.34680  0.15170  0.51220  Biso   1.000  C
  C94      1.0000 0.84680  0.65170  0.51220  Biso   1.000  C
  C95      1.0000 0.65320  0.15170  0.98780  Biso   1.000  C
  C96      1.0000 0.15320  0.65170  0.98780  Biso   1.000  C
  H57      1.0000 0.68270  0.81230  0.51400  Biso   1.000  H
  H58      1.0000 0.18270  0.31230  0.51400  Biso   1.000  H
  H59      1.0000 0.31730  0.81230  0.98600  Biso   1.000  H
  H60      1.0000 0.81730  0.31230  0.98600  Biso   1.000  H
  H61      1.0000 0.31730  0.18770  0.48600  Biso   1.000  H
  H62      1.0000 0.81730  0.68770  0.48600  Biso   1.000  H
  H63      1.0000 0.68270  0.18770  0.01400  Biso   1.000  H
  H64      1.0000 0.18270  0.68770  0.01400  Biso   1.000  H
  N17      1.0000 0.62120  0.34370  0.19960  Biso   1.000  N
  N18      1.0000 0.12120  0.84370  0.19960  Biso   1.000  N
  N19      1.0000 0.37880  0.34370  0.30040  Biso   1.000  N
  N20      1.0000 0.87880  0.84370  0.30040  Biso   1.000  N
  N21      1.0000 0.37880  0.65630  0.80040  Biso   1.000  N
  N22      1.0000 0.87880  0.15630  0.80040  Biso   1.000  N
  N23      1.0000 0.62120  0.65630  0.69960  Biso   1.000  N
  N24      1.0000 0.12120  0.15630  0.69960  Biso   1.000  N
  C97      1.0000 0.65430  0.33430  0.28680  Biso   1.000  C
  C98      1.0000 0.15430  0.83430  0.28680  Biso   1.000  C
  C99      1.0000 0.34570  0.33430  0.21320  Biso   1.000  C
  C100     1.0000 0.84570  0.83430  0.21320  Biso   1.000  C
  C101     1.0000 0.34570  0.66570  0.71320  Biso   1.000  C
  C102     1.0000 0.84570  0.16570  0.71320  Biso   1.000  C
  C103     1.0000 0.65430  0.66570  0.78680  Biso   1.000  C
  C104     1.0000 0.15430  0.16570  0.78680  Biso   1.000  C
  H65      1.0000 0.67710  0.28600  0.30300  Biso   1.000  H
  H66      1.0000 0.17710  0.78600  0.30300  Biso   1.000  H
  H67      1.0000 0.32290  0.28600  0.19700  Biso   1.000  H
  H68      1.0000 0.82290  0.78600  0.19700  Biso   1.000  H
  H69      1.0000 0.32290  0.71400  0.69700  Biso   1.000  H
  H70      1.0000 0.82290  0.21400  0.69700  Biso   1.000  H
  H71      1.0000 0.67710  0.71400  0.80300  Biso   1.000  H
  H72      1.0000 0.17710  0.21400  0.80300  Biso   1.000  H
  C105     1.0000 0.65450  0.39290  0.34870  Biso   1.000  C
  C106     1.0000 0.15450  0.89290  0.34870  Biso   1.000  C
  C107     1.0000 0.34550  0.39290  0.15130  Biso   1.000  C
  C108     1.0000 0.84550  0.89290  0.15130  Biso   1.000  C
  C109     1.0000 0.34550  0.60710  0.65130  Biso   1.000  C
  C110     1.0000 0.84550  0.10710  0.65130  Biso   1.000  C
  C111     1.0000 0.65450  0.60710  0.84870  Biso   1.000  C
  C112     1.0000 0.15450  0.10710  0.84870  Biso   1.000  C
  H73      1.0000 0.67720  0.38420  0.40730  Biso   1.000  H
  H74      1.0000 0.17720  0.88420  0.40730  Biso   1.000  H
  H75      1.0000 0.32280  0.38420  0.09270  Biso   1.000  H
  H76      1.0000 0.82280  0.88420  0.09270  Biso   1.000  H
  H77      1.0000 0.32280  0.61580  0.59270  Biso   1.000  H
  H78      1.0000 0.82280  0.11580  0.59270  Biso   1.000  H
  H79      1.0000 0.67720  0.61580  0.90730  Biso   1.000  H
  H80      1.0000 0.17720  0.11580  0.90730  Biso   1.000  H
  C113     1.0000 0.62240  0.46510  0.32830  Biso   1.000  C
  C114     1.0000 0.12240  0.96510  0.32830  Biso   1.000  C
  C115     1.0000 0.37760  0.46510  0.17170  Biso   1.000  C
  C116     1.0000 0.87760  0.96510  0.17170  Biso   1.000  C
  C117     1.0000 0.37760  0.53490  0.67170  Biso   1.000  C
  C118     1.0000 0.87760  0.03490  0.67170  Biso   1.000  C
  C119     1.0000 0.62240  0.53490  0.82830  Biso   1.000  C
  C120     1.0000 0.12240  0.03490  0.82830  Biso   1.000  C
  C121     1.0000 0.58670  0.47170  0.24080  Biso   1.000  C
  C122     1.0000 0.08670  0.97170  0.24080  Biso   1.000  C
  C123     1.0000 0.41330  0.47170  0.25920  Biso   1.000  C
  C124     1.0000 0.91330  0.97170  0.25920  Biso   1.000  C
  C125     1.0000 0.41330  0.52830  0.75920  Biso   1.000  C
  C126     1.0000 0.91330  0.02830  0.75920  Biso   1.000  C
  C127     1.0000 0.58670  0.52830  0.74080  Biso   1.000  C
  C128     1.0000 0.08670  0.02830  0.74080  Biso   1.000  C
  H81      1.0000 0.56150  0.51650  0.22400  Biso   1.000  H
  H82      1.0000 0.06150  0.01650  0.22400  Biso   1.000  H
  H83      1.0000 0.43850  0.51650  0.27600  Biso   1.000  H
  H84      1.0000 0.93850  0.01650  0.27600  Biso   1.000  H
  H85      1.0000 0.43850  0.48350  0.77600  Biso   1.000  H
  H86      1.0000 0.93850  0.98350  0.77600  Biso   1.000  H
  H87      1.0000 0.56150  0.48350  0.72400  Biso   1.000  H
  H88      1.0000 0.06150  0.98350  0.72400  Biso   1.000  H
  C129     1.0000 0.58980  0.41070  0.18050  Biso   1.000  C
  C130     1.0000 0.08980  0.91070  0.18050  Biso   1.000  C
  C131     1.0000 0.41020  0.41070  0.31950  Biso   1.000  C
  C132     1.0000 0.91020  0.91070  0.31950  Biso   1.000  C
  C133     1.0000 0.41020  0.58930  0.81950  Biso   1.000  C
  C134     1.0000 0.91020  0.08930  0.81950  Biso   1.000  C
  C135     1.0000 0.58980  0.58930  0.68050  Biso   1.000  C
  C136     1.0000 0.08980  0.08930  0.68050  Biso   1.000  C
  H89      1.0000 0.56770  0.41820  0.12140  Biso   1.000  H
  H90      1.0000 0.06770  0.91820  0.12140  Biso   1.000  H
  H91      1.0000 0.43230  0.41820  0.37860  Biso   1.000  H
  H92      1.0000 0.93230  0.91820  0.37860  Biso   1.000  H
  H93      1.0000 0.43230  0.58180  0.87860  Biso   1.000  H
  H94      1.0000 0.93230  0.08180  0.87860  Biso   1.000  H
  H95      1.0000 0.56770  0.58180  0.62140  Biso   1.000  H
  H96      1.0000 0.06770  0.08180  0.62140  Biso   1.000  H
  N25      1.0000 0.61970  0.65490  0.52340  Biso   1.000  N
  N26      1.0000 0.11970  0.15490  0.52340  Biso   1.000  N
  N27      1.0000 0.38030  0.65490  0.97660  Biso   1.000  N
  N28      1.0000 0.88030  0.15490  0.97660  Biso   1.000  N
  N29      1.0000 0.38030  0.34510  0.47660  Biso   1.000  N
  N30      1.0000 0.88030  0.84510  0.47660  Biso   1.000  N
  N31      1.0000 0.61970  0.34510  0.02340  Biso   1.000  N
  N32      1.0000 0.11970  0.84510  0.02340  Biso   1.000  N
  C137     1.0000 0.58080  0.65110  0.44460  Biso   1.000  C
  C138     1.0000 0.08080  0.15110  0.44460  Biso   1.000  C
  C139     1.0000 0.41920  0.65110  0.05540  Biso   1.000  C
  C140     1.0000 0.91920  0.15110  0.05540  Biso   1.000  C
  C141     1.0000 0.41920  0.34890  0.55540  Biso   1.000  C
  C142     1.0000 0.91920  0.84890  0.55540  Biso   1.000  C
  C143     1.0000 0.58080  0.34890  0.94460  Biso   1.000  C
  C144     1.0000 0.08080  0.84890  0.94460  Biso   1.000  C
  H97      1.0000 0.55280  0.69080  0.43220  Biso   1.000  H
  H98      1.0000 0.05280  0.19080  0.43220  Biso   1.000  H
  H99      1.0000 0.44720  0.69080  0.06780  Biso   1.000  H
  H100     1.0000 0.94720  0.19080  0.06780  Biso   1.000  H
  H101     1.0000 0.44720  0.30920  0.56780  Biso   1.000  H
  H102     1.0000 0.94720  0.80920  0.56780  Biso   1.000  H
  H103     1.0000 0.55280  0.30920  0.93220  Biso   1.000  H
  H104     1.0000 0.05280  0.80920  0.93220  Biso   1.000  H
  C145     1.0000 0.58030  0.59000  0.37980  Biso   1.000  C
  C146     1.0000 0.08030  0.09000  0.37980  Biso   1.000  C
  C147     1.0000 0.41970  0.59000  0.12020  Biso   1.000  C
  C148     1.0000 0.91970  0.09000  0.12020  Biso   1.000  C
  C149     1.0000 0.41970  0.41000  0.62020  Biso   1.000  C
  C150     1.0000 0.91970  0.91000  0.62020  Biso   1.000  C
  C151     1.0000 0.58030  0.41000  0.87980  Biso   1.000  C
  C152     1.0000 0.08030  0.91000  0.87980  Biso   1.000  C
  H105     1.0000 0.55200  0.58940  0.32560  Biso   1.000  H
  H106     1.0000 0.05200  0.08940  0.32560  Biso   1.000  H
  H107     1.0000 0.44800  0.58940  0.17440  Biso   1.000  H
  H108     1.0000 0.94800  0.08940  0.17440  Biso   1.000  H
  H109     1.0000 0.44800  0.41060  0.67440  Biso   1.000  H
  H110     1.0000 0.94800  0.91060  0.67440  Biso   1.000  H
  H111     1.0000 0.55200  0.41060  0.82560  Biso   1.000  H
  H112     1.0000 0.05200  0.91060  0.82560  Biso   1.000  H
  C153     1.0000 0.62070  0.53110  0.39480  Biso   1.000  C
  C154     1.0000 0.12070  0.03110  0.39480  Biso   1.000  C
  C155     1.0000 0.37930  0.53110  0.10520  Biso   1.000  C
  C156     1.0000 0.87930  0.03110  0.10520  Biso   1.000  C
  C157     1.0000 0.37930  0.46890  0.60520  Biso   1.000  C
  C158     1.0000 0.87930  0.96890  0.60520  Biso   1.000  C
  C159     1.0000 0.62070  0.46890  0.89480  Biso   1.000  C
  C160     1.0000 0.12070  0.96890  0.89480  Biso   1.000  C
  C161     1.0000 0.66190  0.53450  0.48130  Biso   1.000  C
  C162     1.0000 0.16190  0.03450  0.48130  Biso   1.000  C
  C163     1.0000 0.33810  0.53450  0.01870  Biso   1.000  C
  C164     1.0000 0.83810  0.03450  0.01870  Biso   1.000  C
  C165     1.0000 0.33810  0.46550  0.51870  Biso   1.000  C
  C166     1.0000 0.83810  0.96550  0.51870  Biso   1.000  C
  C167     1.0000 0.66190  0.46550  0.98130  Biso   1.000  C
  C168     1.0000 0.16190  0.96550  0.98130  Biso   1.000  C
  H113     1.0000 0.69060  0.49600  0.49690  Biso   1.000  H
  H114     1.0000 0.19060  0.99600  0.49690  Biso   1.000  H
  H115     1.0000 0.30940  0.49600  0.00310  Biso   1.000  H
  H116     1.0000 0.80940  0.99600  0.00310  Biso   1.000  H
  H117     1.0000 0.30940  0.50400  0.50310  Biso   1.000  H
  H118     1.0000 0.80940  0.00400  0.50310  Biso   1.000  H
  H119     1.0000 0.69060  0.50400  0.99690  Biso   1.000  H
  H120     1.0000 0.19060  0.00400  0.99690  Biso   1.000  H
  C169     1.0000 0.65720  0.59590  0.53900  Biso   1.000  C
  C170     1.0000 0.15720  0.09590  0.53900  Biso   1.000  C
  C171     1.0000 0.34280  0.59590  0.96100  Biso   1.000  C
  C172     1.0000 0.84280  0.09590  0.96100  Biso   1.000  C
  C173     1.0000 0.34280  0.40410  0.46100  Biso   1.000  C
  C174     1.0000 0.84280  0.90410  0.46100  Biso   1.000  C
  C175     1.0000 0.65720  0.40410  0.03900  Biso   1.000  C
  C176     1.0000 0.15720  0.90410  0.03900  Biso   1.000  C
  H121     1.0000 0.68330  0.59600  0.59560  Biso   1.000  H
  H122     1.0000 0.18330  0.09600  0.59560  Biso   1.000  H
  H123     1.0000 0.31670  0.59600  0.90440  Biso   1.000  H
  H124     1.0000 0.81670  0.09600  0.90440  Biso   1.000  H
  H125     1.0000 0.31670  0.40400  0.40440  Biso   1.000  H
  H126     1.0000 0.81670  0.90400  0.40440  Biso   1.000  H
  H127     1.0000 0.68330  0.40400  0.09560  Biso   1.000  H
  H128     1.0000 0.18330  0.90400  0.09560  Biso   1.000  H
