data_image0
_cell_length_a       10.165
_cell_length_b       11.371
_cell_length_c       16.962
_cell_angle_alpha    92.56
_cell_angle_beta     104.2
_cell_angle_gamma    93.78

_symmetry_space_group_name_H-M    "P 1"
_symmetry_int_tables_number       1

loop_
  _symmetry_equiv_pos_as_xyz
  'x, y, z'

loop_
  _atom_site_label
  _atom_site_occupancy
  _atom_site_fract_x
  _atom_site_fract_y
  _atom_site_fract_z
  _atom_site_thermal_displace_type
  _atom_site_B_iso_or_equiv
  _atom_site_type_symbol
  Cu1      1.0000 0.58730  0.37450  0.86360  Biso   1.000  Cu
  Cu2      1.0000 0.41270  0.62550  0.13640  Biso   1.000  Cu
  Cu3      1.0000 0.99480  0.36070  0.61600  Biso   1.000  Cu
  Cu4      1.0000 0.00520  0.63930  0.38400  Biso   1.000  Cu
  O1       1.0000 0.49340  0.52120  0.87540  Biso   1.000  O
  O2       1.0000 0.50660  0.47880  0.12460  Biso   1.000  O
  O3       1.0000 0.44100  0.47320  0.74350  Biso   1.000  O
  O4       1.0000 0.55900  0.52680  0.25650  Biso   1.000  O
  O5       1.0000 0.17950  0.55370  0.59440  Biso   1.000  O
  O6       1.0000 0.82050  0.44630  0.40560  Biso   1.000  O
  O7       1.0000 0.12520  0.47010  0.69950  Biso   1.000  O
  O8       1.0000 0.87480  0.52990  0.30050  Biso   1.000  O
  C1       1.0000 0.43790  0.54020  0.80180  Biso   1.000  C
  C2       1.0000 0.56210  0.45980  0.19820  Biso   1.000  C
  C3       1.0000 0.18240  0.55140  0.66810  Biso   1.000  C
  C4       1.0000 0.81760  0.44860  0.33190  Biso   1.000  C
  C5       1.0000 0.36550  0.65260  0.78820  Biso   1.000  C
  C6       1.0000 0.63450  0.34740  0.21180  Biso   1.000  C
  C7       1.0000 0.25300  0.65690  0.72420  Biso   1.000  C
  C8       1.0000 0.74700  0.34310  0.27580  Biso   1.000  C
  C9       1.0000 0.19390  0.76480  0.70940  Biso   1.000  C
  C10      1.0000 0.80610  0.23520  0.29060  Biso   1.000  C
  C11      1.0000 0.24950  0.86530  0.75870  Biso   1.000  C
  C12      1.0000 0.75050  0.13470  0.24130  Biso   1.000  C
  C13      1.0000 0.36430  0.86230  0.82060  Biso   1.000  C
  C14      1.0000 0.63570  0.13770  0.17940  Biso   1.000  C
  C15      1.0000 0.42220  0.75420  0.83550  Biso   1.000  C
  C16      1.0000 0.57780  0.24580  0.16450  Biso   1.000  C
  O9       1.0000 0.68880  0.22940  0.87520  Biso   1.000  O
  O10      1.0000 0.31120  0.77060  0.12480  Biso   1.000  O
  O11      1.0000 0.64170  0.25600  0.74410  Biso   1.000  O
  O12      1.0000 0.35830  0.74400  0.25590  Biso   1.000  O
  O13      1.0000 0.90780  0.23940  0.69420  Biso   1.000  O
  O14      1.0000 0.09220  0.76060  0.30580  Biso   1.000  O
  O15      1.0000 0.75460  0.13810  0.59250  Biso   1.000  O
  O16      1.0000 0.24540  0.86190  0.40750  Biso   1.000  O
  C17      1.0000 0.68680  0.19820  0.80240  Biso   1.000  C
  C18      1.0000 0.31320  0.80180  0.19760  Biso   1.000  C
  C19      1.0000 0.82030  0.15550  0.66570  Biso   1.000  C
  C20      1.0000 0.17970  0.84450  0.33430  Biso   1.000  C
  C21      1.0000 0.74420  0.07890  0.78850  Biso   1.000  C
  C22      1.0000 0.25580  0.92110  0.21150  Biso   1.000  C
  C23      1.0000 0.79780  0.06050  0.72150  Biso   1.000  C
  C24      1.0000 0.20220  0.93950  0.27850  Biso   1.000  C
  C25      1.0000 0.84070  0.94930  0.70700  Biso   1.000  C
  C26      1.0000 0.15930  0.05070  0.29300  Biso   1.000  C
  C27      1.0000 0.82810  0.85890  0.75740  Biso   1.000  C
  C28      1.0000 0.17190  0.14110  0.24260  Biso   1.000  C
  C29      1.0000 0.77110  0.87870  0.82260  Biso   1.000  C
  C30      1.0000 0.22890  0.12130  0.17740  Biso   1.000  C
  C31      1.0000 0.73070  0.98680  0.83870  Biso   1.000  C
  C32      1.0000 0.26930  0.01320  0.16130  Biso   1.000  C
  N1       1.0000 0.76320  0.47650  0.88370  Biso   1.000  N
  N2       1.0000 0.23680  0.52350  0.11630  Biso   1.000  N
  C33      1.0000 0.79180  0.56250  0.94360  Biso   1.000  C
  C34      1.0000 0.20820  0.43750  0.05640  Biso   1.000  C
  C35      1.0000 0.90780  0.63190  0.95880  Biso   1.000  C
  C36      1.0000 0.09220  0.36810  0.04120  Biso   1.000  C
  C37      1.0000 0.00410  0.62160  0.91540  Biso   1.000  C
  C38      1.0000 0.99590  0.37840  0.08460  Biso   1.000  C
  C39      1.0000 0.97370  0.53230  0.85210  Biso   1.000  C
  C40      1.0000 0.02630  0.46770  0.14790  Biso   1.000  C
  C41      1.0000 0.85290  0.45990  0.83910  Biso   1.000  C
  C42      1.0000 0.14710  0.54010  0.16090  Biso   1.000  C
  C43      1.0000 0.13450  0.69770  0.92850  Biso   1.000  C
  C44      1.0000 0.86550  0.30230  0.07150  Biso   1.000  C
  N3       1.0000 0.42960  0.27320  0.87840  Biso   1.000  N
  N4       1.0000 0.57040  0.72680  0.12160  Biso   1.000  N
  C45      1.0000 0.44580  0.19590  0.93840  Biso   1.000  C
  C46      1.0000 0.55420  0.80410  0.06160  Biso   1.000  C
  C47      1.0000 0.33980  0.12580  0.95470  Biso   1.000  C
  C48      1.0000 0.66020  0.87420  0.04530  Biso   1.000  C
  C49      1.0000 0.21060  0.13220  0.90860  Biso   1.000  C
  C50      1.0000 0.78940  0.86780  0.09140  Biso   1.000  C
  C51      1.0000 0.19040  0.20860  0.84680  Biso   1.000  C
  C52      1.0000 0.80960  0.79140  0.15320  Biso   1.000  C
  C53      1.0000 0.29860  0.28050  0.83560  Biso   1.000  C
  C54      1.0000 0.70140  0.71950  0.16440  Biso   1.000  C
  C55      1.0000 0.09250  0.05460  0.92220  Biso   1.000  C
  C56      1.0000 0.90750  0.94540  0.07780  Biso   1.000  C
  N5       1.0000 0.85010  0.47600  0.60740  Biso   1.000  N
  N6       1.0000 0.14990  0.52400  0.39260  Biso   1.000  N
  C57      1.0000 0.73020  0.44140  0.62460  Biso   1.000  C
  C58      1.0000 0.26980  0.55860  0.37540  Biso   1.000  C
  C59      1.0000 0.62590  0.51360  0.61650  Biso   1.000  C
  C60      1.0000 0.37410  0.48640  0.38350  Biso   1.000  C
  C61      1.0000 0.64090  0.62580  0.59080  Biso   1.000  C
  C62      1.0000 0.35910  0.37420  0.40920  Biso   1.000  C
  C63      1.0000 0.76080  0.66040  0.57210  Biso   1.000  C
  C64      1.0000 0.23920  0.33960  0.42790  Biso   1.000  C
  C65      1.0000 0.86290  0.58400  0.58120  Biso   1.000  C
  C66      1.0000 0.13710  0.41600  0.41880  Biso   1.000  C
  C67      1.0000 0.52840  0.70700  0.58360  Biso   1.000  C
  C68      1.0000 0.47160  0.29300  0.41640  Biso   1.000  C
  N7       1.0000 0.13400  0.24520  0.60820  Biso   1.000  N
  N8       1.0000 0.86600  0.75480  0.39180  Biso   1.000  N
  C69      1.0000 0.26770  0.27840  0.62390  Biso   1.000  C
  C70      1.0000 0.73230  0.72160  0.37610  Biso   1.000  C
  C71      1.0000 0.36460  0.20030  0.62120  Biso   1.000  C
  C72      1.0000 0.63540  0.79970  0.37880  Biso   1.000  C
  C73      1.0000 0.32330  0.08080  0.60070  Biso   1.000  C
  C74      1.0000 0.67670  0.91920  0.39930  Biso   1.000  C
  C75      1.0000 0.18620  0.04880  0.58310  Biso   1.000  C
  C76      1.0000 0.81380  0.95120  0.41690  Biso   1.000  C
  C77      1.0000 0.09520  0.13220  0.58850  Biso   1.000  C
  C78      1.0000 0.90480  0.86780  0.41150  Biso   1.000  C
  C79      1.0000 0.42410  0.99210  0.59760  Biso   1.000  C
  C80      1.0000 0.57590  0.00790  0.40240  Biso   1.000  C
  O17      1.0000 0.87690  0.27610  0.51040  Biso   1.000  O
  O18      1.0000 0.12310  0.72390  0.48960  Biso   1.000  O
  H1       1.0000 0.11510  0.76840  0.66500  Biso   1.000  H
  H2       1.0000 0.88490  0.23160  0.33500  Biso   1.000  H
  H3       1.0000 0.20660  0.93790  0.74920  Biso   1.000  H
  H4       1.0000 0.79340  0.06210  0.25080  Biso   1.000  H
  H5       1.0000 0.40480  0.93280  0.85300  Biso   1.000  H
  H6       1.0000 0.59520  0.06720  0.14700  Biso   1.000  H
  H7       1.0000 0.50180  0.75020  0.87930  Biso   1.000  H
  H8       1.0000 0.49820  0.24980  0.12070  Biso   1.000  H
  H9       1.0000 0.87920  0.93510  0.66150  Biso   1.000  H
  H10      1.0000 0.12080  0.06490  0.33850  Biso   1.000  H
  H11      1.0000 0.86000  0.78320  0.74790  Biso   1.000  H
  H12      1.0000 0.14000  0.21680  0.25210  Biso   1.000  H
  H13      1.0000 0.75890  0.81520  0.85630  Biso   1.000  H
  H14      1.0000 0.24110  0.18480  0.14370  Biso   1.000  H
  H15      1.0000 0.69340  0.00040  0.88470  Biso   1.000  H
  H16      1.0000 0.30660  0.99960  0.11530  Biso   1.000  H
  H17      1.0000 0.72960  0.57410  0.97480  Biso   1.000  H
  H18      1.0000 0.27040  0.42590  0.02520  Biso   1.000  H
  H19      1.0000 0.92420  0.69000  0.00120  Biso   1.000  H
  H20      1.0000 0.07580  0.31000  0.99880  Biso   1.000  H
  H21      1.0000 0.03320  0.52180  0.81900  Biso   1.000  H
  H22      1.0000 0.96680  0.47820  0.18100  Biso   1.000  H
  H23      1.0000 0.83470  0.39880  0.79880  Biso   1.000  H
  H24      1.0000 0.16530  0.60120  0.20120  Biso   1.000  H
  H25      1.0000 0.13420  0.73950  0.88050  Biso   1.000  H
  H26      1.0000 0.86580  0.26050  0.11950  Biso   1.000  H
  H27      1.0000 0.21000  0.64930  0.93920  Biso   1.000  H
  H28      1.0000 0.79000  0.35070  0.06080  Biso   1.000  H
  H29      1.0000 0.14260  0.75320  0.97400  Biso   1.000  H
  H30      1.0000 0.85740  0.24680  0.02600  Biso   1.000  H
  H31      1.0000 0.53320  0.18950  0.97040  Biso   1.000  H
  H32      1.0000 0.46680  0.81050  0.02960  Biso   1.000  H
  H33      1.0000 0.35710  0.07480  0.99670  Biso   1.000  H
  H34      1.0000 0.64290  0.92520  0.00330  Biso   1.000  H
  H35      1.0000 0.10390  0.21210  0.81280  Biso   1.000  H
  H36      1.0000 0.89610  0.78790  0.18720  Biso   1.000  H
  H37      1.0000 0.28120  0.33640  0.79670  Biso   1.000  H
  H38      1.0000 0.71880  0.66360  0.20330  Biso   1.000  H
  H39      1.0000 0.05760  0.00060  0.87540  Biso   1.000  H
  H40      1.0000 0.94240  0.99940  0.12460  Biso   1.000  H
  H41      1.0000 0.02180  0.10240  0.93020  Biso   1.000  H
  H42      1.0000 0.97820  0.89760  0.06980  Biso   1.000  H
  H43      1.0000 0.12330  0.01090  0.96950  Biso   1.000  H
  H44      1.0000 0.87670  0.98910  0.03050  Biso   1.000  H
  H45      1.0000 0.71910  0.36630  0.64280  Biso   1.000  H
  H46      1.0000 0.28090  0.63370  0.35720  Biso   1.000  H
  H47      1.0000 0.54450  0.48660  0.62780  Biso   1.000  H
  H48      1.0000 0.45550  0.51340  0.37220  Biso   1.000  H
  H49      1.0000 0.77360  0.73500  0.55350  Biso   1.000  H
  H50      1.0000 0.22640  0.26500  0.44650  Biso   1.000  H
  H51      1.0000 0.94390  0.60870  0.56850  Biso   1.000  H
  H52      1.0000 0.05610  0.39130  0.43150  Biso   1.000  H
  H53      1.0000 0.50270  0.73210  0.52900  Biso   1.000  H
  H54      1.0000 0.49730  0.26790  0.47100  Biso   1.000  H
  H55      1.0000 0.55990  0.77460  0.62100  Biso   1.000  H
  H56      1.0000 0.44010  0.22540  0.37900  Biso   1.000  H
  H57      1.0000 0.45100  0.66660  0.59650  Biso   1.000  H
  H58      1.0000 0.54900  0.33340  0.40350  Biso   1.000  H
  H59      1.0000 0.29630  0.35770  0.63760  Biso   1.000  H
  H60      1.0000 0.70370  0.64230  0.36240  Biso   1.000  H
  H61      1.0000 0.45620  0.22680  0.63260  Biso   1.000  H
  H62      1.0000 0.54380  0.77320  0.36740  Biso   1.000  H
  H63      1.0000 0.15410  0.97070  0.56730  Biso   1.000  H
  H64      1.0000 0.84590  0.02930  0.43270  Biso   1.000  H
  H65      1.0000 0.00300  0.10790  0.57790  Biso   1.000  H
  H66      1.0000 0.99700  0.89210  0.42210  Biso   1.000  H
  H67      1.0000 0.51460  0.03000  0.61490  Biso   1.000  H
  H68      1.0000 0.48540  0.97000  0.38510  Biso   1.000  H
  H69      1.0000 0.40920  0.95820  0.54300  Biso   1.000  H
  H70      1.0000 0.59080  0.04180  0.45700  Biso   1.000  H
  H71      1.0000 0.41360  0.93100  0.63340  Biso   1.000  H
  H72      1.0000 0.58640  0.06900  0.36660  Biso   1.000  H
  H73      1.0000 0.82800  0.30930  0.48650  Biso   1.000  H
  H74      1.0000 0.17200  0.69070  0.51350  Biso   1.000  H
  H75      1.0000 0.80700  0.20590  0.54010  Biso   1.000  H
  H76      1.0000 0.19300  0.79410  0.45990  Biso   1.000  H
