data_image0
_cell_length_a       6.491
_cell_length_b       9.617
_cell_length_c       19.261
_cell_angle_alpha    90
_cell_angle_beta     90
_cell_angle_gamma    90

_symmetry_space_group_name_H-M    "P 1"
_symmetry_int_tables_number       1

loop_
  _symmetry_equiv_pos_as_xyz
  'x, y, z'

loop_
  _atom_site_label
  _atom_site_occupancy
  _atom_site_fract_x
  _atom_site_fract_y
  _atom_site_fract_z
  _atom_site_thermal_displace_type
  _atom_site_B_iso_or_equiv
  _atom_site_type_symbol
  Cu1      1.0000 0.84090  0.05980  0.93100  Biso   1.000  Cu
  Cu2      1.0000 0.65910  0.94020  0.43100  Biso   1.000  Cu
  Cu3      1.0000 0.34090  0.44020  0.06900  Biso   1.000  Cu
  Cu4      1.0000 0.15910  0.55980  0.56900  Biso   1.000  Cu
  O1       1.0000 0.90500  0.19890  0.00110  Biso   1.000  O
  O2       1.0000 0.59500  0.80110  0.50110  Biso   1.000  O
  O3       1.0000 0.40500  0.30110  0.99890  Biso   1.000  O
  O4       1.0000 0.09500  0.69890  0.49890  Biso   1.000  O
  O5       1.0000 0.96340  0.40580  0.04700  Biso   1.000  O
  O6       1.0000 0.53660  0.59420  0.54700  Biso   1.000  O
  O7       1.0000 0.46340  0.09420  0.95300  Biso   1.000  O
  O8       1.0000 0.03660  0.90580  0.45300  Biso   1.000  O
  O9       1.0000 0.76340  0.92620  0.86160  Biso   1.000  O
  O10      1.0000 0.73660  0.07380  0.36160  Biso   1.000  O
  O11      1.0000 0.26340  0.57380  0.13840  Biso   1.000  O
  O12      1.0000 0.23660  0.42620  0.63840  Biso   1.000  O
  O13      1.0000 0.59930  0.91810  0.75950  Biso   1.000  O
  O14      1.0000 0.90070  0.08190  0.25950  Biso   1.000  O
  O15      1.0000 0.09930  0.58190  0.24050  Biso   1.000  O
  O16      1.0000 0.40070  0.41810  0.74050  Biso   1.000  O
  N1       1.0000 0.86960  0.19280  0.85170  Biso   1.000  N
  N2       1.0000 0.63040  0.80720  0.35170  Biso   1.000  N
  N3       1.0000 0.36960  0.30720  0.14830  Biso   1.000  N
  N4       1.0000 0.13040  0.69280  0.64830  Biso   1.000  N
  N5       1.0000 0.87910  0.91000  0.99990  Biso   1.000  N
  N6       1.0000 0.62090  0.09000  0.49990  Biso   1.000  N
  N7       1.0000 0.37910  0.59000  0.00010  Biso   1.000  N
  N8       1.0000 0.12090  0.41000  0.50010  Biso   1.000  N
  N9       1.0000 0.91380  0.69960  0.04170  Biso   1.000  N
  N10      1.0000 0.58620  0.30040  0.54170  Biso   1.000  N
  N11      1.0000 0.41380  0.80040  0.95830  Biso   1.000  N
  N12      1.0000 0.08620  0.19960  0.45830  Biso   1.000  N
  C1       1.0000 0.76620  0.32530  0.87060  Biso   1.000  C
  C2       1.0000 0.73380  0.67470  0.37060  Biso   1.000  C
  C3       1.0000 0.26620  0.17470  0.12940  Biso   1.000  C
  C4       1.0000 0.23380  0.82530  0.62940  Biso   1.000  C
  C5       1.0000 0.87350  0.40360  0.92840  Biso   1.000  C
  C6       1.0000 0.62650  0.59640  0.42840  Biso   1.000  C
  C7       1.0000 0.37350  0.09640  0.07160  Biso   1.000  C
  C8       1.0000 0.12650  0.90360  0.57160  Biso   1.000  C
  C9       1.0000 0.91450  0.33050  0.99660  Biso   1.000  C
  C10      1.0000 0.58550  0.66950  0.49660  Biso   1.000  C
  C11      1.0000 0.41450  0.16950  0.00340  Biso   1.000  C
  C12      1.0000 0.08550  0.83050  0.50340  Biso   1.000  C
  C13      1.0000 0.76760  0.13000  0.78850  Biso   1.000  C
  C14      1.0000 0.73240  0.87000  0.28850  Biso   1.000  C
  C15      1.0000 0.26760  0.37000  0.21150  Biso   1.000  C
  C16      1.0000 0.23240  0.63000  0.71150  Biso   1.000  C
  C17      1.0000 0.70060  0.97820  0.80350  Biso   1.000  C
  C18      1.0000 0.79940  0.02180  0.30350  Biso   1.000  C
  C19      1.0000 0.20060  0.52180  0.19650  Biso   1.000  C
  C20      1.0000 0.29940  0.47820  0.69650  Biso   1.000  C
  C21      1.0000 0.92940  0.13310  0.73250  Biso   1.000  C
  C22      1.0000 0.57060  0.86690  0.23250  Biso   1.000  C
  C23      1.0000 0.42940  0.36690  0.26750  Biso   1.000  C
  C24      1.0000 0.07060  0.63310  0.76750  Biso   1.000  C
  C25      1.0000 0.12950  0.11750  0.77210  Biso   1.000  C
  C26      1.0000 0.37050  0.88250  0.27210  Biso   1.000  C
  C27      1.0000 0.62950  0.38250  0.22790  Biso   1.000  C
  C28      1.0000 0.87050  0.61750  0.72790  Biso   1.000  C
  C29      1.0000 0.09290  0.21210  0.83330  Biso   1.000  C
  C30      1.0000 0.40710  0.78790  0.33330  Biso   1.000  C
  C31      1.0000 0.59290  0.28790  0.16670  Biso   1.000  C
  C32      1.0000 0.90710  0.71210  0.66670  Biso   1.000  C
  C33      1.0000 0.89010  0.77570  0.98510  Biso   1.000  C
  C34      1.0000 0.60990  0.22430  0.48510  Biso   1.000  C
  C35      1.0000 0.39010  0.72430  0.01490  Biso   1.000  C
  C36      1.0000 0.10990  0.27570  0.51490  Biso   1.000  C
  C37      1.0000 0.91550  0.78820  0.09680  Biso   1.000  C
  C38      1.0000 0.58450  0.21180  0.59680  Biso   1.000  C
  C39      1.0000 0.41550  0.71180  0.90320  Biso   1.000  C
  C40      1.0000 0.08450  0.28820  0.40320  Biso   1.000  C
  C41      1.0000 0.89430  0.91640  0.07130  Biso   1.000  C
  C42      1.0000 0.60570  0.08360  0.57130  Biso   1.000  C
  C43      1.0000 0.39430  0.58360  0.92870  Biso   1.000  C
  C44      1.0000 0.10570  0.41640  0.42870  Biso   1.000  C
