data_image0
_cell_length_a       11.0435
_cell_length_b       11.0435
_cell_length_c       24.604
_cell_angle_alpha    90
_cell_angle_beta     90
_cell_angle_gamma    120

_symmetry_space_group_name_H-M    "P 1"
_symmetry_int_tables_number       1

loop_
  _symmetry_equiv_pos_as_xyz
  'x, y, z'

loop_
  _atom_site_label
  _atom_site_occupancy
  _atom_site_fract_x
  _atom_site_fract_y
  _atom_site_fract_z
  _atom_site_thermal_displace_type
  _atom_site_B_iso_or_equiv
  _atom_site_type_symbol
  Cu1      1.0000 0.48401  0.00000  0.00000  Biso   1.000  Cu
  Cu2      1.0000 0.00000  0.48401  0.66667  Biso   1.000  Cu
  Cu3      1.0000 0.51599  0.51599  0.33333  Biso   1.000  Cu
  Cu4      1.0000 0.51599  0.00000  0.50000  Biso   1.000  Cu
  Cu5      1.0000 0.00000  0.51599  0.16667  Biso   1.000  Cu
  Cu6      1.0000 0.48401  0.48401  0.83333  Biso   1.000  Cu
  O1       1.0000 0.56627  0.17401  0.04223  Biso   1.000  O
  O2       1.0000 0.82599  0.39226  0.70890  Biso   1.000  O
  O3       1.0000 0.60774  0.43373  0.37556  Biso   1.000  O
  O4       1.0000 0.43373  0.82599  0.54223  Biso   1.000  O
  O5       1.0000 0.17401  0.60774  0.20890  Biso   1.000  O
  O6       1.0000 0.39226  0.56627  0.87556  Biso   1.000  O
  O7       1.0000 0.17401  0.56627  0.62444  Biso   1.000  O
  O8       1.0000 0.39226  0.82599  0.95777  Biso   1.000  O
  O9       1.0000 0.43373  0.60774  0.29110  Biso   1.000  O
  O10      1.0000 0.82599  0.43373  0.12444  Biso   1.000  O
  O11      1.0000 0.60774  0.17401  0.45777  Biso   1.000  O
  O12      1.0000 0.56627  0.39226  0.79110  Biso   1.000  O
  N1       1.0000 0.66410  0.00000  0.00000  Biso   1.000  N
  N2       1.0000 0.00000  0.66410  0.66667  Biso   1.000  N
  N3       1.0000 0.33590  0.33590  0.33333  Biso   1.000  N
  N4       1.0000 0.33590  0.00000  0.50000  Biso   1.000  N
  N5       1.0000 0.00000  0.33590  0.16667  Biso   1.000  N
  N6       1.0000 0.66410  0.66410  0.83333  Biso   1.000  N
  N7       1.0000 0.30200  0.00000  0.00000  Biso   1.000  N
  N8       1.0000 0.00000  0.30200  0.66667  Biso   1.000  N
  N9       1.0000 0.69800  0.69800  0.33333  Biso   1.000  N
  N10      1.0000 0.69800  0.00000  0.50000  Biso   1.000  N
  N11      1.0000 0.00000  0.69800  0.16667  Biso   1.000  N
  N12      1.0000 0.30200  0.30200  0.83333  Biso   1.000  N
  C1       1.0000 0.04980  0.00000  0.00000  Biso   1.000  C
  C2       1.0000 0.00000  0.04980  0.66667  Biso   1.000  C
  C3       1.0000 0.95020  0.95020  0.33333  Biso   1.000  C
  C4       1.0000 0.95020  0.00000  0.50000  Biso   1.000  C
  C5       1.0000 0.00000  0.95020  0.16667  Biso   1.000  C
  C6       1.0000 0.04980  0.04980  0.83333  Biso   1.000  C
  C7       1.0000 0.54910  0.33610  0.10028  Biso   1.000  C
  C8       1.0000 0.66390  0.21300  0.76695  Biso   1.000  C
  C9       1.0000 0.78700  0.45090  0.43361  Biso   1.000  C
  C10      1.0000 0.45090  0.66390  0.60028  Biso   1.000  C
  C11      1.0000 0.33610  0.78700  0.26695  Biso   1.000  C
  C12      1.0000 0.21300  0.54910  0.93361  Biso   1.000  C
  C13      1.0000 0.33610  0.54910  0.56639  Biso   1.000  C
  C14      1.0000 0.21300  0.66390  0.89972  Biso   1.000  C
  C15      1.0000 0.45090  0.78700  0.23305  Biso   1.000  C
  C16      1.0000 0.66390  0.45090  0.06639  Biso   1.000  C
  C17      1.0000 0.78700  0.33610  0.39972  Biso   1.000  C
  C18      1.0000 0.54910  0.21300  0.73305  Biso   1.000  C
  H1       1.0000 0.46140  0.33810  0.09450  Biso   1.000  H
  H2       1.0000 0.66190  0.12330  0.76117  Biso   1.000  H
  H3       1.0000 0.87670  0.53860  0.42783  Biso   1.000  H
  H4       1.0000 0.53860  0.66190  0.59450  Biso   1.000  H
  H5       1.0000 0.33810  0.87670  0.26117  Biso   1.000  H
  H6       1.0000 0.12330  0.46140  0.92783  Biso   1.000  H
  H7       1.0000 0.33810  0.46140  0.57217  Biso   1.000  H
  H8       1.0000 0.12330  0.66190  0.90550  Biso   1.000  H
  H9       1.0000 0.53860  0.87670  0.23883  Biso   1.000  H
  H10      1.0000 0.66190  0.53860  0.07217  Biso   1.000  H
  H11      1.0000 0.87670  0.33810  0.40550  Biso   1.000  H
  H12      1.0000 0.46140  0.12330  0.73883  Biso   1.000  H
  H13      1.0000 0.57440  0.35610  0.13920  Biso   1.000  H
  H14      1.0000 0.64390  0.21830  0.80587  Biso   1.000  H
  H15      1.0000 0.78170  0.42560  0.47253  Biso   1.000  H
  H16      1.0000 0.42560  0.64390  0.63920  Biso   1.000  H
  H17      1.0000 0.35610  0.78170  0.30587  Biso   1.000  H
  H18      1.0000 0.21830  0.57440  0.97253  Biso   1.000  H
  H19      1.0000 0.35610  0.57440  0.52747  Biso   1.000  H
  H20      1.0000 0.21830  0.64390  0.86080  Biso   1.000  H
  H21      1.0000 0.42560  0.78170  0.19413  Biso   1.000  H
  H22      1.0000 0.64390  0.42560  0.02747  Biso   1.000  H
  H23      1.0000 0.78170  0.35610  0.36080  Biso   1.000  H
  H24      1.0000 0.57440  0.21830  0.69413  Biso   1.000  H
  C19      1.0000 0.18170  0.88290  0.01012  Biso   1.000  C
  C20      1.0000 0.11710  0.29880  0.67679  Biso   1.000  C
  C21      1.0000 0.70120  0.81830  0.34345  Biso   1.000  C
  C22      1.0000 0.81830  0.11710  0.51012  Biso   1.000  C
  C23      1.0000 0.88290  0.70120  0.17679  Biso   1.000  C
  C24      1.0000 0.29880  0.18170  0.84345  Biso   1.000  C
  C25      1.0000 0.88290  0.18170  0.65655  Biso   1.000  C
  C26      1.0000 0.29880  0.11710  0.98988  Biso   1.000  C
  C27      1.0000 0.81830  0.70120  0.32321  Biso   1.000  C
  C28      1.0000 0.11710  0.81830  0.15655  Biso   1.000  C
  C29      1.0000 0.70120  0.88290  0.48988  Biso   1.000  C
  C30      1.0000 0.18170  0.29880  0.82321  Biso   1.000  C
  H25      1.0000 0.18330  0.79910  0.01700  Biso   1.000  H
  H26      1.0000 0.20090  0.38420  0.68367  Biso   1.000  H
  H27      1.0000 0.61580  0.81670  0.35033  Biso   1.000  H
  H28      1.0000 0.81670  0.20090  0.51700  Biso   1.000  H
  H29      1.0000 0.79910  0.61580  0.18367  Biso   1.000  H
  H30      1.0000 0.38420  0.18330  0.85033  Biso   1.000  H
  H31      1.0000 0.79910  0.18330  0.64967  Biso   1.000  H
  H32      1.0000 0.38420  0.20090  0.98300  Biso   1.000  H
  H33      1.0000 0.81670  0.61580  0.31633  Biso   1.000  H
  H34      1.0000 0.20090  0.81670  0.14967  Biso   1.000  H
  H35      1.0000 0.61580  0.79910  0.48300  Biso   1.000  H
  H36      1.0000 0.18330  0.38420  0.81633  Biso   1.000  H
  C31      1.0000 0.05490  0.87920  0.01097  Biso   1.000  C
  C32      1.0000 0.12080  0.17570  0.67764  Biso   1.000  C
  C33      1.0000 0.82430  0.94510  0.34430  Biso   1.000  C
  C34      1.0000 0.94510  0.12080  0.51097  Biso   1.000  C
  C35      1.0000 0.87920  0.82430  0.17764  Biso   1.000  C
  C36      1.0000 0.17570  0.05490  0.84430  Biso   1.000  C
  C37      1.0000 0.87920  0.05490  0.65570  Biso   1.000  C
  C38      1.0000 0.17570  0.12080  0.98903  Biso   1.000  C
  C39      1.0000 0.94510  0.82430  0.32236  Biso   1.000  C
  C40      1.0000 0.12080  0.94510  0.15570  Biso   1.000  C
  C41      1.0000 0.82430  0.87920  0.48903  Biso   1.000  C
  C42      1.0000 0.05490  0.17570  0.82236  Biso   1.000  C
  H37      1.0000 0.97150  0.79440  0.01900  Biso   1.000  H
  H38      1.0000 0.20560  0.17710  0.68567  Biso   1.000  H
  H39      1.0000 0.82290  0.02850  0.35233  Biso   1.000  H
  H40      1.0000 0.02850  0.20560  0.51900  Biso   1.000  H
  H41      1.0000 0.79440  0.82290  0.18567  Biso   1.000  H
  H42      1.0000 0.17710  0.97150  0.85233  Biso   1.000  H
  H43      1.0000 0.79440  0.97150  0.64767  Biso   1.000  H
  H44      1.0000 0.17710  0.20560  0.98100  Biso   1.000  H
  H45      1.0000 0.02850  0.82290  0.31433  Biso   1.000  H
  H46      1.0000 0.20560  0.02850  0.14767  Biso   1.000  H
  H47      1.0000 0.82290  0.79440  0.48100  Biso   1.000  H
  H48      1.0000 0.97150  0.17710  0.81433  Biso   1.000  H
  O13      1.0000 0.45430  0.09422  0.12072  Biso   1.000  O
  O14      1.0000 0.90578  0.36008  0.78739  Biso   1.000  O
  O15      1.0000 0.63992  0.54570  0.45405  Biso   1.000  O
  O16      1.0000 0.54570  0.90578  0.62072  Biso   1.000  O
  O17      1.0000 0.09422  0.63992  0.28739  Biso   1.000  O
  O18      1.0000 0.36008  0.45430  0.95405  Biso   1.000  O
  O19      1.0000 0.09422  0.45430  0.54595  Biso   1.000  O
  O20      1.0000 0.36008  0.90578  0.87928  Biso   1.000  O
  O21      1.0000 0.54570  0.63992  0.21261  Biso   1.000  O
  O22      1.0000 0.90578  0.54570  0.04595  Biso   1.000  O
  O23      1.0000 0.63992  0.09422  0.37928  Biso   1.000  O
  O24      1.0000 0.45430  0.36008  0.71261  Biso   1.000  O
  C43      1.0000 0.52230  0.18980  0.08743  Biso   1.000  C
  C44      1.0000 0.81020  0.33250  0.75410  Biso   1.000  C
  C45      1.0000 0.66750  0.47770  0.42076  Biso   1.000  C
  C46      1.0000 0.47770  0.81020  0.58743  Biso   1.000  C
  C47      1.0000 0.18980  0.66750  0.25410  Biso   1.000  C
  C48      1.0000 0.33250  0.52230  0.92076  Biso   1.000  C
  C49      1.0000 0.18980  0.52230  0.57924  Biso   1.000  C
  C50      1.0000 0.33250  0.81020  0.91257  Biso   1.000  C
  C51      1.0000 0.47770  0.66750  0.24590  Biso   1.000  C
  C52      1.0000 0.81020  0.47770  0.07924  Biso   1.000  C
  C53      1.0000 0.66750  0.18980  0.41257  Biso   1.000  C
  C54      1.0000 0.52230  0.33250  0.74590  Biso   1.000  C
  C55      1.0000 0.91630  0.00000  0.00000  Biso   1.000  C
  C56      1.0000 0.00000  0.91630  0.66667  Biso   1.000  C
  C57      1.0000 0.08370  0.08370  0.33333  Biso   1.000  C
  C58      1.0000 0.08370  0.00000  0.50000  Biso   1.000  C
  C59      1.0000 0.00000  0.08370  0.16667  Biso   1.000  C
  C60      1.0000 0.91630  0.91630  0.83333  Biso   1.000  C
  C61      1.0000 0.91210  0.12160  0.00905  Biso   1.000  C
  C62      1.0000 0.87840  0.79050  0.67572  Biso   1.000  C
  C63      1.0000 0.20950  0.08790  0.34238  Biso   1.000  C
  C64      1.0000 0.08790  0.87840  0.50905  Biso   1.000  C
  C65      1.0000 0.12160  0.20950  0.17572  Biso   1.000  C
  C66      1.0000 0.79050  0.91210  0.84238  Biso   1.000  C
  C67      1.0000 0.12160  0.91210  0.65762  Biso   1.000  C
  C68      1.0000 0.79050  0.87840  0.99095  Biso   1.000  C
  C69      1.0000 0.08790  0.20950  0.32428  Biso   1.000  C
  C70      1.0000 0.87840  0.08790  0.15762  Biso   1.000  C
  C71      1.0000 0.20950  0.12160  0.49095  Biso   1.000  C
  C72      1.0000 0.91210  0.79050  0.82428  Biso   1.000  C
  H49      1.0000 0.99610  0.20720  0.01560  Biso   1.000  H
  H50      1.0000 0.79280  0.78890  0.68227  Biso   1.000  H
  H51      1.0000 0.21110  0.00390  0.34893  Biso   1.000  H
  H52      1.0000 0.00390  0.79280  0.51560  Biso   1.000  H
  H53      1.0000 0.20720  0.21110  0.18227  Biso   1.000  H
  H54      1.0000 0.78890  0.99610  0.84893  Biso   1.000  H
  H55      1.0000 0.20720  0.99610  0.65107  Biso   1.000  H
  H56      1.0000 0.78890  0.79280  0.98440  Biso   1.000  H
  H57      1.0000 0.00390  0.21110  0.31773  Biso   1.000  H
  H58      1.0000 0.79280  0.00390  0.15107  Biso   1.000  H
  H59      1.0000 0.21110  0.20720  0.48440  Biso   1.000  H
  H60      1.0000 0.99610  0.78890  0.81773  Biso   1.000  H
  O25      1.0000 0.56480  0.15330  0.91820  Biso   1.000  O
  O26      1.0000 0.84670  0.41150  0.58487  Biso   1.000  O
  O27      1.0000 0.58850  0.43520  0.25153  Biso   1.000  O
  O28      1.0000 0.43520  0.84670  0.41820  Biso   1.000  O
  O29      1.0000 0.15330  0.58850  0.08487  Biso   1.000  O
  O30      1.0000 0.41150  0.56480  0.75153  Biso   1.000  O
  O31      1.0000 0.15330  0.56480  0.74847  Biso   1.000  O
  O32      1.0000 0.41150  0.84670  0.08180  Biso   1.000  O
  O33      1.0000 0.43520  0.58850  0.41513  Biso   1.000  O
  O34      1.0000 0.84670  0.43520  0.24847  Biso   1.000  O
  O35      1.0000 0.58850  0.15330  0.58180  Biso   1.000  O
  O36      1.0000 0.56480  0.41150  0.91513  Biso   1.000  O
  H61      1.0000 0.50190  0.07760  0.90400  Biso   1.000  H
  H62      1.0000 0.92240  0.42430  0.57067  Biso   1.000  H
  H63      1.0000 0.57570  0.49810  0.23733  Biso   1.000  H
  H64      1.0000 0.49810  0.92240  0.40400  Biso   1.000  H
  H65      1.0000 0.07760  0.57570  0.07067  Biso   1.000  H
  H66      1.0000 0.42430  0.50190  0.73733  Biso   1.000  H
  H67      1.0000 0.07760  0.50190  0.76267  Biso   1.000  H
  H68      1.0000 0.42430  0.92240  0.09600  Biso   1.000  H
  H69      1.0000 0.49810  0.57570  0.42933  Biso   1.000  H
  H70      1.0000 0.92240  0.49810  0.26267  Biso   1.000  H
  H71      1.0000 0.57570  0.07760  0.59600  Biso   1.000  H
  H72      1.0000 0.50190  0.42430  0.92933  Biso   1.000  H
  H73      1.0000 0.53890  0.21390  0.91590  Biso   1.000  H
  H74      1.0000 0.78610  0.32500  0.58257  Biso   1.000  H
  H75      1.0000 0.67500  0.46110  0.24923  Biso   1.000  H
  H76      1.0000 0.46110  0.78610  0.41590  Biso   1.000  H
  H77      1.0000 0.21390  0.67500  0.08257  Biso   1.000  H
  H78      1.0000 0.32500  0.53890  0.74923  Biso   1.000  H
  H79      1.0000 0.21390  0.53890  0.75077  Biso   1.000  H
  H80      1.0000 0.32500  0.78610  0.08410  Biso   1.000  H
  H81      1.0000 0.46110  0.67500  0.41743  Biso   1.000  H
  H82      1.0000 0.78610  0.46110  0.25077  Biso   1.000  H
  H83      1.0000 0.67500  0.21390  0.58410  Biso   1.000  H
  H84      1.0000 0.53890  0.32500  0.91743  Biso   1.000  H
  O37      1.0000 0.85080  0.30730  0.89682  Biso   1.000  O
  O38      1.0000 0.69270  0.54350  0.56349  Biso   1.000  O
  O39      1.0000 0.45650  0.14920  0.23015  Biso   1.000  O
  O40      1.0000 0.14920  0.69270  0.39682  Biso   1.000  O
  O41      1.0000 0.30730  0.45650  0.06349  Biso   1.000  O
  O42      1.0000 0.54350  0.85080  0.73015  Biso   1.000  O
  O43      1.0000 0.30730  0.85080  0.76985  Biso   1.000  O
  O44      1.0000 0.54350  0.69270  0.10318  Biso   1.000  O
  O45      1.0000 0.14920  0.45650  0.43651  Biso   1.000  O
  O46      1.0000 0.69270  0.14920  0.26985  Biso   1.000  O
  O47      1.0000 0.45650  0.30730  0.60318  Biso   1.000  O
  O48      1.0000 0.85080  0.54350  0.93651  Biso   1.000  O
  H85      1.0000 0.88360  0.34050  0.86560  Biso   1.000  H
  H86      1.0000 0.65950  0.54310  0.53227  Biso   1.000  H
  H87      1.0000 0.45690  0.11640  0.19893  Biso   1.000  H
  H88      1.0000 0.11640  0.65950  0.36560  Biso   1.000  H
  H89      1.0000 0.34050  0.45690  0.03227  Biso   1.000  H
  H90      1.0000 0.54310  0.88360  0.69893  Biso   1.000  H
  H91      1.0000 0.34050  0.88360  0.80107  Biso   1.000  H
  H92      1.0000 0.54310  0.65950  0.13440  Biso   1.000  H
  H93      1.0000 0.11640  0.45690  0.46773  Biso   1.000  H
  H94      1.0000 0.65950  0.11640  0.30107  Biso   1.000  H
  H95      1.0000 0.45690  0.34050  0.63440  Biso   1.000  H
  H96      1.0000 0.88360  0.54310  0.96773  Biso   1.000  H
  H97      1.0000 0.78020  0.22630  0.89250  Biso   1.000  H
  H98      1.0000 0.77370  0.55390  0.55917  Biso   1.000  H
  H99      1.0000 0.44610  0.21980  0.22583  Biso   1.000  H
  H100     1.0000 0.21980  0.77370  0.39250  Biso   1.000  H
  H101     1.0000 0.22630  0.44610  0.05917  Biso   1.000  H
  H102     1.0000 0.55390  0.78020  0.72583  Biso   1.000  H
  H103     1.0000 0.22630  0.78020  0.77417  Biso   1.000  H
  H104     1.0000 0.55390  0.77370  0.10750  Biso   1.000  H
  H105     1.0000 0.21980  0.44610  0.44083  Biso   1.000  H
  H106     1.0000 0.77370  0.21980  0.27417  Biso   1.000  H
  H107     1.0000 0.44610  0.22630  0.60750  Biso   1.000  H
  H108     1.0000 0.78020  0.55390  0.94083  Biso   1.000  H
  C73      1.0000 0.78520  0.11800  0.00851  Biso   1.000  C
  C74      1.0000 0.88200  0.66720  0.67518  Biso   1.000  C
  C75      1.0000 0.33280  0.21480  0.34184  Biso   1.000  C
  C76      1.0000 0.21480  0.88200  0.50851  Biso   1.000  C
  C77      1.0000 0.11800  0.33280  0.17518  Biso   1.000  C
  C78      1.0000 0.66720  0.78520  0.84184  Biso   1.000  C
  C79      1.0000 0.11800  0.78520  0.65816  Biso   1.000  C
  C80      1.0000 0.66720  0.88200  0.99149  Biso   1.000  C
  C81      1.0000 0.21480  0.33280  0.32482  Biso   1.000  C
  C82      1.0000 0.88200  0.21480  0.15816  Biso   1.000  C
  C83      1.0000 0.33280  0.11800  0.49149  Biso   1.000  C
  C84      1.0000 0.78520  0.66720  0.82482  Biso   1.000  C
  H109     1.0000 0.78400  0.20240  0.01440  Biso   1.000  H
  H110     1.0000 0.79760  0.58160  0.68107  Biso   1.000  H
  H111     1.0000 0.41840  0.21600  0.34773  Biso   1.000  H
  H112     1.0000 0.21600  0.79760  0.51440  Biso   1.000  H
  H113     1.0000 0.20240  0.41840  0.18107  Biso   1.000  H
  H114     1.0000 0.58160  0.78400  0.84773  Biso   1.000  H
  H115     1.0000 0.20240  0.78400  0.65227  Biso   1.000  H
  H116     1.0000 0.58160  0.79760  0.98560  Biso   1.000  H
  H117     1.0000 0.21600  0.41840  0.31893  Biso   1.000  H
  H118     1.0000 0.79760  0.21600  0.15227  Biso   1.000  H
  H119     1.0000 0.41840  0.20240  0.48560  Biso   1.000  H
  H120     1.0000 0.78400  0.58160  0.81893  Biso   1.000  H
