data_image0
_cell_length_a       11.039
_cell_length_b       11.039
_cell_length_c       24.657
_cell_angle_alpha    90
_cell_angle_beta     90
_cell_angle_gamma    120

_symmetry_space_group_name_H-M    "P 1"
_symmetry_int_tables_number       1

loop_
  _symmetry_equiv_pos_as_xyz
  'x, y, z'

loop_
  _atom_site_label
  _atom_site_occupancy
  _atom_site_fract_x
  _atom_site_fract_y
  _atom_site_fract_z
  _atom_site_thermal_displace_type
  _atom_site_B_iso_or_equiv
  _atom_site_type_symbol
  Cu1      1.0000 0.51599  0.00000  0.00000  Biso   1.000  Cu
  Cu2      1.0000 0.00000  0.51599  0.66667  Biso   1.000  Cu
  Cu3      1.0000 0.48401  0.48401  0.33333  Biso   1.000  Cu
  Cu4      1.0000 0.48401  0.00000  0.50000  Biso   1.000  Cu
  Cu5      1.0000 0.00000  0.48401  0.16667  Biso   1.000  Cu
  Cu6      1.0000 0.51599  0.51599  0.83333  Biso   1.000  Cu
  O1       1.0000 0.43370  0.82600  0.04217  Biso   1.000  O
  O2       1.0000 0.17400  0.60770  0.70884  Biso   1.000  O
  O3       1.0000 0.39230  0.56630  0.37550  Biso   1.000  O
  O4       1.0000 0.56630  0.17400  0.54217  Biso   1.000  O
  O5       1.0000 0.82600  0.39230  0.20884  Biso   1.000  O
  O6       1.0000 0.60770  0.43370  0.87550  Biso   1.000  O
  O7       1.0000 0.82600  0.43370  0.62450  Biso   1.000  O
  O8       1.0000 0.60770  0.17400  0.95783  Biso   1.000  O
  O9       1.0000 0.56630  0.39230  0.29116  Biso   1.000  O
  O10      1.0000 0.17400  0.56630  0.12450  Biso   1.000  O
  O11      1.0000 0.39230  0.82600  0.45783  Biso   1.000  O
  O12      1.0000 0.43370  0.60770  0.79116  Biso   1.000  O
  N1       1.0000 0.69730  0.00000  0.00000  Biso   1.000  N
  N2       1.0000 0.00000  0.69730  0.66667  Biso   1.000  N
  N3       1.0000 0.30270  0.30270  0.33333  Biso   1.000  N
  N4       1.0000 0.30270  0.00000  0.50000  Biso   1.000  N
  N5       1.0000 0.00000  0.30270  0.16667  Biso   1.000  N
  N6       1.0000 0.69730  0.69730  0.83333  Biso   1.000  N
  C1       1.0000 0.95040  0.00000  0.00000  Biso   1.000  C
  C2       1.0000 0.00000  0.95040  0.66667  Biso   1.000  C
  C3       1.0000 0.04960  0.04960  0.33333  Biso   1.000  C
  C4       1.0000 0.04960  0.00000  0.50000  Biso   1.000  C
  C5       1.0000 0.00000  0.04960  0.16667  Biso   1.000  C
  C6       1.0000 0.95040  0.95040  0.83333  Biso   1.000  C
  C7       1.0000 0.44980  0.66390  0.09987  Biso   1.000  C
  C8       1.0000 0.33610  0.78590  0.76654  Biso   1.000  C
  C9       1.0000 0.21410  0.55020  0.43320  Biso   1.000  C
  C10      1.0000 0.55020  0.33610  0.59987  Biso   1.000  C
  C11      1.0000 0.66390  0.21410  0.26654  Biso   1.000  C
  C12      1.0000 0.78590  0.44980  0.93320  Biso   1.000  C
  C13      1.0000 0.66390  0.44980  0.56680  Biso   1.000  C
  C14      1.0000 0.78590  0.33610  0.90013  Biso   1.000  C
  C15      1.0000 0.55020  0.21410  0.23346  Biso   1.000  C
  C16      1.0000 0.33610  0.55020  0.06680  Biso   1.000  C
  C17      1.0000 0.21410  0.66390  0.40013  Biso   1.000  C
  C18      1.0000 0.44980  0.78590  0.73346  Biso   1.000  C
  H1       1.0000 0.42510  0.64370  0.13870  Biso   1.000  H
  H2       1.0000 0.35630  0.78140  0.80537  Biso   1.000  H
  H3       1.0000 0.21860  0.57490  0.47203  Biso   1.000  H
  H4       1.0000 0.57490  0.35630  0.63870  Biso   1.000  H
  H5       1.0000 0.64370  0.21860  0.30537  Biso   1.000  H
  H6       1.0000 0.78140  0.42510  0.97203  Biso   1.000  H
  H7       1.0000 0.64370  0.42510  0.52797  Biso   1.000  H
  H8       1.0000 0.78140  0.35630  0.86130  Biso   1.000  H
  H9       1.0000 0.57490  0.21860  0.19463  Biso   1.000  H
  H10      1.0000 0.35630  0.57490  0.02797  Biso   1.000  H
  H11      1.0000 0.21860  0.64370  0.36130  Biso   1.000  H
  H12      1.0000 0.42510  0.78140  0.69463  Biso   1.000  H
  H13      1.0000 0.53730  0.66150  0.09390  Biso   1.000  H
  H14      1.0000 0.33850  0.87580  0.76057  Biso   1.000  H
  H15      1.0000 0.12420  0.46270  0.42723  Biso   1.000  H
  H16      1.0000 0.46270  0.33850  0.59390  Biso   1.000  H
  H17      1.0000 0.66150  0.12420  0.26057  Biso   1.000  H
  H18      1.0000 0.87580  0.53730  0.92723  Biso   1.000  H
  H19      1.0000 0.66150  0.53730  0.57277  Biso   1.000  H
  H20      1.0000 0.87580  0.33850  0.90610  Biso   1.000  H
  H21      1.0000 0.46270  0.12420  0.23943  Biso   1.000  H
  H22      1.0000 0.33850  0.46270  0.07277  Biso   1.000  H
  H23      1.0000 0.12420  0.66150  0.40610  Biso   1.000  H
  H24      1.0000 0.53730  0.87580  0.73943  Biso   1.000  H
  C19      1.0000 0.81880  0.11760  0.01015  Biso   1.000  C
  C20      1.0000 0.88240  0.70120  0.67682  Biso   1.000  C
  C21      1.0000 0.29880  0.18120  0.34348  Biso   1.000  C
  C22      1.0000 0.18120  0.88240  0.51015  Biso   1.000  C
  C23      1.0000 0.11760  0.29880  0.17682  Biso   1.000  C
  C24      1.0000 0.70120  0.81880  0.84348  Biso   1.000  C
  C25      1.0000 0.11760  0.81880  0.65652  Biso   1.000  C
  C26      1.0000 0.70120  0.88240  0.98985  Biso   1.000  C
  C27      1.0000 0.18120  0.29880  0.32318  Biso   1.000  C
  C28      1.0000 0.88240  0.18120  0.15652  Biso   1.000  C
  C29      1.0000 0.29880  0.11760  0.48985  Biso   1.000  C
  C30      1.0000 0.81880  0.70120  0.82318  Biso   1.000  C
  H25      1.0000 0.81740  0.20150  0.01710  Biso   1.000  H
  H26      1.0000 0.79850  0.61590  0.68377  Biso   1.000  H
  H27      1.0000 0.38410  0.18260  0.35043  Biso   1.000  H
  H28      1.0000 0.18260  0.79850  0.51710  Biso   1.000  H
  H29      1.0000 0.20150  0.38410  0.18377  Biso   1.000  H
  H30      1.0000 0.61590  0.81740  0.85043  Biso   1.000  H
  H31      1.0000 0.20150  0.81740  0.64957  Biso   1.000  H
  H32      1.0000 0.61590  0.79850  0.98290  Biso   1.000  H
  H33      1.0000 0.18260  0.38410  0.31623  Biso   1.000  H
  H34      1.0000 0.79850  0.18260  0.14957  Biso   1.000  H
  H35      1.0000 0.38410  0.20150  0.48290  Biso   1.000  H
  H36      1.0000 0.81740  0.61590  0.81623  Biso   1.000  H
  C31      1.0000 0.94590  0.12110  0.01095  Biso   1.000  C
  C32      1.0000 0.87890  0.82480  0.67762  Biso   1.000  C
  C33      1.0000 0.17520  0.05410  0.34428  Biso   1.000  C
  C34      1.0000 0.05410  0.87890  0.51095  Biso   1.000  C
  C35      1.0000 0.12110  0.17520  0.17762  Biso   1.000  C
  C36      1.0000 0.82480  0.94590  0.84428  Biso   1.000  C
  C37      1.0000 0.12110  0.94590  0.65572  Biso   1.000  C
  C38      1.0000 0.82480  0.87890  0.98905  Biso   1.000  C
  C39      1.0000 0.05410  0.17520  0.32238  Biso   1.000  C
  C40      1.0000 0.87890  0.05410  0.15572  Biso   1.000  C
  C41      1.0000 0.17520  0.12110  0.48905  Biso   1.000  C
  C42      1.0000 0.94590  0.82480  0.82238  Biso   1.000  C
  H37      1.0000 0.02960  0.20590  0.01890  Biso   1.000  H
  H38      1.0000 0.79410  0.82370  0.68557  Biso   1.000  H
  H39      1.0000 0.17630  0.97040  0.35223  Biso   1.000  H
  H40      1.0000 0.97040  0.79410  0.51890  Biso   1.000  H
  H41      1.0000 0.20590  0.17630  0.18557  Biso   1.000  H
  H42      1.0000 0.82370  0.02960  0.85223  Biso   1.000  H
  H43      1.0000 0.20590  0.02960  0.64777  Biso   1.000  H
  H44      1.0000 0.82370  0.79410  0.98110  Biso   1.000  H
  H45      1.0000 0.97040  0.17630  0.31443  Biso   1.000  H
  H46      1.0000 0.79410  0.97040  0.14777  Biso   1.000  H
  H47      1.0000 0.17630  0.20590  0.48110  Biso   1.000  H
  H48      1.0000 0.02960  0.82370  0.81443  Biso   1.000  H
  O13      1.0000 0.54490  0.90510  0.12084  Biso   1.000  O
  O14      1.0000 0.09490  0.63980  0.78751  Biso   1.000  O
  O15      1.0000 0.36020  0.45510  0.45417  Biso   1.000  O
  O16      1.0000 0.45510  0.09490  0.62084  Biso   1.000  O
  O17      1.0000 0.90510  0.36020  0.28751  Biso   1.000  O
  O18      1.0000 0.63980  0.54490  0.95417  Biso   1.000  O
  O19      1.0000 0.90510  0.54490  0.54583  Biso   1.000  O
  O20      1.0000 0.63980  0.09490  0.87916  Biso   1.000  O
  O21      1.0000 0.45510  0.36020  0.21249  Biso   1.000  O
  O22      1.0000 0.09490  0.45510  0.04583  Biso   1.000  O
  O23      1.0000 0.36020  0.90510  0.37916  Biso   1.000  O
  O24      1.0000 0.54490  0.63980  0.71249  Biso   1.000  O
  C43      1.0000 0.47780  0.81000  0.08782  Biso   1.000  C
  C44      1.0000 0.19000  0.66780  0.75449  Biso   1.000  C
  C45      1.0000 0.33220  0.52220  0.42115  Biso   1.000  C
  C46      1.0000 0.52220  0.19000  0.58782  Biso   1.000  C
  C47      1.0000 0.81000  0.33220  0.25449  Biso   1.000  C
  C48      1.0000 0.66780  0.47780  0.92115  Biso   1.000  C
  C49      1.0000 0.81000  0.47780  0.57885  Biso   1.000  C
  C50      1.0000 0.66780  0.19000  0.91218  Biso   1.000  C
  C51      1.0000 0.52220  0.33220  0.24551  Biso   1.000  C
  C52      1.0000 0.19000  0.52220  0.07885  Biso   1.000  C
  C53      1.0000 0.33220  0.81000  0.41218  Biso   1.000  C
  C54      1.0000 0.47780  0.66780  0.74551  Biso   1.000  C
  N7       1.0000 0.33630  0.00000  0.00000  Biso   1.000  N
  N8       1.0000 0.00000  0.33630  0.66667  Biso   1.000  N
  N9       1.0000 0.66370  0.66370  0.33333  Biso   1.000  N
  N10      1.0000 0.66370  0.00000  0.50000  Biso   1.000  N
  N11      1.0000 0.00000  0.66370  0.16667  Biso   1.000  N
  N12      1.0000 0.33630  0.33630  0.83333  Biso   1.000  N
  C55      1.0000 0.08340  0.00000  0.00000  Biso   1.000  C
  C56      1.0000 0.00000  0.08340  0.66667  Biso   1.000  C
  C57      1.0000 0.91660  0.91660  0.33333  Biso   1.000  C
  C58      1.0000 0.91660  0.00000  0.50000  Biso   1.000  C
  C59      1.0000 0.00000  0.91660  0.16667  Biso   1.000  C
  C60      1.0000 0.08340  0.08340  0.83333  Biso   1.000  C
  C61      1.0000 0.21510  0.88200  0.00810  Biso   1.000  C
  C62      1.0000 0.11800  0.33310  0.67477  Biso   1.000  C
  C63      1.0000 0.66690  0.78490  0.34143  Biso   1.000  C
  C64      1.0000 0.78490  0.11800  0.50810  Biso   1.000  C
  C65      1.0000 0.88200  0.66690  0.17477  Biso   1.000  C
  C66      1.0000 0.33310  0.21510  0.84143  Biso   1.000  C
  C67      1.0000 0.88200  0.21510  0.65857  Biso   1.000  C
  C68      1.0000 0.33310  0.11800  0.99190  Biso   1.000  C
  C69      1.0000 0.78490  0.66690  0.32523  Biso   1.000  C
  C70      1.0000 0.11800  0.78490  0.15857  Biso   1.000  C
  C71      1.0000 0.66690  0.88200  0.49190  Biso   1.000  C
  C72      1.0000 0.21510  0.33310  0.82523  Biso   1.000  C
  H49      1.0000 0.21610  0.79730  0.01360  Biso   1.000  H
  H50      1.0000 0.20270  0.41880  0.68027  Biso   1.000  H
  H51      1.0000 0.58120  0.78390  0.34693  Biso   1.000  H
  H52      1.0000 0.78390  0.20270  0.51360  Biso   1.000  H
  H53      1.0000 0.79730  0.58120  0.18027  Biso   1.000  H
  H54      1.0000 0.41880  0.21610  0.84693  Biso   1.000  H
  H55      1.0000 0.79730  0.21610  0.65307  Biso   1.000  H
  H56      1.0000 0.41880  0.20270  0.98640  Biso   1.000  H
  H57      1.0000 0.78390  0.58120  0.31973  Biso   1.000  H
  H58      1.0000 0.20270  0.78390  0.15307  Biso   1.000  H
  H59      1.0000 0.58120  0.79730  0.48640  Biso   1.000  H
  H60      1.0000 0.21610  0.41880  0.81973  Biso   1.000  H
  C73      1.0000 0.08830  0.87880  0.00872  Biso   1.000  C
  C74      1.0000 0.12120  0.20950  0.67539  Biso   1.000  C
  C75      1.0000 0.79050  0.91170  0.34205  Biso   1.000  C
  C76      1.0000 0.91170  0.12120  0.50872  Biso   1.000  C
  C77      1.0000 0.87880  0.79050  0.17539  Biso   1.000  C
  C78      1.0000 0.20950  0.08830  0.84205  Biso   1.000  C
  C79      1.0000 0.87880  0.08830  0.65795  Biso   1.000  C
  C80      1.0000 0.20950  0.12120  0.99128  Biso   1.000  C
  C81      1.0000 0.91170  0.79050  0.32461  Biso   1.000  C
  C82      1.0000 0.12120  0.91170  0.15795  Biso   1.000  C
  C83      1.0000 0.79050  0.87880  0.49128  Biso   1.000  C
  C84      1.0000 0.08830  0.20950  0.82461  Biso   1.000  C
  H61      1.0000 0.00440  0.79310  0.01510  Biso   1.000  H
  H62      1.0000 0.20690  0.21130  0.68177  Biso   1.000  H
  H63      1.0000 0.78870  0.99560  0.34843  Biso   1.000  H
  H64      1.0000 0.99560  0.20690  0.51510  Biso   1.000  H
  H65      1.0000 0.79310  0.78870  0.18177  Biso   1.000  H
  H66      1.0000 0.21130  0.00440  0.84843  Biso   1.000  H
  H67      1.0000 0.79310  0.00440  0.65157  Biso   1.000  H
  H68      1.0000 0.21130  0.20690  0.98490  Biso   1.000  H
  H69      1.0000 0.99560  0.78870  0.31823  Biso   1.000  H
  H70      1.0000 0.20690  0.99560  0.15157  Biso   1.000  H
  H71      1.0000 0.78870  0.79310  0.48490  Biso   1.000  H
  H72      1.0000 0.00440  0.21130  0.81823  Biso   1.000  H
  O25      1.0000 0.59030  0.15360  0.08177  Biso   1.000  O
  O26      1.0000 0.84640  0.43670  0.74844  Biso   1.000  O
  O27      1.0000 0.56330  0.40970  0.41510  Biso   1.000  O
  O28      1.0000 0.40970  0.84640  0.58177  Biso   1.000  O
  O29      1.0000 0.15360  0.56330  0.24844  Biso   1.000  O
  O30      1.0000 0.43670  0.59030  0.91510  Biso   1.000  O
  O31      1.0000 0.15360  0.59030  0.58490  Biso   1.000  O
  O32      1.0000 0.43670  0.84640  0.91823  Biso   1.000  O
  O33      1.0000 0.40970  0.56330  0.25156  Biso   1.000  O
  O34      1.0000 0.84640  0.40970  0.08490  Biso   1.000  O
  O35      1.0000 0.56330  0.15360  0.41823  Biso   1.000  O
  O36      1.0000 0.59030  0.43670  0.75156  Biso   1.000  O
  H73      1.0000 0.58090  0.08290  0.09910  Biso   1.000  H
  H74      1.0000 0.91710  0.49800  0.76577  Biso   1.000  H
  H75      1.0000 0.50200  0.41910  0.43243  Biso   1.000  H
  H76      1.0000 0.41910  0.91710  0.59910  Biso   1.000  H
  H77      1.0000 0.08290  0.50200  0.26577  Biso   1.000  H
  H78      1.0000 0.49800  0.58090  0.93243  Biso   1.000  H
  H79      1.0000 0.08290  0.58090  0.56757  Biso   1.000  H
  H80      1.0000 0.49800  0.91710  0.90090  Biso   1.000  H
  H81      1.0000 0.41910  0.50200  0.23423  Biso   1.000  H
  H82      1.0000 0.91710  0.41910  0.06757  Biso   1.000  H
  H83      1.0000 0.50200  0.08290  0.40090  Biso   1.000  H
  H84      1.0000 0.58090  0.49800  0.73423  Biso   1.000  H
  H85      1.0000 0.53300  0.17610  0.09480  Biso   1.000  H
  H86      1.0000 0.82390  0.35690  0.76147  Biso   1.000  H
  H87      1.0000 0.64310  0.46700  0.42813  Biso   1.000  H
  H88      1.0000 0.46700  0.82390  0.59480  Biso   1.000  H
  H89      1.0000 0.17610  0.64310  0.26147  Biso   1.000  H
  H90      1.0000 0.35690  0.53300  0.92813  Biso   1.000  H
  H91      1.0000 0.17610  0.53300  0.57187  Biso   1.000  H
  H92      1.0000 0.35690  0.82390  0.90520  Biso   1.000  H
  H93      1.0000 0.46700  0.64310  0.23853  Biso   1.000  H
  H94      1.0000 0.82390  0.46700  0.07187  Biso   1.000  H
  H95      1.0000 0.64310  0.17610  0.40520  Biso   1.000  H
  H96      1.0000 0.53300  0.35690  0.73853  Biso   1.000  H
  O37      1.0000 0.54230  0.85070  0.22906  Biso   1.000  O
  O38      1.0000 0.14930  0.69160  0.89573  Biso   1.000  O
  O39      1.0000 0.30840  0.45770  0.56239  Biso   1.000  O
  O40      1.0000 0.45770  0.14930  0.72906  Biso   1.000  O
  O41      1.0000 0.85070  0.30840  0.39573  Biso   1.000  O
  O42      1.0000 0.69160  0.54230  0.06239  Biso   1.000  O
  O43      1.0000 0.85070  0.54230  0.43761  Biso   1.000  O
  O44      1.0000 0.69160  0.14930  0.77094  Biso   1.000  O
  O45      1.0000 0.45770  0.30840  0.10427  Biso   1.000  O
  O46      1.0000 0.14930  0.45770  0.93761  Biso   1.000  O
  O47      1.0000 0.30840  0.85070  0.27094  Biso   1.000  O
  O48      1.0000 0.54230  0.69160  0.60427  Biso   1.000  O
  H97      1.0000 0.52570  0.85090  0.26270  Biso   1.000  H
  H98      1.0000 0.14910  0.67480  0.92937  Biso   1.000  H
  H99      1.0000 0.32520  0.47430  0.59603  Biso   1.000  H
  H100     1.0000 0.47430  0.14910  0.76270  Biso   1.000  H
  H101     1.0000 0.85090  0.32520  0.42937  Biso   1.000  H
  H102     1.0000 0.67480  0.52570  0.09603  Biso   1.000  H
  H103     1.0000 0.85090  0.52570  0.40397  Biso   1.000  H
  H104     1.0000 0.67480  0.14910  0.73730  Biso   1.000  H
  H105     1.0000 0.47430  0.32520  0.07063  Biso   1.000  H
  H106     1.0000 0.14910  0.47430  0.90397  Biso   1.000  H
  H107     1.0000 0.32520  0.85090  0.23730  Biso   1.000  H
  H108     1.0000 0.52570  0.67480  0.57063  Biso   1.000  H
  H109     1.0000 0.60580  0.82920  0.22520  Biso   1.000  H
  H110     1.0000 0.17080  0.77660  0.89187  Biso   1.000  H
  H111     1.0000 0.22340  0.39420  0.55853  Biso   1.000  H
  H112     1.0000 0.39420  0.17080  0.72520  Biso   1.000  H
  H113     1.0000 0.82920  0.22340  0.39187  Biso   1.000  H
  H114     1.0000 0.77660  0.60580  0.05853  Biso   1.000  H
  H115     1.0000 0.82920  0.60580  0.44147  Biso   1.000  H
  H116     1.0000 0.77660  0.17080  0.77480  Biso   1.000  H
  H117     1.0000 0.39420  0.22340  0.10813  Biso   1.000  H
  H118     1.0000 0.17080  0.39420  0.94147  Biso   1.000  H
  H119     1.0000 0.22340  0.82920  0.27480  Biso   1.000  H
  H120     1.0000 0.60580  0.77660  0.60813  Biso   1.000  H
