data_image0
_cell_length_a       11.025
_cell_length_b       11.025
_cell_length_c       24.689
_cell_angle_alpha    90
_cell_angle_beta     90
_cell_angle_gamma    120

_symmetry_space_group_name_H-M    "P 1"
_symmetry_int_tables_number       1

loop_
  _symmetry_equiv_pos_as_xyz
  'x, y, z'

loop_
  _atom_site_label
  _atom_site_occupancy
  _atom_site_fract_x
  _atom_site_fract_y
  _atom_site_fract_z
  _atom_site_thermal_displace_type
  _atom_site_B_iso_or_equiv
  _atom_site_type_symbol
  Cu1      1.0000 0.48479  0.00000  0.00000  Biso   1.000  Cu
  Cu2      1.0000 0.00000  0.48479  0.66667  Biso   1.000  Cu
  Cu3      1.0000 0.51521  0.51521  0.33333  Biso   1.000  Cu
  Cu4      1.0000 0.51521  0.00000  0.50000  Biso   1.000  Cu
  Cu5      1.0000 0.00000  0.51521  0.16667  Biso   1.000  Cu
  Cu6      1.0000 0.48479  0.48479  0.83333  Biso   1.000  Cu
  C1       1.0000 0.05010  0.00000  0.00000  Biso   1.000  C
  C2       1.0000 0.00000  0.05010  0.66667  Biso   1.000  C
  C3       1.0000 0.94990  0.94990  0.33333  Biso   1.000  C
  C4       1.0000 0.94990  0.00000  0.50000  Biso   1.000  C
  C5       1.0000 0.00000  0.94990  0.16667  Biso   1.000  C
  C6       1.0000 0.05010  0.05010  0.83333  Biso   1.000  C
  N1       1.0000 0.66480  0.00000  0.00000  Biso   1.000  N
  N2       1.0000 0.00000  0.66480  0.66667  Biso   1.000  N
  N3       1.0000 0.33520  0.33520  0.33333  Biso   1.000  N
  N4       1.0000 0.33520  0.00000  0.50000  Biso   1.000  N
  N5       1.0000 0.00000  0.33520  0.16667  Biso   1.000  N
  N6       1.0000 0.66480  0.66480  0.83333  Biso   1.000  N
  O1       1.0000 0.56690  0.17240  0.04205  Biso   1.000  O
  O2       1.0000 0.82760  0.39450  0.70872  Biso   1.000  O
  O3       1.0000 0.60550  0.43310  0.37538  Biso   1.000  O
  O4       1.0000 0.43310  0.82760  0.54205  Biso   1.000  O
  O5       1.0000 0.17240  0.60550  0.20872  Biso   1.000  O
  O6       1.0000 0.39450  0.56690  0.87538  Biso   1.000  O
  O7       1.0000 0.17240  0.56690  0.62462  Biso   1.000  O
  O8       1.0000 0.39450  0.82760  0.95795  Biso   1.000  O
  O9       1.0000 0.43310  0.60550  0.29128  Biso   1.000  O
  O10      1.0000 0.82760  0.43310  0.12462  Biso   1.000  O
  O11      1.0000 0.60550  0.17240  0.45795  Biso   1.000  O
  O12      1.0000 0.56690  0.39450  0.79128  Biso   1.000  O
  N7       1.0000 0.30270  0.00000  0.00000  Biso   1.000  N
  N8       1.0000 0.00000  0.30270  0.66667  Biso   1.000  N
  N9       1.0000 0.69730  0.69730  0.33333  Biso   1.000  N
  N10      1.0000 0.69730  0.00000  0.50000  Biso   1.000  N
  N11      1.0000 0.00000  0.69730  0.16667  Biso   1.000  N
  N12      1.0000 0.30270  0.30270  0.83333  Biso   1.000  N
  C7       1.0000 0.05600  0.87970  0.01096  Biso   1.000  C
  C8       1.0000 0.12030  0.17630  0.67763  Biso   1.000  C
  C9       1.0000 0.82370  0.94400  0.34429  Biso   1.000  C
  C10      1.0000 0.94400  0.12030  0.51096  Biso   1.000  C
  C11      1.0000 0.87970  0.82370  0.17763  Biso   1.000  C
  C12      1.0000 0.17630  0.05600  0.84429  Biso   1.000  C
  C13      1.0000 0.87970  0.05600  0.65571  Biso   1.000  C
  C14      1.0000 0.17630  0.12030  0.98904  Biso   1.000  C
  C15      1.0000 0.94400  0.82370  0.32237  Biso   1.000  C
  C16      1.0000 0.12030  0.94400  0.15571  Biso   1.000  C
  C17      1.0000 0.82370  0.87970  0.48904  Biso   1.000  C
  C18      1.0000 0.05600  0.17630  0.82237  Biso   1.000  C
  H1       1.0000 0.97340  0.79570  0.01910  Biso   1.000  H
  H2       1.0000 0.20430  0.17770  0.68577  Biso   1.000  H
  H3       1.0000 0.82230  0.02660  0.35243  Biso   1.000  H
  H4       1.0000 0.02660  0.20430  0.51910  Biso   1.000  H
  H5       1.0000 0.79570  0.82230  0.18577  Biso   1.000  H
  H6       1.0000 0.17770  0.97340  0.85243  Biso   1.000  H
  H7       1.0000 0.79570  0.97340  0.64757  Biso   1.000  H
  H8       1.0000 0.17770  0.20430  0.98090  Biso   1.000  H
  H9       1.0000 0.02660  0.82230  0.31423  Biso   1.000  H
  H10      1.0000 0.20430  0.02660  0.14757  Biso   1.000  H
  H11      1.0000 0.82230  0.79570  0.48090  Biso   1.000  H
  H12      1.0000 0.97340  0.17770  0.81423  Biso   1.000  H
  C19      1.0000 0.18160  0.88280  0.01000  Biso   1.000  C
  C20      1.0000 0.11720  0.29880  0.67667  Biso   1.000  C
  C21      1.0000 0.70120  0.81840  0.34333  Biso   1.000  C
  C22      1.0000 0.81840  0.11720  0.51000  Biso   1.000  C
  C23      1.0000 0.88280  0.70120  0.17667  Biso   1.000  C
  C24      1.0000 0.29880  0.18160  0.84333  Biso   1.000  C
  C25      1.0000 0.88280  0.18160  0.65667  Biso   1.000  C
  C26      1.0000 0.29880  0.11720  0.99000  Biso   1.000  C
  C27      1.0000 0.81840  0.70120  0.32333  Biso   1.000  C
  C28      1.0000 0.11720  0.81840  0.15667  Biso   1.000  C
  C29      1.0000 0.70120  0.88280  0.49000  Biso   1.000  C
  C30      1.0000 0.18160  0.29880  0.82333  Biso   1.000  C
  H13      1.0000 0.18280  0.79940  0.01660  Biso   1.000  H
  H14      1.0000 0.20060  0.38340  0.68327  Biso   1.000  H
  H15      1.0000 0.61660  0.81720  0.34993  Biso   1.000  H
  H16      1.0000 0.81720  0.20060  0.51660  Biso   1.000  H
  H17      1.0000 0.79940  0.61660  0.18327  Biso   1.000  H
  H18      1.0000 0.38340  0.18280  0.84993  Biso   1.000  H
  H19      1.0000 0.79940  0.18280  0.65007  Biso   1.000  H
  H20      1.0000 0.38340  0.20060  0.98340  Biso   1.000  H
  H21      1.0000 0.81720  0.61660  0.31673  Biso   1.000  H
  H22      1.0000 0.20060  0.81720  0.15007  Biso   1.000  H
  H23      1.0000 0.61660  0.79940  0.48340  Biso   1.000  H
  H24      1.0000 0.18280  0.38340  0.81673  Biso   1.000  H
  C31      1.0000 0.55150  0.33540  0.09932  Biso   1.000  C
  C32      1.0000 0.66460  0.21610  0.76599  Biso   1.000  C
  C33      1.0000 0.78390  0.44850  0.43265  Biso   1.000  C
  C34      1.0000 0.44850  0.66460  0.59932  Biso   1.000  C
  C35      1.0000 0.33540  0.78390  0.26599  Biso   1.000  C
  C36      1.0000 0.21610  0.55150  0.93265  Biso   1.000  C
  C37      1.0000 0.33540  0.55150  0.56735  Biso   1.000  C
  C38      1.0000 0.21610  0.66460  0.90068  Biso   1.000  C
  C39      1.0000 0.44850  0.78390  0.23401  Biso   1.000  C
  C40      1.0000 0.66460  0.44850  0.06735  Biso   1.000  C
  C41      1.0000 0.78390  0.33540  0.40068  Biso   1.000  C
  C42      1.0000 0.55150  0.21610  0.73401  Biso   1.000  C
  H25      1.0000 0.57500  0.35490  0.13780  Biso   1.000  H
  H26      1.0000 0.64510  0.22010  0.80447  Biso   1.000  H
  H27      1.0000 0.77990  0.42500  0.47113  Biso   1.000  H
  H28      1.0000 0.42500  0.64510  0.63780  Biso   1.000  H
  H29      1.0000 0.35490  0.77990  0.30447  Biso   1.000  H
  H30      1.0000 0.22010  0.57500  0.97113  Biso   1.000  H
  H31      1.0000 0.35490  0.57500  0.52887  Biso   1.000  H
  H32      1.0000 0.22010  0.64510  0.86220  Biso   1.000  H
  H33      1.0000 0.42500  0.77990  0.19553  Biso   1.000  H
  H34      1.0000 0.64510  0.42500  0.02887  Biso   1.000  H
  H35      1.0000 0.77990  0.35490  0.36220  Biso   1.000  H
  H36      1.0000 0.57500  0.22010  0.69553  Biso   1.000  H
  H37      1.0000 0.46510  0.33810  0.09310  Biso   1.000  H
  H38      1.0000 0.66190  0.12700  0.75977  Biso   1.000  H
  H39      1.0000 0.87300  0.53490  0.42643  Biso   1.000  H
  H40      1.0000 0.53490  0.66190  0.59310  Biso   1.000  H
  H41      1.0000 0.33810  0.87300  0.25977  Biso   1.000  H
  H42      1.0000 0.12700  0.46510  0.92643  Biso   1.000  H
  H43      1.0000 0.33810  0.46510  0.57357  Biso   1.000  H
  H44      1.0000 0.12700  0.66190  0.90690  Biso   1.000  H
  H45      1.0000 0.53490  0.87300  0.24023  Biso   1.000  H
  H46      1.0000 0.66190  0.53490  0.07357  Biso   1.000  H
  H47      1.0000 0.87300  0.33810  0.40690  Biso   1.000  H
  H48      1.0000 0.46510  0.12700  0.74023  Biso   1.000  H
  C43      1.0000 0.52270  0.18910  0.08749  Biso   1.000  C
  C44      1.0000 0.81090  0.33360  0.75416  Biso   1.000  C
  C45      1.0000 0.66640  0.47730  0.42082  Biso   1.000  C
  C46      1.0000 0.47730  0.81090  0.58749  Biso   1.000  C
  C47      1.0000 0.18910  0.66640  0.25416  Biso   1.000  C
  C48      1.0000 0.33360  0.52270  0.92082  Biso   1.000  C
  C49      1.0000 0.18910  0.52270  0.57918  Biso   1.000  C
  C50      1.0000 0.33360  0.81090  0.91251  Biso   1.000  C
  C51      1.0000 0.47730  0.66640  0.24584  Biso   1.000  C
  C52      1.0000 0.81090  0.47730  0.07918  Biso   1.000  C
  C53      1.0000 0.66640  0.18910  0.41251  Biso   1.000  C
  C54      1.0000 0.52270  0.33360  0.74584  Biso   1.000  C
  O13      1.0000 0.45640  0.09300  0.12067  Biso   1.000  O
  O14      1.0000 0.90700  0.36340  0.78734  Biso   1.000  O
  O15      1.0000 0.63660  0.54360  0.45400  Biso   1.000  O
  O16      1.0000 0.54360  0.90700  0.62067  Biso   1.000  O
  O17      1.0000 0.09300  0.63660  0.28734  Biso   1.000  O
  O18      1.0000 0.36340  0.45640  0.95400  Biso   1.000  O
  O19      1.0000 0.09300  0.45640  0.54600  Biso   1.000  O
  O20      1.0000 0.36340  0.90700  0.87933  Biso   1.000  O
  O21      1.0000 0.54360  0.63660  0.21266  Biso   1.000  O
  O22      1.0000 0.90700  0.54360  0.04600  Biso   1.000  O
  O23      1.0000 0.63660  0.09300  0.37933  Biso   1.000  O
  O24      1.0000 0.45640  0.36340  0.71266  Biso   1.000  O
  O25      1.0000 0.56530  0.15540  0.91790  Biso   1.000  O
  O26      1.0000 0.84460  0.40990  0.58457  Biso   1.000  O
  O27      1.0000 0.59010  0.43470  0.25123  Biso   1.000  O
  O28      1.0000 0.43470  0.84460  0.41790  Biso   1.000  O
  O29      1.0000 0.15540  0.59010  0.08457  Biso   1.000  O
  O30      1.0000 0.40990  0.56530  0.75123  Biso   1.000  O
  O31      1.0000 0.15540  0.56530  0.74877  Biso   1.000  O
  O32      1.0000 0.40990  0.84460  0.08210  Biso   1.000  O
  O33      1.0000 0.43470  0.59010  0.41543  Biso   1.000  O
  O34      1.0000 0.84460  0.43470  0.24877  Biso   1.000  O
  O35      1.0000 0.59010  0.15540  0.58210  Biso   1.000  O
  O36      1.0000 0.56530  0.40990  0.91543  Biso   1.000  O
  H49      1.0000 0.64230  0.18580  0.90100  Biso   1.000  H
  H50      1.0000 0.81420  0.45650  0.56767  Biso   1.000  H
  H51      1.0000 0.54350  0.35770  0.23433  Biso   1.000  H
  H52      1.0000 0.35770  0.81420  0.40100  Biso   1.000  H
  H53      1.0000 0.18580  0.54350  0.06767  Biso   1.000  H
  H54      1.0000 0.45650  0.64230  0.73433  Biso   1.000  H
  H55      1.0000 0.18580  0.64230  0.76567  Biso   1.000  H
  H56      1.0000 0.45650  0.81420  0.09900  Biso   1.000  H
  H57      1.0000 0.35770  0.54350  0.43233  Biso   1.000  H
  H58      1.0000 0.81420  0.35770  0.26567  Biso   1.000  H
  H59      1.0000 0.54350  0.18580  0.59900  Biso   1.000  H
  H60      1.0000 0.64230  0.45650  0.93233  Biso   1.000  H
  H61      1.0000 0.51420  0.06840  0.91130  Biso   1.000  H
  H62      1.0000 0.93160  0.44580  0.57797  Biso   1.000  H
  H63      1.0000 0.55420  0.48580  0.24463  Biso   1.000  H
  H64      1.0000 0.48580  0.93160  0.41130  Biso   1.000  H
  H65      1.0000 0.06840  0.55420  0.07797  Biso   1.000  H
  H66      1.0000 0.44580  0.51420  0.74463  Biso   1.000  H
  H67      1.0000 0.06840  0.51420  0.75537  Biso   1.000  H
  H68      1.0000 0.44580  0.93160  0.08870  Biso   1.000  H
  H69      1.0000 0.48580  0.55420  0.42203  Biso   1.000  H
  H70      1.0000 0.93160  0.48580  0.25537  Biso   1.000  H
  H71      1.0000 0.55420  0.06840  0.58870  Biso   1.000  H
  H72      1.0000 0.51420  0.44580  0.92203  Biso   1.000  H
  C55      1.0000 0.91190  0.12120  0.00847  Biso   1.000  C
  C56      1.0000 0.87880  0.79070  0.67514  Biso   1.000  C
  C57      1.0000 0.20930  0.08810  0.34180  Biso   1.000  C
  C58      1.0000 0.08810  0.87880  0.50847  Biso   1.000  C
  C59      1.0000 0.12120  0.20930  0.17514  Biso   1.000  C
  C60      1.0000 0.79070  0.91190  0.84180  Biso   1.000  C
  C61      1.0000 0.12120  0.91190  0.65820  Biso   1.000  C
  C62      1.0000 0.79070  0.87880  0.99153  Biso   1.000  C
  C63      1.0000 0.08810  0.20930  0.32486  Biso   1.000  C
  C64      1.0000 0.87880  0.08810  0.15820  Biso   1.000  C
  C65      1.0000 0.20930  0.12120  0.49153  Biso   1.000  C
  C66      1.0000 0.91190  0.79070  0.82486  Biso   1.000  C
  H73      1.0000 0.99500  0.20650  0.01450  Biso   1.000  H
  H74      1.0000 0.79350  0.78850  0.68117  Biso   1.000  H
  H75      1.0000 0.21150  0.00500  0.34783  Biso   1.000  H
  H76      1.0000 0.00500  0.79350  0.51450  Biso   1.000  H
  H77      1.0000 0.20650  0.21150  0.18117  Biso   1.000  H
  H78      1.0000 0.78850  0.99500  0.84783  Biso   1.000  H
  H79      1.0000 0.20650  0.99500  0.65217  Biso   1.000  H
  H80      1.0000 0.78850  0.79350  0.98550  Biso   1.000  H
  H81      1.0000 0.00500  0.21150  0.31883  Biso   1.000  H
  H82      1.0000 0.79350  0.00500  0.15217  Biso   1.000  H
  H83      1.0000 0.21150  0.20650  0.48550  Biso   1.000  H
  H84      1.0000 0.99500  0.78850  0.81883  Biso   1.000  H
  C67      1.0000 0.91730  0.00000  0.00000  Biso   1.000  C
  C68      1.0000 0.00000  0.91730  0.66667  Biso   1.000  C
  C69      1.0000 0.08270  0.08270  0.33333  Biso   1.000  C
  C70      1.0000 0.08270  0.00000  0.50000  Biso   1.000  C
  C71      1.0000 0.00000  0.08270  0.16667  Biso   1.000  C
  C72      1.0000 0.91730  0.91730  0.83333  Biso   1.000  C
  C73      1.0000 0.78610  0.11740  0.00807  Biso   1.000  C
  C74      1.0000 0.88260  0.66870  0.67474  Biso   1.000  C
  C75      1.0000 0.33130  0.21390  0.34140  Biso   1.000  C
  C76      1.0000 0.21390  0.88260  0.50807  Biso   1.000  C
  C77      1.0000 0.11740  0.33130  0.17474  Biso   1.000  C
  C78      1.0000 0.66870  0.78610  0.84140  Biso   1.000  C
  C79      1.0000 0.11740  0.78610  0.65860  Biso   1.000  C
  C80      1.0000 0.66870  0.88260  0.99193  Biso   1.000  C
  C81      1.0000 0.21390  0.33130  0.32526  Biso   1.000  C
  C82      1.0000 0.88260  0.21390  0.15860  Biso   1.000  C
  C83      1.0000 0.33130  0.11740  0.49193  Biso   1.000  C
  C84      1.0000 0.78610  0.66870  0.82526  Biso   1.000  C
  H85      1.0000 0.78520  0.20130  0.01370  Biso   1.000  H
  H86      1.0000 0.79870  0.58390  0.68037  Biso   1.000  H
  H87      1.0000 0.41610  0.21480  0.34703  Biso   1.000  H
  H88      1.0000 0.21480  0.79870  0.51370  Biso   1.000  H
  H89      1.0000 0.20130  0.41610  0.18037  Biso   1.000  H
  H90      1.0000 0.58390  0.78520  0.84703  Biso   1.000  H
  H91      1.0000 0.20130  0.78520  0.65297  Biso   1.000  H
  H92      1.0000 0.58390  0.79870  0.98630  Biso   1.000  H
  H93      1.0000 0.21480  0.41610  0.31963  Biso   1.000  H
  H94      1.0000 0.79870  0.21480  0.15297  Biso   1.000  H
  H95      1.0000 0.41610  0.20130  0.48630  Biso   1.000  H
  H96      1.0000 0.78520  0.58390  0.81963  Biso   1.000  H
  O37      1.0000 0.45440  0.14560  0.22791  Biso   1.000  O
  O38      1.0000 0.85440  0.30880  0.89458  Biso   1.000  O
  O39      1.0000 0.69120  0.54560  0.56124  Biso   1.000  O
  O40      1.0000 0.54560  0.85440  0.72791  Biso   1.000  O
  O41      1.0000 0.14560  0.69120  0.39458  Biso   1.000  O
  O42      1.0000 0.30880  0.45440  0.06124  Biso   1.000  O
  O43      1.0000 0.14560  0.45440  0.43876  Biso   1.000  O
  O44      1.0000 0.30880  0.85440  0.77209  Biso   1.000  O
  O45      1.0000 0.54560  0.69120  0.10542  Biso   1.000  O
  O46      1.0000 0.85440  0.54560  0.93876  Biso   1.000  O
  O47      1.0000 0.69120  0.14560  0.27209  Biso   1.000  O
  O48      1.0000 0.45440  0.30880  0.60542  Biso   1.000  O
  H97      1.0000 0.43950  0.21290  0.23420  Biso   1.000  H
  H98      1.0000 0.78710  0.22660  0.90087  Biso   1.000  H
  H99      1.0000 0.77340  0.56050  0.56753  Biso   1.000  H
  H100     1.0000 0.56050  0.78710  0.73420  Biso   1.000  H
  H101     1.0000 0.21290  0.77340  0.40087  Biso   1.000  H
  H102     1.0000 0.22660  0.43950  0.06753  Biso   1.000  H
  H103     1.0000 0.21290  0.43950  0.43247  Biso   1.000  H
  H104     1.0000 0.22660  0.78710  0.76580  Biso   1.000  H
  H105     1.0000 0.56050  0.77340  0.09913  Biso   1.000  H
  H106     1.0000 0.78710  0.56050  0.93247  Biso   1.000  H
  H107     1.0000 0.77340  0.21290  0.26580  Biso   1.000  H
  H108     1.0000 0.43950  0.22660  0.59913  Biso   1.000  H
  H109     1.0000 0.52630  0.15890  0.24550  Biso   1.000  H
  H110     1.0000 0.84110  0.36740  0.91217  Biso   1.000  H
  H111     1.0000 0.63260  0.47370  0.57883  Biso   1.000  H
  H112     1.0000 0.47370  0.84110  0.74550  Biso   1.000  H
  H113     1.0000 0.15890  0.63260  0.41217  Biso   1.000  H
  H114     1.0000 0.36740  0.52630  0.07883  Biso   1.000  H
  H115     1.0000 0.15890  0.52630  0.42117  Biso   1.000  H
  H116     1.0000 0.36740  0.84110  0.75450  Biso   1.000  H
  H117     1.0000 0.47370  0.63260  0.08783  Biso   1.000  H
  H118     1.0000 0.84110  0.47370  0.92117  Biso   1.000  H
  H119     1.0000 0.63260  0.15890  0.25450  Biso   1.000  H
  H120     1.0000 0.52630  0.36740  0.58783  Biso   1.000  H
