data_image0
_cell_length_a       10.9274
_cell_length_b       10.9274
_cell_length_c       24.503
_cell_angle_alpha    90
_cell_angle_beta     90
_cell_angle_gamma    120

_symmetry_space_group_name_H-M    "P 1"
_symmetry_int_tables_number       1

loop_
  _symmetry_equiv_pos_as_xyz
  'x, y, z'

loop_
  _atom_site_label
  _atom_site_occupancy
  _atom_site_fract_x
  _atom_site_fract_y
  _atom_site_fract_z
  _atom_site_thermal_displace_type
  _atom_site_B_iso_or_equiv
  _atom_site_type_symbol
  Cu1      1.0000 0.48487  0.00000  0.50000  Biso   1.000  Cu
  Cu2      1.0000 0.00000  0.48487  0.16667  Biso   1.000  Cu
  Cu3      1.0000 0.51513  0.51513  0.83333  Biso   1.000  Cu
  Cu4      1.0000 0.51513  0.00000  0.00000  Biso   1.000  Cu
  Cu5      1.0000 0.00000  0.51513  0.66667  Biso   1.000  Cu
  Cu6      1.0000 0.48487  0.48487  0.33333  Biso   1.000  Cu
  N1       1.0000 0.66470  0.00000  0.50000  Biso   1.000  N
  N2       1.0000 0.00000  0.66470  0.16667  Biso   1.000  N
  N3       1.0000 0.33530  0.33530  0.83333  Biso   1.000  N
  N4       1.0000 0.33530  0.00000  0.00000  Biso   1.000  N
  N5       1.0000 0.00000  0.33530  0.66667  Biso   1.000  N
  N6       1.0000 0.66470  0.66470  0.33333  Biso   1.000  N
  N7       1.0000 0.30300  0.00000  0.50000  Biso   1.000  N
  N8       1.0000 0.00000  0.30300  0.16667  Biso   1.000  N
  N9       1.0000 0.69700  0.69700  0.83333  Biso   1.000  N
  N10      1.0000 0.69700  0.00000  0.00000  Biso   1.000  N
  N11      1.0000 0.00000  0.69700  0.66667  Biso   1.000  N
  N12      1.0000 0.30300  0.30300  0.33333  Biso   1.000  N
  C1       1.0000 0.29840  0.11660  0.49007  Biso   1.000  C
  C2       1.0000 0.88340  0.18180  0.15674  Biso   1.000  C
  C3       1.0000 0.81820  0.70160  0.82340  Biso   1.000  C
  C4       1.0000 0.70160  0.88340  0.99007  Biso   1.000  C
  C5       1.0000 0.11660  0.81820  0.65674  Biso   1.000  C
  C6       1.0000 0.18180  0.29840  0.32340  Biso   1.000  C
  C7       1.0000 0.11660  0.29840  0.17660  Biso   1.000  C
  C8       1.0000 0.18180  0.88340  0.50993  Biso   1.000  C
  C9       1.0000 0.70160  0.81820  0.84326  Biso   1.000  C
  C10      1.0000 0.88340  0.70160  0.67660  Biso   1.000  C
  C11      1.0000 0.81820  0.11660  0.00993  Biso   1.000  C
  C12      1.0000 0.29840  0.18180  0.34326  Biso   1.000  C
  H1       1.0000 0.38370  0.20080  0.48340  Biso   1.000  H
  H2       1.0000 0.79920  0.18290  0.15007  Biso   1.000  H
  H3       1.0000 0.81710  0.61630  0.81673  Biso   1.000  H
  H4       1.0000 0.61630  0.79920  0.98340  Biso   1.000  H
  H5       1.0000 0.20080  0.81710  0.65007  Biso   1.000  H
  H6       1.0000 0.18290  0.38370  0.31673  Biso   1.000  H
  H7       1.0000 0.20080  0.38370  0.18327  Biso   1.000  H
  H8       1.0000 0.18290  0.79920  0.51660  Biso   1.000  H
  H9       1.0000 0.61630  0.81710  0.84993  Biso   1.000  H
  H10      1.0000 0.79920  0.61630  0.68327  Biso   1.000  H
  H11      1.0000 0.81710  0.20080  0.01660  Biso   1.000  H
  H12      1.0000 0.38370  0.18290  0.34993  Biso   1.000  H
  C13      1.0000 0.91750  0.00000  0.50000  Biso   1.000  C
  C14      1.0000 0.00000  0.91750  0.16667  Biso   1.000  C
  C15      1.0000 0.08250  0.08250  0.83333  Biso   1.000  C
  C16      1.0000 0.08250  0.00000  0.00000  Biso   1.000  C
  C17      1.0000 0.00000  0.08250  0.66667  Biso   1.000  C
  C18      1.0000 0.91750  0.91750  0.33333  Biso   1.000  C
  O1       1.0000 0.45730  0.09430  0.62058  Biso   1.000  O
  O2       1.0000 0.90570  0.36300  0.28725  Biso   1.000  O
  O3       1.0000 0.63700  0.54270  0.95391  Biso   1.000  O
  O4       1.0000 0.54270  0.90570  0.12058  Biso   1.000  O
  O5       1.0000 0.09430  0.63700  0.78725  Biso   1.000  O
  O6       1.0000 0.36300  0.45730  0.45391  Biso   1.000  O
  O7       1.0000 0.09430  0.45730  0.04609  Biso   1.000  O
  O8       1.0000 0.36300  0.90570  0.37942  Biso   1.000  O
  O9       1.0000 0.54270  0.63700  0.71275  Biso   1.000  O
  O10      1.0000 0.90570  0.54270  0.54609  Biso   1.000  O
  O11      1.0000 0.63700  0.09430  0.87942  Biso   1.000  O
  O12      1.0000 0.45730  0.36300  0.21275  Biso   1.000  O
  O13      1.0000 0.56710  0.17330  0.54247  Biso   1.000  O
  O14      1.0000 0.82670  0.39380  0.20914  Biso   1.000  O
  O15      1.0000 0.60620  0.43290  0.87580  Biso   1.000  O
  O16      1.0000 0.43290  0.82670  0.04247  Biso   1.000  O
  O17      1.0000 0.17330  0.60620  0.70914  Biso   1.000  O
  O18      1.0000 0.39380  0.56710  0.37580  Biso   1.000  O
  O19      1.0000 0.17330  0.56710  0.12420  Biso   1.000  O
  O20      1.0000 0.39380  0.82670  0.45753  Biso   1.000  O
  O21      1.0000 0.43290  0.60620  0.79086  Biso   1.000  O
  O22      1.0000 0.82670  0.43290  0.62420  Biso   1.000  O
  O23      1.0000 0.60620  0.17330  0.95753  Biso   1.000  O
  O24      1.0000 0.56710  0.39380  0.29086  Biso   1.000  O
  C19      1.0000 0.66790  0.88220  0.49207  Biso   1.000  C
  C20      1.0000 0.11780  0.78570  0.15874  Biso   1.000  C
  C21      1.0000 0.21430  0.33210  0.82540  Biso   1.000  C
  C22      1.0000 0.33210  0.11780  0.99207  Biso   1.000  C
  C23      1.0000 0.88220  0.21430  0.65874  Biso   1.000  C
  C24      1.0000 0.78570  0.66790  0.32540  Biso   1.000  C
  C25      1.0000 0.88220  0.66790  0.17460  Biso   1.000  C
  C26      1.0000 0.78570  0.11780  0.50793  Biso   1.000  C
  C27      1.0000 0.33210  0.21430  0.84126  Biso   1.000  C
  C28      1.0000 0.11780  0.33210  0.67460  Biso   1.000  C
  C29      1.0000 0.21430  0.88220  0.00793  Biso   1.000  C
  C30      1.0000 0.66790  0.78570  0.34126  Biso   1.000  C
  H13      1.0000 0.58220  0.79760  0.48660  Biso   1.000  H
  H14      1.0000 0.20240  0.78460  0.15327  Biso   1.000  H
  H15      1.0000 0.21540  0.41780  0.81993  Biso   1.000  H
  H16      1.0000 0.41780  0.20240  0.98660  Biso   1.000  H
  H17      1.0000 0.79760  0.21540  0.65327  Biso   1.000  H
  H18      1.0000 0.78460  0.58220  0.31993  Biso   1.000  H
  H19      1.0000 0.79760  0.58220  0.18007  Biso   1.000  H
  H20      1.0000 0.78460  0.20240  0.51340  Biso   1.000  H
  H21      1.0000 0.41780  0.21540  0.84673  Biso   1.000  H
  H22      1.0000 0.20240  0.41780  0.68007  Biso   1.000  H
  H23      1.0000 0.21540  0.79760  0.01340  Biso   1.000  H
  H24      1.0000 0.58220  0.78460  0.34673  Biso   1.000  H
  C31      1.0000 0.17610  0.12000  0.48917  Biso   1.000  C
  C32      1.0000 0.88000  0.05610  0.15584  Biso   1.000  C
  C33      1.0000 0.94390  0.82390  0.82250  Biso   1.000  C
  C34      1.0000 0.82390  0.88000  0.98917  Biso   1.000  C
  C35      1.0000 0.12000  0.94390  0.65584  Biso   1.000  C
  C36      1.0000 0.05610  0.17610  0.32250  Biso   1.000  C
  C37      1.0000 0.12000  0.17610  0.17750  Biso   1.000  C
  C38      1.0000 0.05610  0.88000  0.51083  Biso   1.000  C
  C39      1.0000 0.82390  0.94390  0.84416  Biso   1.000  C
  C40      1.0000 0.88000  0.82390  0.67750  Biso   1.000  C
  C41      1.0000 0.94390  0.12000  0.01083  Biso   1.000  C
  C42      1.0000 0.17610  0.05610  0.34416  Biso   1.000  C
  H25      1.0000 0.17760  0.20490  0.48110  Biso   1.000  H
  H26      1.0000 0.79510  0.97270  0.14777  Biso   1.000  H
  H27      1.0000 0.02730  0.82240  0.81443  Biso   1.000  H
  H28      1.0000 0.82240  0.79510  0.98110  Biso   1.000  H
  H29      1.0000 0.20490  0.02730  0.64777  Biso   1.000  H
  H30      1.0000 0.97270  0.17760  0.31443  Biso   1.000  H
  H31      1.0000 0.20490  0.17760  0.18557  Biso   1.000  H
  H32      1.0000 0.97270  0.79510  0.51890  Biso   1.000  H
  H33      1.0000 0.82240  0.02730  0.85223  Biso   1.000  H
  H34      1.0000 0.79510  0.82240  0.68557  Biso   1.000  H
  H35      1.0000 0.02730  0.20490  0.01890  Biso   1.000  H
  H36      1.0000 0.17760  0.97270  0.35223  Biso   1.000  H
  C43      1.0000 0.79090  0.87810  0.49150  Biso   1.000  C
  C44      1.0000 0.12190  0.91280  0.15817  Biso   1.000  C
  C45      1.0000 0.08720  0.20910  0.82483  Biso   1.000  C
  C46      1.0000 0.20910  0.12190  0.99150  Biso   1.000  C
  C47      1.0000 0.87810  0.08720  0.65817  Biso   1.000  C
  C48      1.0000 0.91280  0.79090  0.32483  Biso   1.000  C
  C49      1.0000 0.87810  0.79090  0.17517  Biso   1.000  C
  C50      1.0000 0.91280  0.12190  0.50850  Biso   1.000  C
  C51      1.0000 0.20910  0.08720  0.84183  Biso   1.000  C
  C52      1.0000 0.12190  0.20910  0.67517  Biso   1.000  C
  C53      1.0000 0.08720  0.87810  0.00850  Biso   1.000  C
  C54      1.0000 0.79090  0.91280  0.34183  Biso   1.000  C
  H37      1.0000 0.78890  0.79220  0.48540  Biso   1.000  H
  H38      1.0000 0.20780  0.99670  0.15207  Biso   1.000  H
  H39      1.0000 0.00330  0.21110  0.81873  Biso   1.000  H
  H40      1.0000 0.21110  0.20780  0.98540  Biso   1.000  H
  H41      1.0000 0.79220  0.00330  0.65207  Biso   1.000  H
  H42      1.0000 0.99670  0.78890  0.31873  Biso   1.000  H
  H43      1.0000 0.79220  0.78890  0.18127  Biso   1.000  H
  H44      1.0000 0.99670  0.20780  0.51460  Biso   1.000  H
  H45      1.0000 0.21110  0.00330  0.84793  Biso   1.000  H
  H46      1.0000 0.20780  0.21110  0.68127  Biso   1.000  H
  H47      1.0000 0.00330  0.79220  0.01460  Biso   1.000  H
  H48      1.0000 0.78890  0.99670  0.34793  Biso   1.000  H
  O25      1.0000 0.56650  0.15360  0.41835  Biso   1.000  O
  O26      1.0000 0.84640  0.41290  0.08502  Biso   1.000  O
  O27      1.0000 0.58710  0.43350  0.75168  Biso   1.000  O
  O28      1.0000 0.43350  0.84640  0.91835  Biso   1.000  O
  O29      1.0000 0.15360  0.58710  0.58502  Biso   1.000  O
  O30      1.0000 0.41290  0.56650  0.25168  Biso   1.000  O
  O31      1.0000 0.15360  0.56650  0.24832  Biso   1.000  O
  O32      1.0000 0.41290  0.84640  0.58165  Biso   1.000  O
  O33      1.0000 0.43350  0.58710  0.91498  Biso   1.000  O
  O34      1.0000 0.84640  0.43350  0.74832  Biso   1.000  O
  O35      1.0000 0.58710  0.15360  0.08165  Biso   1.000  O
  O36      1.0000 0.56650  0.41290  0.41498  Biso   1.000  O
  H49      1.0000 0.50770  0.09460  0.39570  Biso   1.000  H
  H50      1.0000 0.90540  0.41310  0.06237  Biso   1.000  H
  H51      1.0000 0.58690  0.49230  0.72903  Biso   1.000  H
  H52      1.0000 0.49230  0.90540  0.89570  Biso   1.000  H
  H53      1.0000 0.09460  0.58690  0.56237  Biso   1.000  H
  H54      1.0000 0.41310  0.50770  0.22903  Biso   1.000  H
  H55      1.0000 0.09460  0.50770  0.27097  Biso   1.000  H
  H56      1.0000 0.41310  0.90540  0.60430  Biso   1.000  H
  H57      1.0000 0.49230  0.58690  0.93763  Biso   1.000  H
  H58      1.0000 0.90540  0.49230  0.77097  Biso   1.000  H
  H59      1.0000 0.58690  0.09460  0.10430  Biso   1.000  H
  H60      1.0000 0.50770  0.41310  0.43763  Biso   1.000  H
  H61      1.0000 0.58960  0.23660  0.40790  Biso   1.000  H
  H62      1.0000 0.76340  0.35300  0.07457  Biso   1.000  H
  H63      1.0000 0.64700  0.41040  0.74123  Biso   1.000  H
  H64      1.0000 0.41040  0.76340  0.90790  Biso   1.000  H
  H65      1.0000 0.23660  0.64700  0.57457  Biso   1.000  H
  H66      1.0000 0.35300  0.58960  0.24123  Biso   1.000  H
  H67      1.0000 0.23660  0.58960  0.25877  Biso   1.000  H
  H68      1.0000 0.35300  0.76340  0.59210  Biso   1.000  H
  H69      1.0000 0.41040  0.64700  0.92543  Biso   1.000  H
  H70      1.0000 0.76340  0.41040  0.75877  Biso   1.000  H
  H71      1.0000 0.64700  0.23660  0.09210  Biso   1.000  H
  H72      1.0000 0.58960  0.35300  0.42543  Biso   1.000  H
  O37      1.0000 0.30900  0.45380  0.56217  Biso   1.000  O
  O38      1.0000 0.54620  0.85520  0.22884  Biso   1.000  O
  O39      1.0000 0.14480  0.69100  0.89550  Biso   1.000  O
  O40      1.0000 0.69100  0.54620  0.06217  Biso   1.000  O
  O41      1.0000 0.45380  0.14480  0.72884  Biso   1.000  O
  O42      1.0000 0.85520  0.30900  0.39550  Biso   1.000  O
  O43      1.0000 0.45380  0.30900  0.10450  Biso   1.000  O
  O44      1.0000 0.85520  0.54620  0.43783  Biso   1.000  O
  O45      1.0000 0.69100  0.14480  0.77116  Biso   1.000  O
  O46      1.0000 0.54620  0.69100  0.60450  Biso   1.000  O
  O47      1.0000 0.14480  0.45380  0.93783  Biso   1.000  O
  O48      1.0000 0.30900  0.85520  0.27116  Biso   1.000  O
  H73      1.0000 0.36290  0.53550  0.54900  Biso   1.000  H
  H74      1.0000 0.46450  0.82740  0.21567  Biso   1.000  H
  H75      1.0000 0.17260  0.63710  0.88233  Biso   1.000  H
  H76      1.0000 0.63710  0.46450  0.04900  Biso   1.000  H
  H77      1.0000 0.53550  0.17260  0.71567  Biso   1.000  H
  H78      1.0000 0.82740  0.36290  0.38233  Biso   1.000  H
  H79      1.0000 0.53550  0.36290  0.11767  Biso   1.000  H
  H80      1.0000 0.82740  0.46450  0.45100  Biso   1.000  H
  H81      1.0000 0.63710  0.17260  0.78433  Biso   1.000  H
  H82      1.0000 0.46450  0.63710  0.61767  Biso   1.000  H
  H83      1.0000 0.17260  0.53550  0.95100  Biso   1.000  H
  H84      1.0000 0.36290  0.82740  0.28433  Biso   1.000  H
  H85      1.0000 0.22580  0.44120  0.56410  Biso   1.000  H
  H86      1.0000 0.55880  0.78460  0.23077  Biso   1.000  H
  H87      1.0000 0.21540  0.77420  0.89743  Biso   1.000  H
  H88      1.0000 0.77420  0.55880  0.06410  Biso   1.000  H
  H89      1.0000 0.44120  0.21540  0.73077  Biso   1.000  H
  H90      1.0000 0.78460  0.22580  0.39743  Biso   1.000  H
  H91      1.0000 0.44120  0.22580  0.10257  Biso   1.000  H
  H92      1.0000 0.78460  0.55880  0.43590  Biso   1.000  H
  H93      1.0000 0.77420  0.21540  0.76923  Biso   1.000  H
  H94      1.0000 0.55880  0.77420  0.60257  Biso   1.000  H
  H95      1.0000 0.21540  0.44120  0.93590  Biso   1.000  H
  H96      1.0000 0.22580  0.78460  0.26923  Biso   1.000  H
  C55      1.0000 0.55050  0.33460  0.59974  Biso   1.000  C
  C56      1.0000 0.66540  0.21590  0.26641  Biso   1.000  C
  C57      1.0000 0.78410  0.44950  0.93307  Biso   1.000  C
  C58      1.0000 0.44950  0.66540  0.09974  Biso   1.000  C
  C59      1.0000 0.33460  0.78410  0.76641  Biso   1.000  C
  C60      1.0000 0.21590  0.55050  0.43307  Biso   1.000  C
  C61      1.0000 0.33460  0.55050  0.06693  Biso   1.000  C
  C62      1.0000 0.21590  0.66540  0.40026  Biso   1.000  C
  C63      1.0000 0.44950  0.78410  0.73359  Biso   1.000  C
  C64      1.0000 0.66540  0.44950  0.56693  Biso   1.000  C
  C65      1.0000 0.78410  0.33460  0.90026  Biso   1.000  C
  C66      1.0000 0.55050  0.21590  0.23359  Biso   1.000  C
  H97      1.0000 0.57450  0.35400  0.63850  Biso   1.000  H
  H98      1.0000 0.64600  0.22050  0.30517  Biso   1.000  H
  H99      1.0000 0.77950  0.42550  0.97183  Biso   1.000  H
  H100     1.0000 0.42550  0.64600  0.13850  Biso   1.000  H
  H101     1.0000 0.35400  0.77950  0.80517  Biso   1.000  H
  H102     1.0000 0.22050  0.57450  0.47183  Biso   1.000  H
  H103     1.0000 0.35400  0.57450  0.02817  Biso   1.000  H
  H104     1.0000 0.22050  0.64600  0.36150  Biso   1.000  H
  H105     1.0000 0.42550  0.77950  0.69483  Biso   1.000  H
  H106     1.0000 0.64600  0.42550  0.52817  Biso   1.000  H
  H107     1.0000 0.77950  0.35400  0.86150  Biso   1.000  H
  H108     1.0000 0.57450  0.22050  0.19483  Biso   1.000  H
  H109     1.0000 0.46290  0.33670  0.59360  Biso   1.000  H
  H110     1.0000 0.66330  0.12620  0.26027  Biso   1.000  H
  H111     1.0000 0.87380  0.53710  0.92693  Biso   1.000  H
  H112     1.0000 0.53710  0.66330  0.09360  Biso   1.000  H
  H113     1.0000 0.33670  0.87380  0.76027  Biso   1.000  H
  H114     1.0000 0.12620  0.46290  0.42693  Biso   1.000  H
  H115     1.0000 0.33670  0.46290  0.07307  Biso   1.000  H
  H116     1.0000 0.12620  0.66330  0.40640  Biso   1.000  H
  H117     1.0000 0.53710  0.87380  0.73973  Biso   1.000  H
  H118     1.0000 0.66330  0.53710  0.57307  Biso   1.000  H
  H119     1.0000 0.87380  0.33670  0.90640  Biso   1.000  H
  H120     1.0000 0.46290  0.12620  0.23973  Biso   1.000  H
  C67      1.0000 0.52380  0.18980  0.58720  Biso   1.000  C
  C68      1.0000 0.81020  0.33400  0.25387  Biso   1.000  C
  C69      1.0000 0.66600  0.47620  0.92053  Biso   1.000  C
  C70      1.0000 0.47620  0.81020  0.08720  Biso   1.000  C
  C71      1.0000 0.18980  0.66600  0.75387  Biso   1.000  C
  C72      1.0000 0.33400  0.52380  0.42053  Biso   1.000  C
  C73      1.0000 0.18980  0.52380  0.07947  Biso   1.000  C
  C74      1.0000 0.33400  0.81020  0.41280  Biso   1.000  C
  C75      1.0000 0.47620  0.66600  0.74613  Biso   1.000  C
  C76      1.0000 0.81020  0.47620  0.57947  Biso   1.000  C
  C77      1.0000 0.66600  0.18980  0.91280  Biso   1.000  C
  C78      1.0000 0.52380  0.33400  0.24613  Biso   1.000  C
  C79      1.0000 0.05020  0.00000  0.50000  Biso   1.000  C
  C80      1.0000 0.00000  0.05020  0.16667  Biso   1.000  C
  C81      1.0000 0.94980  0.94980  0.83333  Biso   1.000  C
  C82      1.0000 0.94980  0.00000  0.00000  Biso   1.000  C
  C83      1.0000 0.00000  0.94980  0.66667  Biso   1.000  C
  C84      1.0000 0.05020  0.05020  0.33333  Biso   1.000  C
