data_image0
_cell_length_a       11.0807
_cell_length_b       11.0807
_cell_length_c       25.089
_cell_angle_alpha    90
_cell_angle_beta     90
_cell_angle_gamma    120

_symmetry_space_group_name_H-M    "P 1"
_symmetry_int_tables_number       1

loop_
  _symmetry_equiv_pos_as_xyz
  'x, y, z'

loop_
  _atom_site_label
  _atom_site_occupancy
  _atom_site_fract_x
  _atom_site_fract_y
  _atom_site_fract_z
  _atom_site_thermal_displace_type
  _atom_site_B_iso_or_equiv
  _atom_site_type_symbol
  Cu1      1.0000 0.48540  0.00000  0.00000  Biso   1.000  Cu
  Cu2      1.0000 0.00000  0.48540  0.66667  Biso   1.000  Cu
  Cu3      1.0000 0.51460  0.51460  0.33333  Biso   1.000  Cu
  Cu4      1.0000 0.51460  0.00000  0.50000  Biso   1.000  Cu
  Cu5      1.0000 0.00000  0.51460  0.16667  Biso   1.000  Cu
  Cu6      1.0000 0.48540  0.48540  0.83333  Biso   1.000  Cu
  O1       1.0000 0.39500  0.82780  0.95778  Biso   1.000  O
  O2       1.0000 0.17220  0.56720  0.62445  Biso   1.000  O
  O3       1.0000 0.43280  0.60500  0.29111  Biso   1.000  O
  O4       1.0000 0.60500  0.17220  0.45778  Biso   1.000  O
  O5       1.0000 0.82780  0.43280  0.12445  Biso   1.000  O
  O6       1.0000 0.56720  0.39500  0.79111  Biso   1.000  O
  O7       1.0000 0.82780  0.39500  0.70889  Biso   1.000  O
  O8       1.0000 0.56720  0.17220  0.04222  Biso   1.000  O
  O9       1.0000 0.60500  0.43280  0.37555  Biso   1.000  O
  O10      1.0000 0.17220  0.60500  0.20889  Biso   1.000  O
  O11      1.0000 0.43280  0.82780  0.54222  Biso   1.000  O
  O12      1.0000 0.39500  0.56720  0.87555  Biso   1.000  O
  N1       1.0000 0.66620  0.00000  0.00000  Biso   1.000  N
  N2       1.0000 0.00000  0.66620  0.66667  Biso   1.000  N
  N3       1.0000 0.33380  0.33380  0.33333  Biso   1.000  N
  N4       1.0000 0.33380  0.00000  0.50000  Biso   1.000  N
  N5       1.0000 0.00000  0.33380  0.16667  Biso   1.000  N
  N6       1.0000 0.66620  0.66620  0.83333  Biso   1.000  N
  N7       1.0000 0.30300  0.00000  0.00000  Biso   1.000  N
  N8       1.0000 0.00000  0.30300  0.66667  Biso   1.000  N
  N9       1.0000 0.69700  0.69700  0.33333  Biso   1.000  N
  N10      1.0000 0.69700  0.00000  0.50000  Biso   1.000  N
  N11      1.0000 0.00000  0.69700  0.16667  Biso   1.000  N
  N12      1.0000 0.30300  0.30300  0.83333  Biso   1.000  N
  C1       1.0000 0.29900  0.11610  0.98995  Biso   1.000  C
  C2       1.0000 0.88390  0.18290  0.65662  Biso   1.000  C
  C3       1.0000 0.81710  0.70100  0.32328  Biso   1.000  C
  C4       1.0000 0.70100  0.88390  0.48995  Biso   1.000  C
  C5       1.0000 0.11610  0.81710  0.15662  Biso   1.000  C
  C6       1.0000 0.18290  0.29900  0.82328  Biso   1.000  C
  C7       1.0000 0.11610  0.29900  0.67672  Biso   1.000  C
  C8       1.0000 0.18290  0.88390  0.01005  Biso   1.000  C
  C9       1.0000 0.70100  0.81710  0.34338  Biso   1.000  C
  C10      1.0000 0.88390  0.70100  0.17672  Biso   1.000  C
  C11      1.0000 0.81710  0.11610  0.51005  Biso   1.000  C
  C12      1.0000 0.29900  0.18290  0.84338  Biso   1.000  C
  H1       1.0000 0.38230  0.19790  0.98330  Biso   1.000  H
  H2       1.0000 0.80210  0.18440  0.64997  Biso   1.000  H
  H3       1.0000 0.81560  0.61770  0.31663  Biso   1.000  H
  H4       1.0000 0.61770  0.80210  0.48330  Biso   1.000  H
  H5       1.0000 0.19790  0.81560  0.14997  Biso   1.000  H
  H6       1.0000 0.18440  0.38230  0.81663  Biso   1.000  H
  H7       1.0000 0.19790  0.38230  0.68337  Biso   1.000  H
  H8       1.0000 0.18440  0.80210  0.01670  Biso   1.000  H
  H9       1.0000 0.61770  0.81560  0.35003  Biso   1.000  H
  H10      1.0000 0.80210  0.61770  0.18337  Biso   1.000  H
  H11      1.0000 0.81560  0.19790  0.51670  Biso   1.000  H
  H12      1.0000 0.38230  0.18440  0.85003  Biso   1.000  H
  C13      1.0000 0.33600  0.81160  0.91276  Biso   1.000  C
  C14      1.0000 0.18840  0.52440  0.57943  Biso   1.000  C
  C15      1.0000 0.47560  0.66400  0.24609  Biso   1.000  C
  C16      1.0000 0.66400  0.18840  0.41276  Biso   1.000  C
  C17      1.0000 0.81160  0.47560  0.07943  Biso   1.000  C
  C18      1.0000 0.52440  0.33600  0.74609  Biso   1.000  C
  C19      1.0000 0.81160  0.33600  0.75391  Biso   1.000  C
  C20      1.0000 0.52440  0.18840  0.08724  Biso   1.000  C
  C21      1.0000 0.66400  0.47560  0.42057  Biso   1.000  C
  C22      1.0000 0.18840  0.66400  0.25391  Biso   1.000  C
  C23      1.0000 0.47560  0.81160  0.58724  Biso   1.000  C
  C24      1.0000 0.33600  0.52440  0.92057  Biso   1.000  C
  O13      1.0000 0.36500  0.90730  0.88017  Biso   1.000  O
  O14      1.0000 0.09270  0.45770  0.54684  Biso   1.000  O
  O15      1.0000 0.54230  0.63500  0.21350  Biso   1.000  O
  O16      1.0000 0.63500  0.09270  0.38017  Biso   1.000  O
  O17      1.0000 0.90730  0.54230  0.04684  Biso   1.000  O
  O18      1.0000 0.45770  0.36500  0.71350  Biso   1.000  O
  O19      1.0000 0.90730  0.36500  0.78650  Biso   1.000  O
  O20      1.0000 0.45770  0.09270  0.11983  Biso   1.000  O
  O21      1.0000 0.63500  0.54230  0.45316  Biso   1.000  O
  O22      1.0000 0.09270  0.63500  0.28650  Biso   1.000  O
  O23      1.0000 0.54230  0.90730  0.61983  Biso   1.000  O
  O24      1.0000 0.36500  0.45770  0.95316  Biso   1.000  O
  O25      1.0000 0.56740  0.15620  0.91836  Biso   1.000  O
  O26      1.0000 0.84380  0.41120  0.58503  Biso   1.000  O
  O27      1.0000 0.58880  0.43260  0.25169  Biso   1.000  O
  O28      1.0000 0.43260  0.84380  0.41836  Biso   1.000  O
  O29      1.0000 0.15620  0.58880  0.08503  Biso   1.000  O
  O30      1.0000 0.41120  0.56740  0.75169  Biso   1.000  O
  O31      1.0000 0.15620  0.56740  0.74831  Biso   1.000  O
  O32      1.0000 0.41120  0.84380  0.08164  Biso   1.000  O
  O33      1.0000 0.43260  0.58880  0.41497  Biso   1.000  O
  O34      1.0000 0.84380  0.43260  0.24831  Biso   1.000  O
  O35      1.0000 0.58880  0.15620  0.58164  Biso   1.000  O
  O36      1.0000 0.56740  0.41120  0.91497  Biso   1.000  O
  H13      1.0000 0.50680  0.08530  0.90130  Biso   1.000  H
  H14      1.0000 0.91470  0.42150  0.56797  Biso   1.000  H
  H15      1.0000 0.57850  0.49320  0.23463  Biso   1.000  H
  H16      1.0000 0.49320  0.91470  0.40130  Biso   1.000  H
  H17      1.0000 0.08530  0.57850  0.06797  Biso   1.000  H
  H18      1.0000 0.42150  0.50680  0.73463  Biso   1.000  H
  H19      1.0000 0.08530  0.50680  0.76537  Biso   1.000  H
  H20      1.0000 0.42150  0.91470  0.09870  Biso   1.000  H
  H21      1.0000 0.49320  0.57850  0.43203  Biso   1.000  H
  H22      1.0000 0.91470  0.49320  0.26537  Biso   1.000  H
  H23      1.0000 0.57850  0.08530  0.59870  Biso   1.000  H
  H24      1.0000 0.50680  0.42150  0.93203  Biso   1.000  H
  H25      1.0000 0.64710  0.18060  0.90520  Biso   1.000  H
  H26      1.0000 0.81940  0.46650  0.57187  Biso   1.000  H
  H27      1.0000 0.53350  0.35290  0.23853  Biso   1.000  H
  H28      1.0000 0.35290  0.81940  0.40520  Biso   1.000  H
  H29      1.0000 0.18060  0.53350  0.07187  Biso   1.000  H
  H30      1.0000 0.46650  0.64710  0.73853  Biso   1.000  H
  H31      1.0000 0.18060  0.64710  0.76147  Biso   1.000  H
  H32      1.0000 0.46650  0.81940  0.09480  Biso   1.000  H
  H33      1.0000 0.35290  0.53350  0.42813  Biso   1.000  H
  H34      1.0000 0.81940  0.35290  0.26147  Biso   1.000  H
  H35      1.0000 0.53350  0.18060  0.59480  Biso   1.000  H
  H36      1.0000 0.64710  0.46650  0.92813  Biso   1.000  H
  C25      1.0000 0.21840  0.66690  0.90019  Biso   1.000  C
  C26      1.0000 0.33310  0.55150  0.56686  Biso   1.000  C
  C27      1.0000 0.44850  0.78160  0.23352  Biso   1.000  C
  C28      1.0000 0.78160  0.33310  0.40019  Biso   1.000  C
  C29      1.0000 0.66690  0.44850  0.06686  Biso   1.000  C
  C30      1.0000 0.55150  0.21840  0.73352  Biso   1.000  C
  C31      1.0000 0.66690  0.21840  0.76648  Biso   1.000  C
  C32      1.0000 0.55150  0.33310  0.09981  Biso   1.000  C
  C33      1.0000 0.78160  0.44850  0.43314  Biso   1.000  C
  C34      1.0000 0.33310  0.78160  0.26648  Biso   1.000  C
  C35      1.0000 0.44850  0.66690  0.59981  Biso   1.000  C
  C36      1.0000 0.21840  0.55150  0.93314  Biso   1.000  C
  H37      1.0000 0.22360  0.64800  0.86280  Biso   1.000  H
  H38      1.0000 0.35200  0.57560  0.52947  Biso   1.000  H
  H39      1.0000 0.42440  0.77640  0.19613  Biso   1.000  H
  H40      1.0000 0.77640  0.35200  0.36280  Biso   1.000  H
  H41      1.0000 0.64800  0.42440  0.02947  Biso   1.000  H
  H42      1.0000 0.57560  0.22360  0.69613  Biso   1.000  H
  H43      1.0000 0.64800  0.22360  0.80387  Biso   1.000  H
  H44      1.0000 0.57560  0.35200  0.13720  Biso   1.000  H
  H45      1.0000 0.77640  0.42440  0.47053  Biso   1.000  H
  H46      1.0000 0.35200  0.77640  0.30387  Biso   1.000  H
  H47      1.0000 0.42440  0.64800  0.63720  Biso   1.000  H
  H48      1.0000 0.22360  0.57560  0.97053  Biso   1.000  H
  H49      1.0000 0.13070  0.66460  0.90580  Biso   1.000  H
  H50      1.0000 0.33540  0.46610  0.57247  Biso   1.000  H
  H51      1.0000 0.53390  0.86930  0.23913  Biso   1.000  H
  H52      1.0000 0.86930  0.33540  0.40580  Biso   1.000  H
  H53      1.0000 0.66460  0.53390  0.07247  Biso   1.000  H
  H54      1.0000 0.46610  0.13070  0.73913  Biso   1.000  H
  H55      1.0000 0.66460  0.13070  0.76087  Biso   1.000  H
  H56      1.0000 0.46610  0.33540  0.09420  Biso   1.000  H
  H57      1.0000 0.86930  0.53390  0.42753  Biso   1.000  H
  H58      1.0000 0.33540  0.86930  0.26087  Biso   1.000  H
  H59      1.0000 0.53390  0.66460  0.59420  Biso   1.000  H
  H60      1.0000 0.13070  0.46610  0.92753  Biso   1.000  H
  O37      1.0000 0.31060  0.85710  0.77155  Biso   1.000  O
  O38      1.0000 0.14290  0.45350  0.43822  Biso   1.000  O
  O39      1.0000 0.54650  0.68940  0.10488  Biso   1.000  O
  O40      1.0000 0.68940  0.14290  0.27155  Biso   1.000  O
  O41      1.0000 0.85710  0.54650  0.93822  Biso   1.000  O
  O42      1.0000 0.45350  0.31060  0.60488  Biso   1.000  O
  O43      1.0000 0.85710  0.31060  0.89512  Biso   1.000  O
  O44      1.0000 0.45350  0.14290  0.22845  Biso   1.000  O
  O45      1.0000 0.68940  0.54650  0.56178  Biso   1.000  O
  O46      1.0000 0.14290  0.68940  0.39512  Biso   1.000  O
  O47      1.0000 0.54650  0.85710  0.72845  Biso   1.000  O
  O48      1.0000 0.31060  0.45350  0.06178  Biso   1.000  O
  H61      1.0000 0.33650  0.87700  0.80380  Biso   1.000  H
  H62      1.0000 0.12300  0.45950  0.47047  Biso   1.000  H
  H63      1.0000 0.54050  0.66350  0.13713  Biso   1.000  H
  H64      1.0000 0.66350  0.12300  0.30380  Biso   1.000  H
  H65      1.0000 0.87700  0.54050  0.97047  Biso   1.000  H
  H66      1.0000 0.45950  0.33650  0.63713  Biso   1.000  H
  H67      1.0000 0.87700  0.33650  0.86287  Biso   1.000  H
  H68      1.0000 0.45950  0.12300  0.19620  Biso   1.000  H
  H69      1.0000 0.66350  0.54050  0.52953  Biso   1.000  H
  H70      1.0000 0.12300  0.66350  0.36287  Biso   1.000  H
  H71      1.0000 0.54050  0.87700  0.69620  Biso   1.000  H
  H72      1.0000 0.33650  0.45950  0.02953  Biso   1.000  H
  H73      1.0000 0.24610  0.77240  0.77020  Biso   1.000  H
  H74      1.0000 0.22760  0.47370  0.43687  Biso   1.000  H
  H75      1.0000 0.52630  0.75390  0.10353  Biso   1.000  H
  H76      1.0000 0.75390  0.22760  0.27020  Biso   1.000  H
  H77      1.0000 0.77240  0.52630  0.93687  Biso   1.000  H
  H78      1.0000 0.47370  0.24610  0.60353  Biso   1.000  H
  H79      1.0000 0.77240  0.24610  0.89647  Biso   1.000  H
  H80      1.0000 0.47370  0.22760  0.22980  Biso   1.000  H
  H81      1.0000 0.75390  0.52630  0.56313  Biso   1.000  H
  H82      1.0000 0.22760  0.75390  0.39647  Biso   1.000  H
  H83      1.0000 0.52630  0.77240  0.72980  Biso   1.000  H
  H84      1.0000 0.24610  0.47370  0.06313  Biso   1.000  H
  C37      1.0000 0.91800  0.00000  0.00000  Biso   1.000  C
  C38      1.0000 0.00000  0.91800  0.66667  Biso   1.000  C
  C39      1.0000 0.08200  0.08200  0.33333  Biso   1.000  C
  C40      1.0000 0.08200  0.00000  0.50000  Biso   1.000  C
  C41      1.0000 0.00000  0.08200  0.16667  Biso   1.000  C
  C42      1.0000 0.91800  0.91800  0.83333  Biso   1.000  C
  C43      1.0000 0.78670  0.11720  0.00779  Biso   1.000  C
  C44      1.0000 0.88280  0.66950  0.67446  Biso   1.000  C
  C45      1.0000 0.33050  0.21330  0.34112  Biso   1.000  C
  C46      1.0000 0.21330  0.88280  0.50779  Biso   1.000  C
  C47      1.0000 0.11720  0.33050  0.17446  Biso   1.000  C
  C48      1.0000 0.66950  0.78670  0.84112  Biso   1.000  C
  C49      1.0000 0.11720  0.78670  0.65888  Biso   1.000  C
  C50      1.0000 0.66950  0.88280  0.99221  Biso   1.000  C
  C51      1.0000 0.21330  0.33050  0.32554  Biso   1.000  C
  C52      1.0000 0.88280  0.21330  0.15888  Biso   1.000  C
  C53      1.0000 0.33050  0.11720  0.49221  Biso   1.000  C
  C54      1.0000 0.78670  0.66950  0.82554  Biso   1.000  C
  H85      1.0000 0.78570  0.19980  0.01300  Biso   1.000  H
  H86      1.0000 0.80020  0.58590  0.67967  Biso   1.000  H
  H87      1.0000 0.41410  0.21430  0.34633  Biso   1.000  H
  H88      1.0000 0.21430  0.80020  0.51300  Biso   1.000  H
  H89      1.0000 0.19980  0.41410  0.17967  Biso   1.000  H
  H90      1.0000 0.58590  0.78570  0.84633  Biso   1.000  H
  H91      1.0000 0.19980  0.78570  0.65367  Biso   1.000  H
  H92      1.0000 0.58590  0.80020  0.98700  Biso   1.000  H
  H93      1.0000 0.21430  0.41410  0.32033  Biso   1.000  H
  H94      1.0000 0.80020  0.21430  0.15367  Biso   1.000  H
  H95      1.0000 0.41410  0.19980  0.48700  Biso   1.000  H
  H96      1.0000 0.78570  0.58590  0.82033  Biso   1.000  H
  C55      1.0000 0.05140  0.00000  0.00000  Biso   1.000  C
  C56      1.0000 0.00000  0.05140  0.66667  Biso   1.000  C
  C57      1.0000 0.94860  0.94860  0.33333  Biso   1.000  C
  C58      1.0000 0.94860  0.00000  0.50000  Biso   1.000  C
  C59      1.0000 0.00000  0.94860  0.16667  Biso   1.000  C
  C60      1.0000 0.05140  0.05140  0.83333  Biso   1.000  C
  C61      1.0000 0.17640  0.12000  0.98892  Biso   1.000  C
  C62      1.0000 0.88000  0.05640  0.65559  Biso   1.000  C
  C63      1.0000 0.94360  0.82360  0.32225  Biso   1.000  C
  C64      1.0000 0.82360  0.88000  0.48892  Biso   1.000  C
  C65      1.0000 0.12000  0.94360  0.15559  Biso   1.000  C
  C66      1.0000 0.05640  0.17640  0.82225  Biso   1.000  C
  C67      1.0000 0.12000  0.17640  0.67775  Biso   1.000  C
  C68      1.0000 0.05640  0.88000  0.01108  Biso   1.000  C
  C69      1.0000 0.82360  0.94360  0.34441  Biso   1.000  C
  C70      1.0000 0.88000  0.82360  0.17775  Biso   1.000  C
  C71      1.0000 0.94360  0.12000  0.51108  Biso   1.000  C
  C72      1.0000 0.17640  0.05640  0.84441  Biso   1.000  C
  H97      1.0000 0.17770  0.20250  0.98090  Biso   1.000  H
  H98      1.0000 0.79750  0.97520  0.64757  Biso   1.000  H
  H99      1.0000 0.02480  0.82230  0.31423  Biso   1.000  H
  H100     1.0000 0.82230  0.79750  0.48090  Biso   1.000  H
  H101     1.0000 0.20250  0.02480  0.14757  Biso   1.000  H
  H102     1.0000 0.97520  0.17770  0.81423  Biso   1.000  H
  H103     1.0000 0.20250  0.17770  0.68577  Biso   1.000  H
  H104     1.0000 0.97520  0.79750  0.01910  Biso   1.000  H
  H105     1.0000 0.82230  0.02480  0.35243  Biso   1.000  H
  H106     1.0000 0.79750  0.82230  0.18577  Biso   1.000  H
  H107     1.0000 0.02480  0.20250  0.51910  Biso   1.000  H
  H108     1.0000 0.17770  0.97520  0.85243  Biso   1.000  H
  C73      1.0000 0.91340  0.12090  0.00840  Biso   1.000  C
  C74      1.0000 0.87910  0.79250  0.67507  Biso   1.000  C
  C75      1.0000 0.20750  0.08660  0.34173  Biso   1.000  C
  C76      1.0000 0.08660  0.87910  0.50840  Biso   1.000  C
  C77      1.0000 0.12090  0.20750  0.17507  Biso   1.000  C
  C78      1.0000 0.79250  0.91340  0.84173  Biso   1.000  C
  C79      1.0000 0.12090  0.91340  0.65827  Biso   1.000  C
  C80      1.0000 0.79250  0.87910  0.99160  Biso   1.000  C
  C81      1.0000 0.08660  0.20750  0.32493  Biso   1.000  C
  C82      1.0000 0.87910  0.08660  0.15827  Biso   1.000  C
  C83      1.0000 0.20750  0.12090  0.49160  Biso   1.000  C
  C84      1.0000 0.91340  0.79250  0.82493  Biso   1.000  C
  H109     1.0000 0.99530  0.20460  0.01440  Biso   1.000  H
  H110     1.0000 0.79540  0.79070  0.68107  Biso   1.000  H
  H111     1.0000 0.20930  0.00470  0.34773  Biso   1.000  H
  H112     1.0000 0.00470  0.79540  0.51440  Biso   1.000  H
  H113     1.0000 0.20460  0.20930  0.18107  Biso   1.000  H
  H114     1.0000 0.79070  0.99530  0.84773  Biso   1.000  H
  H115     1.0000 0.20460  0.99530  0.65227  Biso   1.000  H
  H116     1.0000 0.79070  0.79540  0.98560  Biso   1.000  H
  H117     1.0000 0.00470  0.20930  0.31893  Biso   1.000  H
  H118     1.0000 0.79540  0.00470  0.15227  Biso   1.000  H
  H119     1.0000 0.20930  0.20460  0.48560  Biso   1.000  H
  H120     1.0000 0.99530  0.79070  0.81893  Biso   1.000  H
