data_image0
_cell_length_a       11.056
_cell_length_b       11.056
_cell_length_c       24.871
_cell_angle_alpha    90
_cell_angle_beta     90
_cell_angle_gamma    120

_symmetry_space_group_name_H-M    "P 1"
_symmetry_int_tables_number       1

loop_
  _symmetry_equiv_pos_as_xyz
  'x, y, z'

loop_
  _atom_site_label
  _atom_site_occupancy
  _atom_site_fract_x
  _atom_site_fract_y
  _atom_site_fract_z
  _atom_site_thermal_displace_type
  _atom_site_B_iso_or_equiv
  _atom_site_type_symbol
  Cu1      1.0000 0.00000  0.51457  0.16670  Biso   1.000  Cu
  Cu2      1.0000 0.48543  0.48543  0.83337  Biso   1.000  Cu
  Cu3      1.0000 0.51457  0.00000  0.50003  Biso   1.000  Cu
  Cu4      1.0000 0.00000  0.48543  0.66670  Biso   1.000  Cu
  Cu5      1.0000 0.51457  0.51457  0.33337  Biso   1.000  Cu
  Cu6      1.0000 0.48543  0.00000  0.00003  Biso   1.000  Cu
  C1       1.0000 0.88280  0.70000  0.17713  Biso   1.000  C
  C2       1.0000 0.30000  0.18280  0.84380  Biso   1.000  C
  C3       1.0000 0.81720  0.11720  0.51046  Biso   1.000  C
  C4       1.0000 0.11720  0.30000  0.67713  Biso   1.000  C
  C5       1.0000 0.70000  0.81720  0.34380  Biso   1.000  C
  C6       1.0000 0.18280  0.88280  0.01046  Biso   1.000  C
  C7       1.0000 0.70000  0.88280  0.48954  Biso   1.000  C
  C8       1.0000 0.18280  0.30000  0.82287  Biso   1.000  C
  C9       1.0000 0.11720  0.81720  0.15620  Biso   1.000  C
  C10      1.0000 0.30000  0.11720  0.98954  Biso   1.000  C
  C11      1.0000 0.81720  0.70000  0.32287  Biso   1.000  C
  C12      1.0000 0.88280  0.18280  0.65620  Biso   1.000  C
  H1       1.0000 0.80100  0.61660  0.18430  Biso   1.000  H
  H2       1.0000 0.38340  0.18440  0.85097  Biso   1.000  H
  H3       1.0000 0.81560  0.19900  0.51763  Biso   1.000  H
  H4       1.0000 0.19900  0.38340  0.68430  Biso   1.000  H
  H5       1.0000 0.61660  0.81560  0.35097  Biso   1.000  H
  H6       1.0000 0.18440  0.80100  0.01763  Biso   1.000  H
  H7       1.0000 0.61660  0.80100  0.48237  Biso   1.000  H
  H8       1.0000 0.18440  0.38340  0.81570  Biso   1.000  H
  H9       1.0000 0.19900  0.81560  0.14903  Biso   1.000  H
  H10      1.0000 0.38340  0.19900  0.98237  Biso   1.000  H
  H11      1.0000 0.81560  0.61660  0.31570  Biso   1.000  H
  H12      1.0000 0.80100  0.18440  0.64903  Biso   1.000  H
  C13      1.0000 0.12010  0.20780  0.17390  Biso   1.000  C
  C14      1.0000 0.79220  0.91230  0.84057  Biso   1.000  C
  C15      1.0000 0.08770  0.87990  0.50723  Biso   1.000  C
  C16      1.0000 0.87990  0.79220  0.67390  Biso   1.000  C
  C17      1.0000 0.20780  0.08770  0.34057  Biso   1.000  C
  C18      1.0000 0.91230  0.12010  0.00723  Biso   1.000  C
  C19      1.0000 0.20780  0.12010  0.49277  Biso   1.000  C
  C20      1.0000 0.91230  0.79220  0.82610  Biso   1.000  C
  C21      1.0000 0.87990  0.08770  0.15943  Biso   1.000  C
  C22      1.0000 0.79220  0.87990  0.99277  Biso   1.000  C
  C23      1.0000 0.08770  0.20780  0.32610  Biso   1.000  C
  C24      1.0000 0.12010  0.91230  0.65943  Biso   1.000  C
  H13      1.0000 0.20450  0.20970  0.17840  Biso   1.000  H
  H14      1.0000 0.79030  0.99480  0.84507  Biso   1.000  H
  H15      1.0000 0.00520  0.79550  0.51173  Biso   1.000  H
  H16      1.0000 0.79550  0.79030  0.67840  Biso   1.000  H
  H17      1.0000 0.20970  0.00520  0.34507  Biso   1.000  H
  H18      1.0000 0.99480  0.20450  0.01173  Biso   1.000  H
  H19      1.0000 0.20970  0.20450  0.48827  Biso   1.000  H
  H20      1.0000 0.99480  0.79030  0.82160  Biso   1.000  H
  H21      1.0000 0.79550  0.00520  0.15493  Biso   1.000  H
  H22      1.0000 0.79030  0.79550  0.98827  Biso   1.000  H
  H23      1.0000 0.00520  0.20970  0.32160  Biso   1.000  H
  H24      1.0000 0.20450  0.99480  0.65493  Biso   1.000  H
  C25      1.0000 0.33320  0.78160  0.26660  Biso   1.000  C
  C26      1.0000 0.21840  0.55160  0.93327  Biso   1.000  C
  C27      1.0000 0.44840  0.66680  0.59993  Biso   1.000  C
  C28      1.0000 0.66680  0.21840  0.76660  Biso   1.000  C
  C29      1.0000 0.78160  0.44840  0.43327  Biso   1.000  C
  C30      1.0000 0.55160  0.33320  0.09993  Biso   1.000  C
  C31      1.0000 0.78160  0.33320  0.40007  Biso   1.000  C
  C32      1.0000 0.55160  0.21840  0.73340  Biso   1.000  C
  C33      1.0000 0.66680  0.44840  0.06673  Biso   1.000  C
  C34      1.0000 0.21840  0.66680  0.90007  Biso   1.000  C
  C35      1.0000 0.44840  0.78160  0.23340  Biso   1.000  C
  C36      1.0000 0.33320  0.55160  0.56673  Biso   1.000  C
  H25      1.0000 0.35120  0.77500  0.30430  Biso   1.000  H
  H26      1.0000 0.22500  0.57620  0.97097  Biso   1.000  H
  H27      1.0000 0.42380  0.64880  0.63763  Biso   1.000  H
  H28      1.0000 0.64880  0.22500  0.80430  Biso   1.000  H
  H29      1.0000 0.77500  0.42380  0.47097  Biso   1.000  H
  H30      1.0000 0.57620  0.35120  0.13763  Biso   1.000  H
  H31      1.0000 0.77500  0.35120  0.36237  Biso   1.000  H
  H32      1.0000 0.57620  0.22500  0.69570  Biso   1.000  H
  H33      1.0000 0.64880  0.42380  0.02903  Biso   1.000  H
  H34      1.0000 0.22500  0.64880  0.86237  Biso   1.000  H
  H35      1.0000 0.42380  0.77500  0.19570  Biso   1.000  H
  H36      1.0000 0.35120  0.57620  0.52903  Biso   1.000  H
  H37      1.0000 0.33600  0.86990  0.26120  Biso   1.000  H
  H38      1.0000 0.13010  0.46610  0.92787  Biso   1.000  H
  H39      1.0000 0.53390  0.66400  0.59453  Biso   1.000  H
  H40      1.0000 0.66400  0.13010  0.76120  Biso   1.000  H
  H41      1.0000 0.86990  0.53390  0.42787  Biso   1.000  H
  H42      1.0000 0.46610  0.33600  0.09453  Biso   1.000  H
  H43      1.0000 0.86990  0.33600  0.40547  Biso   1.000  H
  H44      1.0000 0.46610  0.13010  0.73880  Biso   1.000  H
  H45      1.0000 0.66400  0.53390  0.07213  Biso   1.000  H
  H46      1.0000 0.13010  0.66400  0.90547  Biso   1.000  H
  H47      1.0000 0.53390  0.86990  0.23880  Biso   1.000  H
  H48      1.0000 0.33600  0.46610  0.57213  Biso   1.000  H
  N1       1.0000 0.00000  0.69640  0.16670  Biso   1.000  N
  N2       1.0000 0.30360  0.30360  0.83337  Biso   1.000  N
  N3       1.0000 0.69640  0.00000  0.50003  Biso   1.000  N
  N4       1.0000 0.00000  0.30360  0.66670  Biso   1.000  N
  N5       1.0000 0.69640  0.69640  0.33337  Biso   1.000  N
  N6       1.0000 0.30360  0.00000  0.00003  Biso   1.000  N
  O1       1.0000 0.09310  0.63640  0.28631  Biso   1.000  O
  O2       1.0000 0.36360  0.45670  0.95298  Biso   1.000  O
  O3       1.0000 0.54330  0.90690  0.61964  Biso   1.000  O
  O4       1.0000 0.90690  0.36360  0.78631  Biso   1.000  O
  O5       1.0000 0.63640  0.54330  0.45298  Biso   1.000  O
  O6       1.0000 0.45670  0.09310  0.11964  Biso   1.000  O
  O7       1.0000 0.63640  0.09310  0.38036  Biso   1.000  O
  O8       1.0000 0.45670  0.36360  0.71369  Biso   1.000  O
  O9       1.0000 0.90690  0.54330  0.04702  Biso   1.000  O
  O10      1.0000 0.36360  0.90690  0.88036  Biso   1.000  O
  O11      1.0000 0.54330  0.63640  0.21369  Biso   1.000  O
  O12      1.0000 0.09310  0.45670  0.54702  Biso   1.000  O
  C37      1.0000 0.18930  0.66480  0.25297  Biso   1.000  C
  C38      1.0000 0.33520  0.52450  0.91964  Biso   1.000  C
  C39      1.0000 0.47550  0.81070  0.58630  Biso   1.000  C
  C40      1.0000 0.81070  0.33520  0.75297  Biso   1.000  C
  C41      1.0000 0.66480  0.47550  0.41964  Biso   1.000  C
  C42      1.0000 0.52450  0.18930  0.08630  Biso   1.000  C
  C43      1.0000 0.66480  0.18930  0.41370  Biso   1.000  C
  C44      1.0000 0.52450  0.33520  0.74703  Biso   1.000  C
  C45      1.0000 0.81070  0.47550  0.08036  Biso   1.000  C
  C46      1.0000 0.33520  0.81070  0.91370  Biso   1.000  C
  C47      1.0000 0.47550  0.66480  0.24703  Biso   1.000  C
  C48      1.0000 0.18930  0.52450  0.58036  Biso   1.000  C
  N7       1.0000 0.00000  0.33350  0.16670  Biso   1.000  N
  N8       1.0000 0.66650  0.66650  0.83337  Biso   1.000  N
  N9       1.0000 0.33350  0.00000  0.50003  Biso   1.000  N
  N10      1.0000 0.00000  0.66650  0.66670  Biso   1.000  N
  N11      1.0000 0.33350  0.33350  0.33337  Biso   1.000  N
  N12      1.0000 0.66650  0.00000  0.00003  Biso   1.000  N
  O13      1.0000 0.17180  0.60550  0.20880  Biso   1.000  O
  O14      1.0000 0.39450  0.56630  0.87547  Biso   1.000  O
  O15      1.0000 0.43370  0.82820  0.54213  Biso   1.000  O
  O16      1.0000 0.82820  0.39450  0.70880  Biso   1.000  O
  O17      1.0000 0.60550  0.43370  0.37547  Biso   1.000  O
  O18      1.0000 0.56630  0.17180  0.04213  Biso   1.000  O
  O19      1.0000 0.60550  0.17180  0.45787  Biso   1.000  O
  O20      1.0000 0.56630  0.39450  0.79120  Biso   1.000  O
  O21      1.0000 0.82820  0.43370  0.12453  Biso   1.000  O
  O22      1.0000 0.39450  0.82820  0.95787  Biso   1.000  O
  O23      1.0000 0.43370  0.60550  0.29120  Biso   1.000  O
  O24      1.0000 0.17180  0.56630  0.62453  Biso   1.000  O
  C49      1.0000 0.87910  0.82290  0.17772  Biso   1.000  C
  C50      1.0000 0.17710  0.05620  0.84439  Biso   1.000  C
  C51      1.0000 0.94380  0.12090  0.51105  Biso   1.000  C
  C52      1.0000 0.12090  0.17710  0.67772  Biso   1.000  C
  C53      1.0000 0.82290  0.94380  0.34439  Biso   1.000  C
  C54      1.0000 0.05620  0.87910  0.01105  Biso   1.000  C
  C55      1.0000 0.82290  0.87910  0.48895  Biso   1.000  C
  C56      1.0000 0.05620  0.17710  0.82228  Biso   1.000  C
  C57      1.0000 0.12090  0.94380  0.15561  Biso   1.000  C
  C58      1.0000 0.17710  0.12090  0.98895  Biso   1.000  C
  C59      1.0000 0.94380  0.82290  0.32228  Biso   1.000  C
  C60      1.0000 0.87910  0.05620  0.65561  Biso   1.000  C
  H49      1.0000 0.79610  0.82130  0.18550  Biso   1.000  H
  H50      1.0000 0.17870  0.97480  0.85217  Biso   1.000  H
  H51      1.0000 0.02520  0.20390  0.51883  Biso   1.000  H
  H52      1.0000 0.20390  0.17870  0.68550  Biso   1.000  H
  H53      1.0000 0.82130  0.02520  0.35217  Biso   1.000  H
  H54      1.0000 0.97480  0.79610  0.01883  Biso   1.000  H
  H55      1.0000 0.82130  0.79610  0.48117  Biso   1.000  H
  H56      1.0000 0.97480  0.17870  0.81450  Biso   1.000  H
  H57      1.0000 0.20390  0.02520  0.14783  Biso   1.000  H
  H58      1.0000 0.17870  0.20390  0.98117  Biso   1.000  H
  H59      1.0000 0.02520  0.82130  0.31450  Biso   1.000  H
  H60      1.0000 0.79610  0.97480  0.64783  Biso   1.000  H
  C61      1.0000 0.00000  0.08270  0.16670  Biso   1.000  C
  C62      1.0000 0.91730  0.91730  0.83337  Biso   1.000  C
  C63      1.0000 0.08270  0.00000  0.50003  Biso   1.000  C
  C64      1.0000 0.00000  0.91730  0.66670  Biso   1.000  C
  C65      1.0000 0.08270  0.08270  0.33337  Biso   1.000  C
  C66      1.0000 0.91730  0.00000  0.00003  Biso   1.000  C
  O25      1.0000 0.84450  0.43200  0.24903  Biso   1.000  O
  O26      1.0000 0.56800  0.41250  0.91570  Biso   1.000  O
  O27      1.0000 0.58750  0.15550  0.58236  Biso   1.000  O
  O28      1.0000 0.15550  0.56800  0.74903  Biso   1.000  O
  O29      1.0000 0.43200  0.58750  0.41570  Biso   1.000  O
  O30      1.0000 0.41250  0.84450  0.08236  Biso   1.000  O
  O31      1.0000 0.43200  0.84450  0.41764  Biso   1.000  O
  O32      1.0000 0.41250  0.56800  0.75097  Biso   1.000  O
  O33      1.0000 0.15550  0.58750  0.08430  Biso   1.000  O
  O34      1.0000 0.56800  0.15550  0.91764  Biso   1.000  O
  O35      1.0000 0.58750  0.43200  0.25097  Biso   1.000  O
  O36      1.0000 0.84450  0.41250  0.58430  Biso   1.000  O
  H61      1.0000 0.92260  0.49310  0.26210  Biso   1.000  H
  H62      1.0000 0.50690  0.42950  0.92877  Biso   1.000  H
  H63      1.0000 0.57050  0.07740  0.59543  Biso   1.000  H
  H64      1.0000 0.07740  0.50690  0.76210  Biso   1.000  H
  H65      1.0000 0.49310  0.57050  0.42877  Biso   1.000  H
  H66      1.0000 0.42950  0.92260  0.09543  Biso   1.000  H
  H67      1.0000 0.49310  0.92260  0.40457  Biso   1.000  H
  H68      1.0000 0.42950  0.50690  0.73790  Biso   1.000  H
  H69      1.0000 0.07740  0.57050  0.07123  Biso   1.000  H
  H70      1.0000 0.50690  0.07740  0.90457  Biso   1.000  H
  H71      1.0000 0.57050  0.49310  0.23790  Biso   1.000  H
  H72      1.0000 0.92260  0.42950  0.57123  Biso   1.000  H
  H73      1.0000 0.82190  0.35350  0.26320  Biso   1.000  H
  H74      1.0000 0.64650  0.46840  0.92987  Biso   1.000  H
  H75      1.0000 0.53160  0.17810  0.59653  Biso   1.000  H
  H76      1.0000 0.17810  0.64650  0.76320  Biso   1.000  H
  H77      1.0000 0.35350  0.53160  0.42987  Biso   1.000  H
  H78      1.0000 0.46840  0.82190  0.09653  Biso   1.000  H
  H79      1.0000 0.35350  0.82190  0.40347  Biso   1.000  H
  H80      1.0000 0.46840  0.64650  0.73680  Biso   1.000  H
  H81      1.0000 0.17810  0.53160  0.07013  Biso   1.000  H
  H82      1.0000 0.64650  0.17810  0.90347  Biso   1.000  H
  H83      1.0000 0.53160  0.35350  0.23680  Biso   1.000  H
  H84      1.0000 0.82190  0.46840  0.57013  Biso   1.000  H
  C67      1.0000 0.11740  0.33060  0.17460  Biso   1.000  C
  C68      1.0000 0.66940  0.78680  0.84127  Biso   1.000  C
  C69      1.0000 0.21320  0.88260  0.50793  Biso   1.000  C
  C70      1.0000 0.88260  0.66940  0.67460  Biso   1.000  C
  C71      1.0000 0.33060  0.21320  0.34127  Biso   1.000  C
  C72      1.0000 0.78680  0.11740  0.00793  Biso   1.000  C
  C73      1.0000 0.33060  0.11740  0.49207  Biso   1.000  C
  C74      1.0000 0.78680  0.66940  0.82540  Biso   1.000  C
  C75      1.0000 0.88260  0.21320  0.15873  Biso   1.000  C
  C76      1.0000 0.66940  0.88260  0.99207  Biso   1.000  C
  C77      1.0000 0.21320  0.33060  0.32540  Biso   1.000  C
  C78      1.0000 0.11740  0.78680  0.65873  Biso   1.000  C
  H85      1.0000 0.19990  0.41390  0.18080  Biso   1.000  H
  H86      1.0000 0.58610  0.78600  0.84747  Biso   1.000  H
  H87      1.0000 0.21400  0.80010  0.51413  Biso   1.000  H
  H88      1.0000 0.80010  0.58610  0.68080  Biso   1.000  H
  H89      1.0000 0.41390  0.21400  0.34747  Biso   1.000  H
  H90      1.0000 0.78600  0.19990  0.01413  Biso   1.000  H
  H91      1.0000 0.41390  0.19990  0.48587  Biso   1.000  H
  H92      1.0000 0.78600  0.58610  0.81920  Biso   1.000  H
  H93      1.0000 0.80010  0.21400  0.15253  Biso   1.000  H
  H94      1.0000 0.58610  0.80010  0.98587  Biso   1.000  H
  H95      1.0000 0.21400  0.41390  0.31920  Biso   1.000  H
  H96      1.0000 0.19990  0.78600  0.65253  Biso   1.000  H
  C79      1.0000 1.00000  0.94970  0.16670  Biso   1.000  C
  C80      1.0000 0.05030  0.05030  0.83337  Biso   1.000  C
  C81      1.0000 0.94970  0.00000  0.50003  Biso   1.000  C
  C82      1.0000 0.00000  0.05030  0.66670  Biso   1.000  C
  C83      1.0000 0.94970  0.94970  0.33337  Biso   1.000  C
  C84      1.0000 0.05030  0.00000  0.00003  Biso   1.000  C
  O37      1.0000 0.68920  0.14370  0.27153  Biso   1.000  O
  O38      1.0000 0.85630  0.54550  0.93820  Biso   1.000  O
  O39      1.0000 0.45450  0.31080  0.60486  Biso   1.000  O
  O40      1.0000 0.31080  0.85630  0.77153  Biso   1.000  O
  O41      1.0000 0.14370  0.45450  0.43820  Biso   1.000  O
  O42      1.0000 0.54550  0.68920  0.10486  Biso   1.000  O
  O43      1.0000 0.14370  0.68920  0.39514  Biso   1.000  O
  O44      1.0000 0.54550  0.85630  0.72847  Biso   1.000  O
  O45      1.0000 0.31080  0.45450  0.06180  Biso   1.000  O
  O46      1.0000 0.85630  0.31080  0.89514  Biso   1.000  O
  O47      1.0000 0.45450  0.14370  0.22847  Biso   1.000  O
  O48      1.0000 0.68920  0.54550  0.56180  Biso   1.000  O
  H97      1.0000 0.68690  0.12530  0.30480  Biso   1.000  H
  H98      1.0000 0.87470  0.56160  0.97147  Biso   1.000  H
  H99      1.0000 0.43840  0.31310  0.63813  Biso   1.000  H
  H100     1.0000 0.31310  0.87470  0.80480  Biso   1.000  H
  H101     1.0000 0.12530  0.43840  0.47147  Biso   1.000  H
  H102     1.0000 0.56160  0.68690  0.13813  Biso   1.000  H
  H103     1.0000 0.12530  0.68690  0.36187  Biso   1.000  H
  H104     1.0000 0.56160  0.87470  0.69520  Biso   1.000  H
  H105     1.0000 0.31310  0.43840  0.02853  Biso   1.000  H
  H106     1.0000 0.87470  0.31310  0.86187  Biso   1.000  H
  H107     1.0000 0.43840  0.12530  0.19520  Biso   1.000  H
  H108     1.0000 0.68690  0.56160  0.52853  Biso   1.000  H
  H109     1.0000 0.62970  0.16940  0.26580  Biso   1.000  H
  H110     1.0000 0.83060  0.46030  0.93247  Biso   1.000  H
  H111     1.0000 0.53970  0.37030  0.59913  Biso   1.000  H
  H112     1.0000 0.37030  0.83060  0.76580  Biso   1.000  H
  H113     1.0000 0.16940  0.53970  0.43247  Biso   1.000  H
  H114     1.0000 0.46030  0.62970  0.09913  Biso   1.000  H
  H115     1.0000 0.16940  0.62970  0.40087  Biso   1.000  H
  H116     1.0000 0.46030  0.83060  0.73420  Biso   1.000  H
  H117     1.0000 0.37030  0.53970  0.06753  Biso   1.000  H
  H118     1.0000 0.83060  0.37030  0.90087  Biso   1.000  H
  H119     1.0000 0.53970  0.16940  0.23420  Biso   1.000  H
  H120     1.0000 0.62970  0.46030  0.56753  Biso   1.000  H
