data_image0
_cell_length_a       11.0412
_cell_length_b       11.0412
_cell_length_c       24.636
_cell_angle_alpha    90
_cell_angle_beta     90
_cell_angle_gamma    120

_symmetry_space_group_name_H-M    "P 1"
_symmetry_int_tables_number       1

loop_
  _symmetry_equiv_pos_as_xyz
  'x, y, z'

loop_
  _atom_site_label
  _atom_site_occupancy
  _atom_site_fract_x
  _atom_site_fract_y
  _atom_site_fract_z
  _atom_site_thermal_displace_type
  _atom_site_B_iso_or_equiv
  _atom_site_type_symbol
  Cu1      1.0000 0.51601  0.00000  0.00000  Biso   1.000  Cu
  Cu2      1.0000 0.00000  0.51601  0.66667  Biso   1.000  Cu
  Cu3      1.0000 0.48399  0.48399  0.33333  Biso   1.000  Cu
  Cu4      1.0000 0.48399  0.00000  0.50000  Biso   1.000  Cu
  Cu5      1.0000 0.00000  0.48399  0.16667  Biso   1.000  Cu
  Cu6      1.0000 0.51601  0.51601  0.83333  Biso   1.000  Cu
  O1       1.0000 0.43394  0.82617  0.04219  Biso   1.000  O
  O2       1.0000 0.17383  0.60777  0.70886  Biso   1.000  O
  O3       1.0000 0.39223  0.56606  0.37552  Biso   1.000  O
  O4       1.0000 0.56606  0.17383  0.54219  Biso   1.000  O
  O5       1.0000 0.82617  0.39223  0.20886  Biso   1.000  O
  O6       1.0000 0.60777  0.43394  0.87552  Biso   1.000  O
  O7       1.0000 0.82617  0.43394  0.62448  Biso   1.000  O
  O8       1.0000 0.60777  0.17383  0.95781  Biso   1.000  O
  O9       1.0000 0.56606  0.39223  0.29114  Biso   1.000  O
  O10      1.0000 0.17383  0.56606  0.12448  Biso   1.000  O
  O11      1.0000 0.39223  0.82617  0.45781  Biso   1.000  O
  O12      1.0000 0.43394  0.60777  0.79114  Biso   1.000  O
  N1       1.0000 0.33580  0.00000  0.00000  Biso   1.000  N
  N2       1.0000 0.00000  0.33580  0.66667  Biso   1.000  N
  N3       1.0000 0.66420  0.66420  0.33333  Biso   1.000  N
  N4       1.0000 0.66420  0.00000  0.50000  Biso   1.000  N
  N5       1.0000 0.00000  0.66420  0.16667  Biso   1.000  N
  N6       1.0000 0.33580  0.33580  0.83333  Biso   1.000  N
  N7       1.0000 0.69770  0.00000  0.00000  Biso   1.000  N
  N8       1.0000 0.00000  0.69770  0.66667  Biso   1.000  N
  N9       1.0000 0.30230  0.30230  0.33333  Biso   1.000  N
  N10      1.0000 0.30230  0.00000  0.50000  Biso   1.000  N
  N11      1.0000 0.00000  0.30230  0.16667  Biso   1.000  N
  N12      1.0000 0.69770  0.69770  0.83333  Biso   1.000  N
  C1       1.0000 0.94990  0.00000  0.00000  Biso   1.000  C
  C2       1.0000 0.00000  0.94990  0.66667  Biso   1.000  C
  C3       1.0000 0.05010  0.05010  0.33333  Biso   1.000  C
  C4       1.0000 0.05010  0.00000  0.50000  Biso   1.000  C
  C5       1.0000 0.00000  0.05010  0.16667  Biso   1.000  C
  C6       1.0000 0.94990  0.94990  0.83333  Biso   1.000  C
  C7       1.0000 0.45090  0.66380  0.10009  Biso   1.000  C
  C8       1.0000 0.33620  0.78710  0.76676  Biso   1.000  C
  C9       1.0000 0.21290  0.54910  0.43342  Biso   1.000  C
  C10      1.0000 0.54910  0.33620  0.60009  Biso   1.000  C
  C11      1.0000 0.66380  0.21290  0.26676  Biso   1.000  C
  C12      1.0000 0.78710  0.45090  0.93342  Biso   1.000  C
  C13      1.0000 0.66380  0.45090  0.56658  Biso   1.000  C
  C14      1.0000 0.78710  0.33620  0.89991  Biso   1.000  C
  C15      1.0000 0.54910  0.21290  0.23324  Biso   1.000  C
  C16      1.0000 0.33620  0.54910  0.06658  Biso   1.000  C
  C17      1.0000 0.21290  0.66380  0.39991  Biso   1.000  C
  C18      1.0000 0.45090  0.78710  0.73324  Biso   1.000  C
  H1       1.0000 0.53860  0.66200  0.09410  Biso   1.000  H
  H2       1.0000 0.33800  0.87660  0.76077  Biso   1.000  H
  H3       1.0000 0.12340  0.46140  0.42743  Biso   1.000  H
  H4       1.0000 0.46140  0.33800  0.59410  Biso   1.000  H
  H5       1.0000 0.66200  0.12340  0.26077  Biso   1.000  H
  H6       1.0000 0.87660  0.53860  0.92743  Biso   1.000  H
  H7       1.0000 0.66200  0.53860  0.57257  Biso   1.000  H
  H8       1.0000 0.87660  0.33800  0.90590  Biso   1.000  H
  H9       1.0000 0.46140  0.12340  0.23923  Biso   1.000  H
  H10      1.0000 0.33800  0.46140  0.07257  Biso   1.000  H
  H11      1.0000 0.12340  0.66200  0.40590  Biso   1.000  H
  H12      1.0000 0.53860  0.87660  0.73923  Biso   1.000  H
  H13      1.0000 0.42630  0.64380  0.13900  Biso   1.000  H
  H14      1.0000 0.35620  0.78250  0.80567  Biso   1.000  H
  H15      1.0000 0.21750  0.57370  0.47233  Biso   1.000  H
  H16      1.0000 0.57370  0.35620  0.63900  Biso   1.000  H
  H17      1.0000 0.64380  0.21750  0.30567  Biso   1.000  H
  H18      1.0000 0.78250  0.42630  0.97233  Biso   1.000  H
  H19      1.0000 0.64380  0.42630  0.52767  Biso   1.000  H
  H20      1.0000 0.78250  0.35620  0.86100  Biso   1.000  H
  H21      1.0000 0.57370  0.21750  0.19433  Biso   1.000  H
  H22      1.0000 0.35620  0.57370  0.02767  Biso   1.000  H
  H23      1.0000 0.21750  0.64380  0.36100  Biso   1.000  H
  H24      1.0000 0.42630  0.78250  0.69433  Biso   1.000  H
  C19      1.0000 0.81820  0.11700  0.00996  Biso   1.000  C
  C20      1.0000 0.88300  0.70120  0.67663  Biso   1.000  C
  C21      1.0000 0.29880  0.18180  0.34329  Biso   1.000  C
  C22      1.0000 0.18180  0.88300  0.50996  Biso   1.000  C
  C23      1.0000 0.11700  0.29880  0.17663  Biso   1.000  C
  C24      1.0000 0.70120  0.81820  0.84329  Biso   1.000  C
  C25      1.0000 0.11700  0.81820  0.65671  Biso   1.000  C
  C26      1.0000 0.70120  0.88300  0.99004  Biso   1.000  C
  C27      1.0000 0.18180  0.29880  0.32337  Biso   1.000  C
  C28      1.0000 0.88300  0.18180  0.15671  Biso   1.000  C
  C29      1.0000 0.29880  0.11700  0.49004  Biso   1.000  C
  C30      1.0000 0.81820  0.70120  0.82337  Biso   1.000  C
  H25      1.0000 0.81650  0.20090  0.01660  Biso   1.000  H
  H26      1.0000 0.79910  0.61560  0.68327  Biso   1.000  H
  H27      1.0000 0.38440  0.18350  0.34993  Biso   1.000  H
  H28      1.0000 0.18350  0.79910  0.51660  Biso   1.000  H
  H29      1.0000 0.20090  0.38440  0.18327  Biso   1.000  H
  H30      1.0000 0.61560  0.81650  0.84993  Biso   1.000  H
  H31      1.0000 0.20090  0.81650  0.65007  Biso   1.000  H
  H32      1.0000 0.61560  0.79910  0.98340  Biso   1.000  H
  H33      1.0000 0.18350  0.38440  0.31673  Biso   1.000  H
  H34      1.0000 0.79910  0.18350  0.15007  Biso   1.000  H
  H35      1.0000 0.38440  0.20090  0.48340  Biso   1.000  H
  H36      1.0000 0.81650  0.61560  0.81673  Biso   1.000  H
  C31      1.0000 0.94510  0.12130  0.01102  Biso   1.000  C
  C32      1.0000 0.87870  0.82380  0.67769  Biso   1.000  C
  C33      1.0000 0.17620  0.05490  0.34435  Biso   1.000  C
  C34      1.0000 0.05490  0.87870  0.51102  Biso   1.000  C
  C35      1.0000 0.12130  0.17620  0.17769  Biso   1.000  C
  C36      1.0000 0.82380  0.94510  0.84435  Biso   1.000  C
  C37      1.0000 0.12130  0.94510  0.65565  Biso   1.000  C
  C38      1.0000 0.82380  0.87870  0.98898  Biso   1.000  C
  C39      1.0000 0.05490  0.17620  0.32231  Biso   1.000  C
  C40      1.0000 0.87870  0.05490  0.15565  Biso   1.000  C
  C41      1.0000 0.17620  0.12130  0.48898  Biso   1.000  C
  C42      1.0000 0.94510  0.82380  0.82231  Biso   1.000  C
  H37      1.0000 0.02840  0.20610  0.01920  Biso   1.000  H
  H38      1.0000 0.79390  0.82230  0.68587  Biso   1.000  H
  H39      1.0000 0.17770  0.97160  0.35253  Biso   1.000  H
  H40      1.0000 0.97160  0.79390  0.51920  Biso   1.000  H
  H41      1.0000 0.20610  0.17770  0.18587  Biso   1.000  H
  H42      1.0000 0.82230  0.02840  0.85253  Biso   1.000  H
  H43      1.0000 0.20610  0.02840  0.64747  Biso   1.000  H
  H44      1.0000 0.82230  0.79390  0.98080  Biso   1.000  H
  H45      1.0000 0.97160  0.17770  0.31413  Biso   1.000  H
  H46      1.0000 0.79390  0.97160  0.14747  Biso   1.000  H
  H47      1.0000 0.17770  0.20610  0.48080  Biso   1.000  H
  H48      1.0000 0.02840  0.82230  0.81413  Biso   1.000  H
  O13      1.0000 0.54559  0.90598  0.12093  Biso   1.000  O
  O14      1.0000 0.09402  0.63961  0.78760  Biso   1.000  O
  O15      1.0000 0.36039  0.45441  0.45426  Biso   1.000  O
  O16      1.0000 0.45441  0.09402  0.62093  Biso   1.000  O
  O17      1.0000 0.90598  0.36039  0.28760  Biso   1.000  O
  O18      1.0000 0.63961  0.54559  0.95426  Biso   1.000  O
  O19      1.0000 0.90598  0.54559  0.54574  Biso   1.000  O
  O20      1.0000 0.63961  0.09402  0.87907  Biso   1.000  O
  O21      1.0000 0.45441  0.36039  0.21240  Biso   1.000  O
  O22      1.0000 0.09402  0.45441  0.04574  Biso   1.000  O
  O23      1.0000 0.36039  0.90598  0.37907  Biso   1.000  O
  O24      1.0000 0.54559  0.63961  0.71240  Biso   1.000  O
  O25      1.0000 0.58860  0.15301  0.08158  Biso   1.000  O
  O26      1.0000 0.84699  0.43559  0.74825  Biso   1.000  O
  O27      1.0000 0.56441  0.41140  0.41491  Biso   1.000  O
  O28      1.0000 0.41140  0.84699  0.58158  Biso   1.000  O
  O29      1.0000 0.15301  0.56441  0.24825  Biso   1.000  O
  O30      1.0000 0.43559  0.58860  0.91491  Biso   1.000  O
  O31      1.0000 0.15301  0.58860  0.58509  Biso   1.000  O
  O32      1.0000 0.43559  0.84699  0.91842  Biso   1.000  O
  O33      1.0000 0.41140  0.56441  0.25175  Biso   1.000  O
  O34      1.0000 0.84699  0.41140  0.08509  Biso   1.000  O
  O35      1.0000 0.56441  0.15301  0.41842  Biso   1.000  O
  O36      1.0000 0.58860  0.43559  0.75175  Biso   1.000  O
  H49      1.0000 0.58480  0.08920  0.10200  Biso   1.000  H
  H50      1.0000 0.91080  0.49560  0.76867  Biso   1.000  H
  H51      1.0000 0.50440  0.41520  0.43533  Biso   1.000  H
  H52      1.0000 0.41520  0.91080  0.60200  Biso   1.000  H
  H53      1.0000 0.08920  0.50440  0.26867  Biso   1.000  H
  H54      1.0000 0.49560  0.58480  0.93533  Biso   1.000  H
  H55      1.0000 0.08920  0.58480  0.56467  Biso   1.000  H
  H56      1.0000 0.49560  0.91080  0.89800  Biso   1.000  H
  H57      1.0000 0.41520  0.50440  0.23133  Biso   1.000  H
  H58      1.0000 0.91080  0.41520  0.06467  Biso   1.000  H
  H59      1.0000 0.50440  0.08920  0.39800  Biso   1.000  H
  H60      1.0000 0.58480  0.49560  0.73133  Biso   1.000  H
  H61      1.0000 0.66690  0.22700  0.08630  Biso   1.000  H
  H62      1.0000 0.77300  0.43990  0.75297  Biso   1.000  H
  H63      1.0000 0.56010  0.33310  0.41963  Biso   1.000  H
  H64      1.0000 0.33310  0.77300  0.58630  Biso   1.000  H
  H65      1.0000 0.22700  0.56010  0.25297  Biso   1.000  H
  H66      1.0000 0.43990  0.66690  0.91963  Biso   1.000  H
  H67      1.0000 0.22700  0.66690  0.58037  Biso   1.000  H
  H68      1.0000 0.43990  0.77300  0.91370  Biso   1.000  H
  H69      1.0000 0.33310  0.56010  0.24703  Biso   1.000  H
  H70      1.0000 0.77300  0.33310  0.08037  Biso   1.000  H
  H71      1.0000 0.56010  0.22700  0.41370  Biso   1.000  H
  H72      1.0000 0.66690  0.43990  0.74703  Biso   1.000  H
  C43      1.0000 0.47740  0.80980  0.08752  Biso   1.000  C
  C44      1.0000 0.19020  0.66760  0.75419  Biso   1.000  C
  C45      1.0000 0.33240  0.52260  0.42085  Biso   1.000  C
  C46      1.0000 0.52260  0.19020  0.58752  Biso   1.000  C
  C47      1.0000 0.80980  0.33240  0.25419  Biso   1.000  C
  C48      1.0000 0.66760  0.47740  0.92085  Biso   1.000  C
  C49      1.0000 0.80980  0.47740  0.57915  Biso   1.000  C
  C50      1.0000 0.66760  0.19020  0.91248  Biso   1.000  C
  C51      1.0000 0.52260  0.33240  0.24581  Biso   1.000  C
  C52      1.0000 0.19020  0.52260  0.07915  Biso   1.000  C
  C53      1.0000 0.33240  0.80980  0.41248  Biso   1.000  C
  C54      1.0000 0.47740  0.66760  0.74581  Biso   1.000  C
  C55      1.0000 0.08340  0.00000  0.00000  Biso   1.000  C
  C56      1.0000 0.00000  0.08340  0.66667  Biso   1.000  C
  C57      1.0000 0.91660  0.91660  0.33333  Biso   1.000  C
  C58      1.0000 0.91660  0.00000  0.50000  Biso   1.000  C
  C59      1.0000 1.00000  0.91660  0.16667  Biso   1.000  C
  C60      1.0000 0.08340  0.08340  0.83333  Biso   1.000  C
  C61      1.0000 0.08800  0.87800  0.00907  Biso   1.000  C
  C62      1.0000 0.12200  0.21000  0.67574  Biso   1.000  C
  C63      1.0000 0.79000  0.91200  0.34240  Biso   1.000  C
  C64      1.0000 0.91200  0.12200  0.50907  Biso   1.000  C
  C65      1.0000 0.87800  0.79000  0.17574  Biso   1.000  C
  C66      1.0000 0.21000  0.08800  0.84240  Biso   1.000  C
  C67      1.0000 0.87800  0.08800  0.65760  Biso   1.000  C
  C68      1.0000 0.21000  0.12200  0.99093  Biso   1.000  C
  C69      1.0000 0.91200  0.79000  0.32426  Biso   1.000  C
  C70      1.0000 0.12200  0.91200  0.15760  Biso   1.000  C
  C71      1.0000 0.79000  0.87800  0.49093  Biso   1.000  C
  C72      1.0000 0.08800  0.21000  0.82426  Biso   1.000  C
  H73      1.0000 0.00420  0.79240  0.01580  Biso   1.000  H
  H74      1.0000 0.20760  0.21180  0.68247  Biso   1.000  H
  H75      1.0000 0.78820  0.99580  0.34913  Biso   1.000  H
  H76      1.0000 0.99580  0.20760  0.51580  Biso   1.000  H
  H77      1.0000 0.79240  0.78820  0.18247  Biso   1.000  H
  H78      1.0000 0.21180  0.00420  0.84913  Biso   1.000  H
  H79      1.0000 0.79240  0.00420  0.65087  Biso   1.000  H
  H80      1.0000 0.21180  0.20760  0.98420  Biso   1.000  H
  H81      1.0000 0.99580  0.78820  0.31753  Biso   1.000  H
  H82      1.0000 0.20760  0.99580  0.15087  Biso   1.000  H
  H83      1.0000 0.78820  0.79240  0.48420  Biso   1.000  H
  H84      1.0000 0.00420  0.21180  0.81753  Biso   1.000  H
  C73      1.0000 0.21450  0.88190  0.00830  Biso   1.000  C
  C74      1.0000 0.11810  0.33260  0.67497  Biso   1.000  C
  C75      1.0000 0.66740  0.78550  0.34163  Biso   1.000  C
  C76      1.0000 0.78550  0.11810  0.50830  Biso   1.000  C
  C77      1.0000 0.88190  0.66740  0.17497  Biso   1.000  C
  C78      1.0000 0.33260  0.21450  0.84163  Biso   1.000  C
  C79      1.0000 0.88190  0.21450  0.65837  Biso   1.000  C
  C80      1.0000 0.33260  0.11810  0.99170  Biso   1.000  C
  C81      1.0000 0.78550  0.66740  0.32503  Biso   1.000  C
  C82      1.0000 0.11810  0.78550  0.15837  Biso   1.000  C
  C83      1.0000 0.66740  0.88190  0.49170  Biso   1.000  C
  C84      1.0000 0.21450  0.33260  0.82503  Biso   1.000  C
  H85      1.0000 0.21570  0.79740  0.01390  Biso   1.000  H
  H86      1.0000 0.20260  0.41830  0.68057  Biso   1.000  H
  H87      1.0000 0.58170  0.78430  0.34723  Biso   1.000  H
  H88      1.0000 0.78430  0.20260  0.51390  Biso   1.000  H
  H89      1.0000 0.79740  0.58170  0.18057  Biso   1.000  H
  H90      1.0000 0.41830  0.21570  0.84723  Biso   1.000  H
  H91      1.0000 0.79740  0.21570  0.65277  Biso   1.000  H
  H92      1.0000 0.41830  0.20260  0.98610  Biso   1.000  H
  H93      1.0000 0.78430  0.58170  0.31943  Biso   1.000  H
  H94      1.0000 0.20260  0.78430  0.15277  Biso   1.000  H
  H95      1.0000 0.58170  0.79740  0.48610  Biso   1.000  H
  H96      1.0000 0.21570  0.41830  0.81943  Biso   1.000  H
  O37      1.0000 0.54510  0.85040  0.22994  Biso   1.000  O
  O38      1.0000 0.14960  0.69470  0.89661  Biso   1.000  O
  O39      1.0000 0.30530  0.45490  0.56327  Biso   1.000  O
  O40      1.0000 0.45490  0.14960  0.72994  Biso   1.000  O
  O41      1.0000 0.85040  0.30530  0.39661  Biso   1.000  O
  O42      1.0000 0.69470  0.54510  0.06327  Biso   1.000  O
  O43      1.0000 0.85040  0.54510  0.43673  Biso   1.000  O
  O44      1.0000 0.69470  0.14960  0.77006  Biso   1.000  O
  O45      1.0000 0.45490  0.30530  0.10339  Biso   1.000  O
  O46      1.0000 0.14960  0.45490  0.93673  Biso   1.000  O
  O47      1.0000 0.30530  0.85040  0.27006  Biso   1.000  O
  O48      1.0000 0.54510  0.69470  0.60339  Biso   1.000  O
  H97      1.0000 0.55830  0.86590  0.19610  Biso   1.000  H
  H98      1.0000 0.13410  0.69240  0.86277  Biso   1.000  H
  H99      1.0000 0.30760  0.44170  0.52943  Biso   1.000  H
  H100     1.0000 0.44170  0.13410  0.69610  Biso   1.000  H
  H101     1.0000 0.86590  0.30760  0.36277  Biso   1.000  H
  H102     1.0000 0.69240  0.55830  0.02943  Biso   1.000  H
  H103     1.0000 0.86590  0.55830  0.47057  Biso   1.000  H
  H104     1.0000 0.69240  0.13410  0.80390  Biso   1.000  H
  H105     1.0000 0.44170  0.30760  0.13723  Biso   1.000  H
  H106     1.0000 0.13410  0.44170  0.97057  Biso   1.000  H
  H107     1.0000 0.30760  0.86590  0.30390  Biso   1.000  H
  H108     1.0000 0.55830  0.69240  0.63723  Biso   1.000  H
  H109     1.0000 0.46220  0.83110  0.23730  Biso   1.000  H
  H110     1.0000 0.16890  0.63110  0.90397  Biso   1.000  H
  H111     1.0000 0.36890  0.53780  0.57063  Biso   1.000  H
  H112     1.0000 0.53780  0.16890  0.73730  Biso   1.000  H
  H113     1.0000 0.83110  0.36890  0.40397  Biso   1.000  H
  H114     1.0000 0.63110  0.46220  0.07063  Biso   1.000  H
  H115     1.0000 0.83110  0.46220  0.42937  Biso   1.000  H
  H116     1.0000 0.63110  0.16890  0.76270  Biso   1.000  H
  H117     1.0000 0.53780  0.36890  0.09603  Biso   1.000  H
  H118     1.0000 0.16890  0.53780  0.92937  Biso   1.000  H
  H119     1.0000 0.36890  0.83110  0.26270  Biso   1.000  H
  H120     1.0000 0.46220  0.63110  0.59603  Biso   1.000  H
