data_image0
_cell_length_a       10.9274
_cell_length_b       10.9274
_cell_length_c       24.503
_cell_angle_alpha    90
_cell_angle_beta     90
_cell_angle_gamma    120

_symmetry_space_group_name_H-M    "P 1"
_symmetry_int_tables_number       1

loop_
  _symmetry_equiv_pos_as_xyz
  'x, y, z'

loop_
  _atom_site_label
  _atom_site_occupancy
  _atom_site_fract_x
  _atom_site_fract_y
  _atom_site_fract_z
  _atom_site_thermal_displace_type
  _atom_site_B_iso_or_equiv
  _atom_site_type_symbol
  Cu1      1.0000 0.00000  0.51508  0.66670  Biso   1.000  Cu
  Cu2      1.0000 0.48492  0.48492  0.33337  Biso   1.000  Cu
  Cu3      1.0000 0.51508  0.00000  0.00003  Biso   1.000  Cu
  Cu4      1.0000 0.00000  0.48492  0.16670  Biso   1.000  Cu
  Cu5      1.0000 0.51508  0.51508  0.83337  Biso   1.000  Cu
  Cu6      1.0000 0.48492  0.00000  0.50003  Biso   1.000  Cu
  N1       1.0000 0.00000  0.33510  0.66670  Biso   1.000  N
  N2       1.0000 0.66490  0.66490  0.33337  Biso   1.000  N
  N3       1.0000 0.33510  0.00000  0.00003  Biso   1.000  N
  N4       1.0000 0.00000  0.66490  0.16670  Biso   1.000  N
  N5       1.0000 0.33510  0.33510  0.83337  Biso   1.000  N
  N6       1.0000 0.66490  0.00000  0.50003  Biso   1.000  N
  N7       1.0000 0.00000  0.69670  0.66670  Biso   1.000  N
  N8       1.0000 0.30330  0.30330  0.33337  Biso   1.000  N
  N9       1.0000 0.69670  0.00000  0.00003  Biso   1.000  N
  N10      1.0000 0.00000  0.30330  0.16670  Biso   1.000  N
  N11      1.0000 0.69670  0.69670  0.83337  Biso   1.000  N
  N12      1.0000 0.30330  0.00000  0.50003  Biso   1.000  N
  C1       1.0000 0.88300  0.70110  0.67661  Biso   1.000  C
  C2       1.0000 0.29890  0.18190  0.34328  Biso   1.000  C
  C3       1.0000 0.81810  0.11700  0.00994  Biso   1.000  C
  C4       1.0000 0.11700  0.29890  0.17661  Biso   1.000  C
  C5       1.0000 0.70110  0.81810  0.84328  Biso   1.000  C
  C6       1.0000 0.18190  0.88300  0.50994  Biso   1.000  C
  C7       1.0000 0.70110  0.88300  0.99006  Biso   1.000  C
  C8       1.0000 0.18190  0.29890  0.32339  Biso   1.000  C
  C9       1.0000 0.11700  0.81810  0.65672  Biso   1.000  C
  C10      1.0000 0.29890  0.11700  0.49006  Biso   1.000  C
  C11      1.0000 0.81810  0.70110  0.82339  Biso   1.000  C
  C12      1.0000 0.88300  0.18190  0.15672  Biso   1.000  C
  H1       1.0000 0.79880  0.61590  0.68330  Biso   1.000  H
  H2       1.0000 0.38410  0.18290  0.34997  Biso   1.000  H
  H3       1.0000 0.81710  0.20120  0.01663  Biso   1.000  H
  H4       1.0000 0.20120  0.38410  0.18330  Biso   1.000  H
  H5       1.0000 0.61590  0.81710  0.84997  Biso   1.000  H
  H6       1.0000 0.18290  0.79880  0.51663  Biso   1.000  H
  H7       1.0000 0.61590  0.79880  0.98337  Biso   1.000  H
  H8       1.0000 0.18290  0.38410  0.31670  Biso   1.000  H
  H9       1.0000 0.20120  0.81710  0.65003  Biso   1.000  H
  H10      1.0000 0.38410  0.20120  0.48337  Biso   1.000  H
  H11      1.0000 0.81710  0.61590  0.81670  Biso   1.000  H
  H12      1.0000 0.79880  0.18290  0.15003  Biso   1.000  H
  C13      1.0000 0.00000  0.08240  0.66670  Biso   1.000  C
  C14      1.0000 0.91760  0.91760  0.33337  Biso   1.000  C
  C15      1.0000 0.08240  0.00000  0.00003  Biso   1.000  C
  C16      1.0000 0.00000  0.91760  0.16670  Biso   1.000  C
  C17      1.0000 0.08240  0.08240  0.83337  Biso   1.000  C
  C18      1.0000 0.91760  0.00000  0.50003  Biso   1.000  C
  O1       1.0000 0.90540  0.54240  0.54620  Biso   1.000  O
  O2       1.0000 0.45760  0.36300  0.21287  Biso   1.000  O
  O3       1.0000 0.63700  0.09460  0.87953  Biso   1.000  O
  O4       1.0000 0.09460  0.45760  0.04620  Biso   1.000  O
  O5       1.0000 0.54240  0.63700  0.71287  Biso   1.000  O
  O6       1.0000 0.36300  0.90540  0.37953  Biso   1.000  O
  O7       1.0000 0.54240  0.90540  0.12047  Biso   1.000  O
  O8       1.0000 0.36300  0.45760  0.45380  Biso   1.000  O
  O9       1.0000 0.09460  0.63700  0.78713  Biso   1.000  O
  O10      1.0000 0.45760  0.09460  0.62047  Biso   1.000  O
  O11      1.0000 0.63700  0.54240  0.95380  Biso   1.000  O
  O12      1.0000 0.90540  0.36300  0.28713  Biso   1.000  O
  O13      1.0000 0.82690  0.43300  0.62432  Biso   1.000  O
  O14      1.0000 0.56700  0.39390  0.29099  Biso   1.000  O
  O15      1.0000 0.60610  0.17310  0.95765  Biso   1.000  O
  O16      1.0000 0.17310  0.56700  0.12432  Biso   1.000  O
  O17      1.0000 0.43300  0.60610  0.79099  Biso   1.000  O
  O18      1.0000 0.39390  0.82690  0.45765  Biso   1.000  O
  O19      1.0000 0.43300  0.82690  0.04235  Biso   1.000  O
  O20      1.0000 0.39390  0.56700  0.37568  Biso   1.000  O
  O21      1.0000 0.17310  0.60610  0.70901  Biso   1.000  O
  O22      1.0000 0.56700  0.17310  0.54235  Biso   1.000  O
  O23      1.0000 0.60610  0.43300  0.87568  Biso   1.000  O
  O24      1.0000 0.82690  0.39390  0.20901  Biso   1.000  O
  C19      1.0000 0.11760  0.33170  0.67453  Biso   1.000  C
  C20      1.0000 0.66830  0.78590  0.34120  Biso   1.000  C
  C21      1.0000 0.21410  0.88240  0.00786  Biso   1.000  C
  C22      1.0000 0.88240  0.66830  0.17453  Biso   1.000  C
  C23      1.0000 0.33170  0.21410  0.84120  Biso   1.000  C
  C24      1.0000 0.78590  0.11760  0.50786  Biso   1.000  C
  C25      1.0000 0.33170  0.11760  0.99214  Biso   1.000  C
  C26      1.0000 0.78590  0.66830  0.32547  Biso   1.000  C
  C27      1.0000 0.88240  0.21410  0.65880  Biso   1.000  C
  C28      1.0000 0.66830  0.88240  0.49214  Biso   1.000  C
  C29      1.0000 0.21410  0.33170  0.82547  Biso   1.000  C
  C30      1.0000 0.11760  0.78590  0.15880  Biso   1.000  C
  H13      1.0000 0.20220  0.41740  0.68000  Biso   1.000  H
  H14      1.0000 0.58260  0.78480  0.34667  Biso   1.000  H
  H15      1.0000 0.21520  0.79780  0.01333  Biso   1.000  H
  H16      1.0000 0.79780  0.58260  0.18000  Biso   1.000  H
  H17      1.0000 0.41740  0.21520  0.84667  Biso   1.000  H
  H18      1.0000 0.78480  0.20220  0.51333  Biso   1.000  H
  H19      1.0000 0.41740  0.20220  0.98667  Biso   1.000  H
  H20      1.0000 0.78480  0.58260  0.32000  Biso   1.000  H
  H21      1.0000 0.79780  0.21520  0.65333  Biso   1.000  H
  H22      1.0000 0.58260  0.79780  0.48667  Biso   1.000  H
  H23      1.0000 0.21520  0.41740  0.82000  Biso   1.000  H
  H24      1.0000 0.20220  0.78480  0.15333  Biso   1.000  H
  C31      1.0000 0.87970  0.82410  0.67756  Biso   1.000  C
  C32      1.0000 0.17590  0.05560  0.34423  Biso   1.000  C
  C33      1.0000 0.94440  0.12030  0.01089  Biso   1.000  C
  C34      1.0000 0.12030  0.17590  0.17756  Biso   1.000  C
  C35      1.0000 0.82410  0.94440  0.84423  Biso   1.000  C
  C36      1.0000 0.05560  0.87970  0.51089  Biso   1.000  C
  C37      1.0000 0.82410  0.87970  0.98911  Biso   1.000  C
  C38      1.0000 0.05560  0.17590  0.32244  Biso   1.000  C
  C39      1.0000 0.12030  0.94440  0.65577  Biso   1.000  C
  C40      1.0000 0.17590  0.12030  0.48911  Biso   1.000  C
  C41      1.0000 0.94440  0.82410  0.82244  Biso   1.000  C
  C42      1.0000 0.87970  0.05560  0.15577  Biso   1.000  C
  H25      1.0000 0.79500  0.82270  0.68570  Biso   1.000  H
  H26      1.0000 0.17730  0.97230  0.35237  Biso   1.000  H
  H27      1.0000 0.02770  0.20500  0.01903  Biso   1.000  H
  H28      1.0000 0.20500  0.17730  0.18570  Biso   1.000  H
  H29      1.0000 0.82270  0.02770  0.85237  Biso   1.000  H
  H30      1.0000 0.97230  0.79500  0.51903  Biso   1.000  H
  H31      1.0000 0.82270  0.79500  0.98097  Biso   1.000  H
  H32      1.0000 0.97230  0.17730  0.31430  Biso   1.000  H
  H33      1.0000 0.20500  0.02770  0.64763  Biso   1.000  H
  H34      1.0000 0.17730  0.20500  0.48097  Biso   1.000  H
  H35      1.0000 0.02770  0.82270  0.81430  Biso   1.000  H
  H36      1.0000 0.79500  0.97230  0.14763  Biso   1.000  H
  C43      1.0000 0.12170  0.20920  0.67510  Biso   1.000  C
  C44      1.0000 0.79080  0.91250  0.34177  Biso   1.000  C
  C45      1.0000 0.08750  0.87830  0.00843  Biso   1.000  C
  C46      1.0000 0.87830  0.79080  0.17510  Biso   1.000  C
  C47      1.0000 0.20920  0.08750  0.84177  Biso   1.000  C
  C48      1.0000 0.91250  0.12170  0.50843  Biso   1.000  C
  C49      1.0000 0.20920  0.12170  0.99157  Biso   1.000  C
  C50      1.0000 0.91250  0.79080  0.32490  Biso   1.000  C
  C51      1.0000 0.87830  0.08750  0.65823  Biso   1.000  C
  C52      1.0000 0.79080  0.87830  0.49157  Biso   1.000  C
  C53      1.0000 0.08750  0.20920  0.82490  Biso   1.000  C
  C54      1.0000 0.12170  0.91250  0.15823  Biso   1.000  C
  H37      1.0000 0.20760  0.21130  0.68130  Biso   1.000  H
  H38      1.0000 0.78870  0.99630  0.34797  Biso   1.000  H
  H39      1.0000 0.00370  0.79240  0.01463  Biso   1.000  H
  H40      1.0000 0.79240  0.78870  0.18130  Biso   1.000  H
  H41      1.0000 0.21130  0.00370  0.84797  Biso   1.000  H
  H42      1.0000 0.99630  0.20760  0.51463  Biso   1.000  H
  H43      1.0000 0.21130  0.20760  0.98537  Biso   1.000  H
  H44      1.0000 0.99630  0.78870  0.31870  Biso   1.000  H
  H45      1.0000 0.79240  0.00370  0.65203  Biso   1.000  H
  H46      1.0000 0.78870  0.79240  0.48537  Biso   1.000  H
  H47      1.0000 0.00370  0.21130  0.81870  Biso   1.000  H
  H48      1.0000 0.20760  0.99630  0.15203  Biso   1.000  H
  O25      1.0000 0.15430  0.58850  0.58499  Biso   1.000  O
  O26      1.0000 0.41150  0.56580  0.25166  Biso   1.000  O
  O27      1.0000 0.43420  0.84570  0.91832  Biso   1.000  O
  O28      1.0000 0.84570  0.41150  0.08499  Biso   1.000  O
  O29      1.0000 0.58850  0.43420  0.75166  Biso   1.000  O
  O30      1.0000 0.56580  0.15430  0.41832  Biso   1.000  O
  O31      1.0000 0.58850  0.15430  0.08168  Biso   1.000  O
  O32      1.0000 0.56580  0.41150  0.41501  Biso   1.000  O
  O33      1.0000 0.84570  0.43420  0.74834  Biso   1.000  O
  O34      1.0000 0.41150  0.84570  0.58168  Biso   1.000  O
  O35      1.0000 0.43420  0.58850  0.91501  Biso   1.000  O
  O36      1.0000 0.15430  0.56580  0.24834  Biso   1.000  O
  H49      1.0000 0.21600  0.58300  0.56570  Biso   1.000  H
  H50      1.0000 0.41700  0.63300  0.23237  Biso   1.000  H
  H51      1.0000 0.36700  0.78400  0.89903  Biso   1.000  H
  H52      1.0000 0.78400  0.41700  0.06570  Biso   1.000  H
  H53      1.0000 0.58300  0.36700  0.73237  Biso   1.000  H
  H54      1.0000 0.63300  0.21600  0.39903  Biso   1.000  H
  H55      1.0000 0.58300  0.21600  0.10097  Biso   1.000  H
  H56      1.0000 0.63300  0.41700  0.43430  Biso   1.000  H
  H57      1.0000 0.78400  0.36700  0.76763  Biso   1.000  H
  H58      1.0000 0.41700  0.78400  0.60097  Biso   1.000  H
  H59      1.0000 0.36700  0.58300  0.93430  Biso   1.000  H
  H60      1.0000 0.21600  0.63300  0.26763  Biso   1.000  H
  H61      1.0000 0.08750  0.57830  0.56430  Biso   1.000  H
  H62      1.0000 0.42170  0.50920  0.23097  Biso   1.000  H
  H63      1.0000 0.49080  0.91250  0.89763  Biso   1.000  H
  H64      1.0000 0.91250  0.42170  0.06430  Biso   1.000  H
  H65      1.0000 0.57830  0.49080  0.73097  Biso   1.000  H
  H66      1.0000 0.50920  0.08750  0.39763  Biso   1.000  H
  H67      1.0000 0.57830  0.08750  0.10237  Biso   1.000  H
  H68      1.0000 0.50920  0.42170  0.43570  Biso   1.000  H
  H69      1.0000 0.91250  0.49080  0.76903  Biso   1.000  H
  H70      1.0000 0.42170  0.91250  0.60237  Biso   1.000  H
  H71      1.0000 0.49080  0.57830  0.93570  Biso   1.000  H
  H72      1.0000 0.08750  0.50920  0.26903  Biso   1.000  H
  O37      1.0000 0.85320  0.54670  0.43822  Biso   1.000  O
  O38      1.0000 0.45330  0.30650  0.10489  Biso   1.000  O
  O39      1.0000 0.69350  0.14680  0.77155  Biso   1.000  O
  O40      1.0000 0.14680  0.45330  0.93822  Biso   1.000  O
  O41      1.0000 0.54670  0.69350  0.60489  Biso   1.000  O
  O42      1.0000 0.30650  0.85320  0.27155  Biso   1.000  O
  O43      1.0000 0.54670  0.85320  0.22845  Biso   1.000  O
  O44      1.0000 0.30650  0.45330  0.56178  Biso   1.000  O
  O45      1.0000 0.14680  0.69350  0.89511  Biso   1.000  O
  O46      1.0000 0.45330  0.14680  0.72845  Biso   1.000  O
  O47      1.0000 0.69350  0.54670  0.06178  Biso   1.000  O
  O48      1.0000 0.85320  0.30650  0.39511  Biso   1.000  O
  H73      1.0000 0.85180  0.50150  0.46670  Biso   1.000  H
  H74      1.0000 0.49850  0.35030  0.13337  Biso   1.000  H
  H75      1.0000 0.64970  0.14820  0.80003  Biso   1.000  H
  H76      1.0000 0.14820  0.49850  0.96670  Biso   1.000  H
  H77      1.0000 0.50150  0.64970  0.63337  Biso   1.000  H
  H78      1.0000 0.35030  0.85180  0.30003  Biso   1.000  H
  H79      1.0000 0.50150  0.85180  0.19997  Biso   1.000  H
  H80      1.0000 0.35030  0.49850  0.53330  Biso   1.000  H
  H81      1.0000 0.14820  0.64970  0.86663  Biso   1.000  H
  H82      1.0000 0.49850  0.14820  0.69997  Biso   1.000  H
  H83      1.0000 0.64970  0.50150  0.03330  Biso   1.000  H
  H84      1.0000 0.85180  0.35030  0.36663  Biso   1.000  H
  H85      1.0000 0.84340  0.49640  0.41030  Biso   1.000  H
  H86      1.0000 0.50360  0.34700  0.07697  Biso   1.000  H
  H87      1.0000 0.65300  0.15660  0.74363  Biso   1.000  H
  H88      1.0000 0.15660  0.50360  0.91030  Biso   1.000  H
  H89      1.0000 0.49640  0.65300  0.57697  Biso   1.000  H
  H90      1.0000 0.34700  0.84340  0.24363  Biso   1.000  H
  H91      1.0000 0.49640  0.84340  0.25637  Biso   1.000  H
  H92      1.0000 0.34700  0.50360  0.58970  Biso   1.000  H
  H93      1.0000 0.15660  0.65300  0.92303  Biso   1.000  H
  H94      1.0000 0.50360  0.15660  0.75637  Biso   1.000  H
  H95      1.0000 0.65300  0.49640  0.08970  Biso   1.000  H
  H96      1.0000 0.84340  0.34700  0.42303  Biso   1.000  H
  C55      1.0000 0.66520  0.44900  0.56708  Biso   1.000  C
  C56      1.0000 0.55100  0.21620  0.23375  Biso   1.000  C
  C57      1.0000 0.78380  0.33480  0.90041  Biso   1.000  C
  C58      1.0000 0.33480  0.55100  0.06708  Biso   1.000  C
  C59      1.0000 0.44900  0.78380  0.73375  Biso   1.000  C
  C60      1.0000 0.21620  0.66520  0.40041  Biso   1.000  C
  C61      1.0000 0.44900  0.66520  0.09959  Biso   1.000  C
  C62      1.0000 0.21620  0.55100  0.43292  Biso   1.000  C
  C63      1.0000 0.33480  0.78380  0.76625  Biso   1.000  C
  C64      1.0000 0.55100  0.33480  0.59959  Biso   1.000  C
  C65      1.0000 0.78380  0.44900  0.93292  Biso   1.000  C
  C66      1.0000 0.66520  0.21620  0.26625  Biso   1.000  C
  H97      1.0000 0.66290  0.53640  0.57330  Biso   1.000  H
  H98      1.0000 0.46360  0.12650  0.23997  Biso   1.000  H
  H99      1.0000 0.87350  0.33710  0.90663  Biso   1.000  H
  H100     1.0000 0.33710  0.46360  0.07330  Biso   1.000  H
  H101     1.0000 0.53640  0.87350  0.73997  Biso   1.000  H
  H102     1.0000 0.12650  0.66290  0.40663  Biso   1.000  H
  H103     1.0000 0.53640  0.66290  0.09337  Biso   1.000  H
  H104     1.0000 0.12650  0.46360  0.42670  Biso   1.000  H
  H105     1.0000 0.33710  0.87350  0.76003  Biso   1.000  H
  H106     1.0000 0.46360  0.33710  0.59337  Biso   1.000  H
  H107     1.0000 0.87350  0.53640  0.92670  Biso   1.000  H
  H108     1.0000 0.66290  0.12650  0.26003  Biso   1.000  H
  H109     1.0000 0.64550  0.42510  0.52830  Biso   1.000  H
  H110     1.0000 0.57490  0.22040  0.19497  Biso   1.000  H
  H111     1.0000 0.77960  0.35450  0.86163  Biso   1.000  H
  H112     1.0000 0.35450  0.57490  0.02830  Biso   1.000  H
  H113     1.0000 0.42510  0.77960  0.69497  Biso   1.000  H
  H114     1.0000 0.22040  0.64550  0.36163  Biso   1.000  H
  H115     1.0000 0.42510  0.64550  0.13837  Biso   1.000  H
  H116     1.0000 0.22040  0.57490  0.47170  Biso   1.000  H
  H117     1.0000 0.35450  0.77960  0.80503  Biso   1.000  H
  H118     1.0000 0.57490  0.35450  0.63837  Biso   1.000  H
  H119     1.0000 0.77960  0.42510  0.97170  Biso   1.000  H
  H120     1.0000 0.64550  0.22040  0.30503  Biso   1.000  H
  C67      1.0000 0.81010  0.47640  0.57922  Biso   1.000  C
  C68      1.0000 0.52360  0.33370  0.24589  Biso   1.000  C
  C69      1.0000 0.66630  0.18990  0.91255  Biso   1.000  C
  C70      1.0000 0.18990  0.52360  0.07922  Biso   1.000  C
  C71      1.0000 0.47640  0.66630  0.74589  Biso   1.000  C
  C72      1.0000 0.33370  0.81010  0.41255  Biso   1.000  C
  C73      1.0000 0.47640  0.81010  0.08745  Biso   1.000  C
  C74      1.0000 0.33370  0.52360  0.42078  Biso   1.000  C
  C75      1.0000 0.18990  0.66630  0.75411  Biso   1.000  C
  C76      1.0000 0.52360  0.18990  0.58745  Biso   1.000  C
  C77      1.0000 0.66630  0.47640  0.92078  Biso   1.000  C
  C78      1.0000 0.81010  0.33370  0.25411  Biso   1.000  C
  C79      1.0000 0.00000  0.94990  0.66670  Biso   1.000  C
  C80      1.0000 0.05010  0.05010  0.33337  Biso   1.000  C
  C81      1.0000 0.94990  0.00000  0.00003  Biso   1.000  C
  C82      1.0000 0.00000  0.05010  0.16670  Biso   1.000  C
  C83      1.0000 0.94990  0.94990  0.83337  Biso   1.000  C
  C84      1.0000 0.05010  0.00000  0.50003  Biso   1.000  C
