data_image0
_cell_length_a       11.07
_cell_length_b       11.07
_cell_length_c       24.947
_cell_angle_alpha    90
_cell_angle_beta     90
_cell_angle_gamma    120

_symmetry_space_group_name_H-M    "P 1"
_symmetry_int_tables_number       1

loop_
  _symmetry_equiv_pos_as_xyz
  'x, y, z'

loop_
  _atom_site_label
  _atom_site_occupancy
  _atom_site_fract_x
  _atom_site_fract_y
  _atom_site_fract_z
  _atom_site_thermal_displace_type
  _atom_site_B_iso_or_equiv
  _atom_site_type_symbol
  Cu1      1.0000 0.51456  0.00000  0.00000  Biso   1.000  Cu
  Cu2      1.0000 0.00000  0.51456  0.66667  Biso   1.000  Cu
  Cu3      1.0000 0.48544  0.48544  0.33333  Biso   1.000  Cu
  Cu4      1.0000 0.48544  0.00000  0.50000  Biso   1.000  Cu
  Cu5      1.0000 0.00000  0.48544  0.16667  Biso   1.000  Cu
  Cu6      1.0000 0.51456  0.51456  0.83333  Biso   1.000  Cu
  C1       1.0000 0.70070  0.88360  0.99007  Biso   1.000  C
  C2       1.0000 0.11640  0.81710  0.65674  Biso   1.000  C
  C3       1.0000 0.18290  0.29930  0.32340  Biso   1.000  C
  C4       1.0000 0.29930  0.11640  0.49007  Biso   1.000  C
  C5       1.0000 0.88360  0.18290  0.15674  Biso   1.000  C
  C6       1.0000 0.81710  0.70070  0.82340  Biso   1.000  C
  C7       1.0000 0.88360  0.70070  0.67660  Biso   1.000  C
  C8       1.0000 0.81710  0.11640  0.00993  Biso   1.000  C
  C9       1.0000 0.29930  0.18290  0.34326  Biso   1.000  C
  C10      1.0000 0.11640  0.29930  0.17660  Biso   1.000  C
  C11      1.0000 0.18290  0.88360  0.50993  Biso   1.000  C
  C12      1.0000 0.70070  0.81710  0.84326  Biso   1.000  C
  H1       1.0000 0.61720  0.80170  0.98350  Biso   1.000  H
  H2       1.0000 0.19830  0.81550  0.65017  Biso   1.000  H
  H3       1.0000 0.18450  0.38280  0.31683  Biso   1.000  H
  H4       1.0000 0.38280  0.19830  0.48350  Biso   1.000  H
  H5       1.0000 0.80170  0.18450  0.15017  Biso   1.000  H
  H6       1.0000 0.81550  0.61720  0.81683  Biso   1.000  H
  H7       1.0000 0.80170  0.61720  0.68317  Biso   1.000  H
  H8       1.0000 0.81550  0.19830  0.01650  Biso   1.000  H
  H9       1.0000 0.38280  0.18450  0.34983  Biso   1.000  H
  H10      1.0000 0.19830  0.38280  0.18317  Biso   1.000  H
  H11      1.0000 0.18450  0.80170  0.51650  Biso   1.000  H
  H12      1.0000 0.61720  0.81550  0.84983  Biso   1.000  H
  N1       1.0000 0.69740  0.00000  0.00000  Biso   1.000  N
  N2       1.0000 0.00000  0.69740  0.66667  Biso   1.000  N
  N3       1.0000 0.30260  0.30260  0.33333  Biso   1.000  N
  N4       1.0000 0.30260  0.00000  0.50000  Biso   1.000  N
  N5       1.0000 0.00000  0.30260  0.16667  Biso   1.000  N
  N6       1.0000 0.69740  0.69740  0.83333  Biso   1.000  N
  O1       1.0000 0.43320  0.82820  0.04214  Biso   1.000  O
  O2       1.0000 0.17180  0.60500  0.70881  Biso   1.000  O
  O3       1.0000 0.39500  0.56680  0.37547  Biso   1.000  O
  O4       1.0000 0.56680  0.17180  0.54214  Biso   1.000  O
  O5       1.0000 0.82820  0.39500  0.20881  Biso   1.000  O
  O6       1.0000 0.60500  0.43320  0.87547  Biso   1.000  O
  O7       1.0000 0.82820  0.43320  0.62453  Biso   1.000  O
  O8       1.0000 0.60500  0.17180  0.95786  Biso   1.000  O
  O9       1.0000 0.56680  0.39500  0.29119  Biso   1.000  O
  O10      1.0000 0.17180  0.56680  0.12453  Biso   1.000  O
  O11      1.0000 0.39500  0.82820  0.45786  Biso   1.000  O
  O12      1.0000 0.43320  0.60500  0.79119  Biso   1.000  O
  C13      1.0000 0.82340  0.88010  0.98910  Biso   1.000  C
  C14      1.0000 0.11990  0.94330  0.65577  Biso   1.000  C
  C15      1.0000 0.05670  0.17660  0.32243  Biso   1.000  C
  C16      1.0000 0.17660  0.11990  0.48910  Biso   1.000  C
  C17      1.0000 0.88010  0.05670  0.15577  Biso   1.000  C
  C18      1.0000 0.94330  0.82340  0.82243  Biso   1.000  C
  C19      1.0000 0.88010  0.82340  0.67757  Biso   1.000  C
  C20      1.0000 0.94330  0.11990  0.01090  Biso   1.000  C
  C21      1.0000 0.17660  0.05670  0.34423  Biso   1.000  C
  C22      1.0000 0.11990  0.17660  0.17757  Biso   1.000  C
  C23      1.0000 0.05670  0.88010  0.51090  Biso   1.000  C
  C24      1.0000 0.82340  0.94330  0.84423  Biso   1.000  C
  H13      1.0000 0.82180  0.79730  0.98110  Biso   1.000  H
  H14      1.0000 0.20270  0.02450  0.64777  Biso   1.000  H
  H15      1.0000 0.97550  0.17820  0.31443  Biso   1.000  H
  H16      1.0000 0.17820  0.20270  0.48110  Biso   1.000  H
  H17      1.0000 0.79730  0.97550  0.14777  Biso   1.000  H
  H18      1.0000 0.02450  0.82180  0.81443  Biso   1.000  H
  H19      1.0000 0.79730  0.82180  0.68557  Biso   1.000  H
  H20      1.0000 0.02450  0.20270  0.01890  Biso   1.000  H
  H21      1.0000 0.17820  0.97550  0.35223  Biso   1.000  H
  H22      1.0000 0.20270  0.17820  0.18557  Biso   1.000  H
  H23      1.0000 0.97550  0.79730  0.51890  Biso   1.000  H
  H24      1.0000 0.82180  0.02450  0.85223  Biso   1.000  H
  O13      1.0000 0.14640  0.69160  0.89537  Biso   1.000  O
  O14      1.0000 0.30840  0.45480  0.56204  Biso   1.000  O
  O15      1.0000 0.54520  0.85360  0.22870  Biso   1.000  O
  O16      1.0000 0.85360  0.30840  0.39537  Biso   1.000  O
  O17      1.0000 0.69160  0.54520  0.06204  Biso   1.000  O
  O18      1.0000 0.45480  0.14640  0.72870  Biso   1.000  O
  O19      1.0000 0.69160  0.14640  0.77130  Biso   1.000  O
  O20      1.0000 0.45480  0.30840  0.10463  Biso   1.000  O
  O21      1.0000 0.85360  0.54520  0.43796  Biso   1.000  O
  O22      1.0000 0.30840  0.85360  0.27130  Biso   1.000  O
  O23      1.0000 0.54520  0.69160  0.60463  Biso   1.000  O
  O24      1.0000 0.14640  0.45480  0.93796  Biso   1.000  O
  H25      1.0000 0.06460  0.63240  0.88510  Biso   1.000  H
  H26      1.0000 0.36760  0.43220  0.55177  Biso   1.000  H
  H27      1.0000 0.56780  0.93540  0.21843  Biso   1.000  H
  H28      1.0000 0.93540  0.36760  0.38510  Biso   1.000  H
  H29      1.0000 0.63240  0.56780  0.05177  Biso   1.000  H
  H30      1.0000 0.43220  0.06460  0.71843  Biso   1.000  H
  H31      1.0000 0.63240  0.06460  0.78157  Biso   1.000  H
  H32      1.0000 0.43220  0.36760  0.11490  Biso   1.000  H
  H33      1.0000 0.93540  0.56780  0.44823  Biso   1.000  H
  H34      1.0000 0.36760  0.93540  0.28157  Biso   1.000  H
  H35      1.0000 0.56780  0.63240  0.61490  Biso   1.000  H
  H36      1.0000 0.06460  0.43220  0.94823  Biso   1.000  H
  H37      1.0000 0.19700  0.72120  0.86740  Biso   1.000  H
  H38      1.0000 0.27880  0.47580  0.53407  Biso   1.000  H
  H39      1.0000 0.52420  0.80300  0.20073  Biso   1.000  H
  H40      1.0000 0.80300  0.27880  0.36740  Biso   1.000  H
  H41      1.0000 0.72120  0.52420  0.03407  Biso   1.000  H
  H42      1.0000 0.47580  0.19700  0.70073  Biso   1.000  H
  H43      1.0000 0.72120  0.19700  0.79927  Biso   1.000  H
  H44      1.0000 0.47580  0.27880  0.13260  Biso   1.000  H
  H45      1.0000 0.80300  0.52420  0.46593  Biso   1.000  H
  H46      1.0000 0.27880  0.80300  0.29927  Biso   1.000  H
  H47      1.0000 0.52420  0.72120  0.63260  Biso   1.000  H
  H48      1.0000 0.19700  0.47580  0.96593  Biso   1.000  H
  C25      1.0000 0.94920  0.00000  0.00000  Biso   1.000  C
  C26      1.0000 1.00000  0.94920  0.66667  Biso   1.000  C
  C27      1.0000 0.05080  0.05080  0.33333  Biso   1.000  C
  C28      1.0000 0.05080  0.00000  0.50000  Biso   1.000  C
  C29      1.0000 0.00000  0.05080  0.16667  Biso   1.000  C
  C30      1.0000 0.94920  0.94920  0.83333  Biso   1.000  C
  O25      1.0000 0.58500  0.15420  0.08196  Biso   1.000  O
  O26      1.0000 0.84580  0.43080  0.74863  Biso   1.000  O
  O27      1.0000 0.56920  0.41500  0.41529  Biso   1.000  O
  O28      1.0000 0.41500  0.84580  0.58196  Biso   1.000  O
  O29      1.0000 0.15420  0.56920  0.24863  Biso   1.000  O
  O30      1.0000 0.43080  0.58500  0.91529  Biso   1.000  O
  O31      1.0000 0.15420  0.58500  0.58471  Biso   1.000  O
  O32      1.0000 0.43080  0.84580  0.91804  Biso   1.000  O
  O33      1.0000 0.41500  0.56920  0.25137  Biso   1.000  O
  O34      1.0000 0.84580  0.41500  0.08471  Biso   1.000  O
  O35      1.0000 0.56920  0.15420  0.41804  Biso   1.000  O
  O36      1.0000 0.58500  0.43080  0.75137  Biso   1.000  O
  H49      1.0000 0.59710  0.09030  0.09520  Biso   1.000  H
  H50      1.0000 0.90970  0.50680  0.76187  Biso   1.000  H
  H51      1.0000 0.49320  0.40290  0.42853  Biso   1.000  H
  H52      1.0000 0.40290  0.90970  0.59520  Biso   1.000  H
  H53      1.0000 0.09030  0.49320  0.26187  Biso   1.000  H
  H54      1.0000 0.50680  0.59710  0.92853  Biso   1.000  H
  H55      1.0000 0.09030  0.59710  0.57147  Biso   1.000  H
  H56      1.0000 0.50680  0.90970  0.90480  Biso   1.000  H
  H57      1.0000 0.40290  0.49320  0.23813  Biso   1.000  H
  H58      1.0000 0.90970  0.40290  0.07147  Biso   1.000  H
  H59      1.0000 0.49320  0.09030  0.40480  Biso   1.000  H
  H60      1.0000 0.59710  0.50680  0.73813  Biso   1.000  H
  H61      1.0000 0.64990  0.23260  0.09300  Biso   1.000  H
  H62      1.0000 0.76740  0.41730  0.75967  Biso   1.000  H
  H63      1.0000 0.58270  0.35010  0.42633  Biso   1.000  H
  H64      1.0000 0.35010  0.76740  0.59300  Biso   1.000  H
  H65      1.0000 0.23260  0.58270  0.25967  Biso   1.000  H
  H66      1.0000 0.41730  0.64990  0.92633  Biso   1.000  H
  H67      1.0000 0.23260  0.64990  0.57367  Biso   1.000  H
  H68      1.0000 0.41730  0.76740  0.90700  Biso   1.000  H
  H69      1.0000 0.35010  0.58270  0.24033  Biso   1.000  H
  H70      1.0000 0.76740  0.35010  0.07367  Biso   1.000  H
  H71      1.0000 0.58270  0.23260  0.40700  Biso   1.000  H
  H72      1.0000 0.64990  0.41730  0.74033  Biso   1.000  H
  N7       1.0000 0.33430  0.00000  0.00000  Biso   1.000  N
  N8       1.0000 0.00000  0.33430  0.66667  Biso   1.000  N
  N9       1.0000 0.66570  0.66570  0.33333  Biso   1.000  N
  N10      1.0000 0.66570  0.00000  0.50000  Biso   1.000  N
  N11      1.0000 0.00000  0.66570  0.16667  Biso   1.000  N
  N12      1.0000 0.33430  0.33430  0.83333  Biso   1.000  N
  O37      1.0000 0.54240  0.90750  0.11998  Biso   1.000  O
  O38      1.0000 0.09250  0.63490  0.78665  Biso   1.000  O
  O39      1.0000 0.36510  0.45760  0.45331  Biso   1.000  O
  O40      1.0000 0.45760  0.09250  0.61998  Biso   1.000  O
  O41      1.0000 0.90750  0.36510  0.28665  Biso   1.000  O
  O42      1.0000 0.63490  0.54240  0.95331  Biso   1.000  O
  O43      1.0000 0.90750  0.54240  0.54669  Biso   1.000  O
  O44      1.0000 0.63490  0.09250  0.88002  Biso   1.000  O
  O45      1.0000 0.45760  0.36510  0.21335  Biso   1.000  O
  O46      1.0000 0.09250  0.45760  0.04669  Biso   1.000  O
  O47      1.0000 0.36510  0.90750  0.38002  Biso   1.000  O
  O48      1.0000 0.54240  0.63490  0.71335  Biso   1.000  O
  C31      1.0000 0.08190  0.00000  0.00000  Biso   1.000  C
  C32      1.0000 0.00000  0.08190  0.66667  Biso   1.000  C
  C33      1.0000 0.91810  0.91810  0.33333  Biso   1.000  C
  C34      1.0000 0.91810  0.00000  0.50000  Biso   1.000  C
  C35      1.0000 0.00000  0.91810  0.16667  Biso   1.000  C
  C36      1.0000 0.08190  0.08190  0.83333  Biso   1.000  C
  C37      1.0000 0.47510  0.81160  0.08686  Biso   1.000  C
  C38      1.0000 0.18840  0.66350  0.75353  Biso   1.000  C
  C39      1.0000 0.33650  0.52490  0.42019  Biso   1.000  C
  C40      1.0000 0.52490  0.18840  0.58686  Biso   1.000  C
  C41      1.0000 0.81160  0.33650  0.25353  Biso   1.000  C
  C42      1.0000 0.66350  0.47510  0.92019  Biso   1.000  C
  C43      1.0000 0.81160  0.47510  0.57981  Biso   1.000  C
  C44      1.0000 0.66350  0.18840  0.91314  Biso   1.000  C
  C45      1.0000 0.52490  0.33650  0.24647  Biso   1.000  C
  C46      1.0000 0.18840  0.52490  0.07981  Biso   1.000  C
  C47      1.0000 0.33650  0.81160  0.41314  Biso   1.000  C
  C48      1.0000 0.47510  0.66350  0.74647  Biso   1.000  C
  C49      1.0000 0.44810  0.66640  0.09959  Biso   1.000  C
  C50      1.0000 0.33360  0.78170  0.76626  Biso   1.000  C
  C51      1.0000 0.21830  0.55190  0.43292  Biso   1.000  C
  C52      1.0000 0.55190  0.33360  0.59959  Biso   1.000  C
  C53      1.0000 0.66640  0.21830  0.26626  Biso   1.000  C
  C54      1.0000 0.78170  0.44810  0.93292  Biso   1.000  C
  C55      1.0000 0.66640  0.44810  0.56708  Biso   1.000  C
  C56      1.0000 0.78170  0.33360  0.90041  Biso   1.000  C
  C57      1.0000 0.55190  0.21830  0.23374  Biso   1.000  C
  C58      1.0000 0.33360  0.55190  0.06708  Biso   1.000  C
  C59      1.0000 0.21830  0.66640  0.40041  Biso   1.000  C
  C60      1.0000 0.44810  0.78170  0.73374  Biso   1.000  C
  H73      1.0000 0.53360  0.66410  0.09380  Biso   1.000  H
  H74      1.0000 0.33590  0.86950  0.76047  Biso   1.000  H
  H75      1.0000 0.13050  0.46640  0.42713  Biso   1.000  H
  H76      1.0000 0.46640  0.33590  0.59380  Biso   1.000  H
  H77      1.0000 0.66410  0.13050  0.26047  Biso   1.000  H
  H78      1.0000 0.86950  0.53360  0.92713  Biso   1.000  H
  H79      1.0000 0.66410  0.53360  0.57287  Biso   1.000  H
  H80      1.0000 0.86950  0.33590  0.90620  Biso   1.000  H
  H81      1.0000 0.46640  0.13050  0.23953  Biso   1.000  H
  H82      1.0000 0.33590  0.46640  0.07287  Biso   1.000  H
  H83      1.0000 0.13050  0.66410  0.40620  Biso   1.000  H
  H84      1.0000 0.53360  0.86950  0.73953  Biso   1.000  H
  H85      1.0000 0.42450  0.64760  0.13730  Biso   1.000  H
  H86      1.0000 0.35240  0.77690  0.80397  Biso   1.000  H
  H87      1.0000 0.22310  0.57550  0.47063  Biso   1.000  H
  H88      1.0000 0.57550  0.35240  0.63730  Biso   1.000  H
  H89      1.0000 0.64760  0.22310  0.30397  Biso   1.000  H
  H90      1.0000 0.77690  0.42450  0.97063  Biso   1.000  H
  H91      1.0000 0.64760  0.42450  0.52937  Biso   1.000  H
  H92      1.0000 0.77690  0.35240  0.86270  Biso   1.000  H
  H93      1.0000 0.57550  0.22310  0.19603  Biso   1.000  H
  H94      1.0000 0.35240  0.57550  0.02937  Biso   1.000  H
  H95      1.0000 0.22310  0.64760  0.36270  Biso   1.000  H
  H96      1.0000 0.42450  0.77690  0.69603  Biso   1.000  H
  C61      1.0000 0.33150  0.11830  0.99222  Biso   1.000  C
  C62      1.0000 0.88170  0.21320  0.65889  Biso   1.000  C
  C63      1.0000 0.78680  0.66850  0.32555  Biso   1.000  C
  C64      1.0000 0.66850  0.88170  0.49222  Biso   1.000  C
  C65      1.0000 0.11830  0.78680  0.15889  Biso   1.000  C
  C66      1.0000 0.21320  0.33150  0.82555  Biso   1.000  C
  C67      1.0000 0.11830  0.33150  0.67445  Biso   1.000  C
  C68      1.0000 0.21320  0.88170  0.00778  Biso   1.000  C
  C69      1.0000 0.66850  0.78680  0.34111  Biso   1.000  C
  C70      1.0000 0.88170  0.66850  0.17445  Biso   1.000  C
  C71      1.0000 0.78680  0.11830  0.50778  Biso   1.000  C
  C72      1.0000 0.33150  0.21320  0.84111  Biso   1.000  C
  H97      1.0000 0.41500  0.20110  0.98680  Biso   1.000  H
  H98      1.0000 0.79890  0.21390  0.65347  Biso   1.000  H
  H99      1.0000 0.78610  0.58500  0.32013  Biso   1.000  H
  H100     1.0000 0.58500  0.79890  0.48680  Biso   1.000  H
  H101     1.0000 0.20110  0.78610  0.15347  Biso   1.000  H
  H102     1.0000 0.21390  0.41500  0.82013  Biso   1.000  H
  H103     1.0000 0.20110  0.41500  0.67987  Biso   1.000  H
  H104     1.0000 0.21390  0.79890  0.01320  Biso   1.000  H
  H105     1.0000 0.58500  0.78610  0.34653  Biso   1.000  H
  H106     1.0000 0.79890  0.58500  0.17987  Biso   1.000  H
  H107     1.0000 0.78610  0.20110  0.51320  Biso   1.000  H
  H108     1.0000 0.41500  0.21390  0.84653  Biso   1.000  H
  C73      1.0000 0.20780  0.12070  0.99195  Biso   1.000  C
  C74      1.0000 0.87930  0.08710  0.65862  Biso   1.000  C
  C75      1.0000 0.91290  0.79220  0.32528  Biso   1.000  C
  C76      1.0000 0.79220  0.87930  0.49195  Biso   1.000  C
  C77      1.0000 0.12070  0.91290  0.15862  Biso   1.000  C
  C78      1.0000 0.08710  0.20780  0.82528  Biso   1.000  C
  C79      1.0000 0.12070  0.20780  0.67472  Biso   1.000  C
  C80      1.0000 0.08710  0.87930  0.00805  Biso   1.000  C
  C81      1.0000 0.79220  0.91290  0.34138  Biso   1.000  C
  C82      1.0000 0.87930  0.79220  0.17472  Biso   1.000  C
  C83      1.0000 0.91290  0.12070  0.50805  Biso   1.000  C
  C84      1.0000 0.20780  0.08710  0.84138  Biso   1.000  C
  H109     1.0000 0.20950  0.20450  0.98630  Biso   1.000  H
  H110     1.0000 0.79550  0.00500  0.65297  Biso   1.000  H
  H111     1.0000 0.99500  0.79050  0.31963  Biso   1.000  H
  H112     1.0000 0.79050  0.79550  0.48630  Biso   1.000  H
  H113     1.0000 0.20450  0.99500  0.15297  Biso   1.000  H
  H114     1.0000 0.00500  0.20950  0.81963  Biso   1.000  H
  H115     1.0000 0.20450  0.20950  0.68037  Biso   1.000  H
  H116     1.0000 0.00500  0.79550  0.01370  Biso   1.000  H
  H117     1.0000 0.79050  0.99500  0.34703  Biso   1.000  H
  H118     1.0000 0.79550  0.79050  0.18037  Biso   1.000  H
  H119     1.0000 0.99500  0.20450  0.51370  Biso   1.000  H
  H120     1.0000 0.20950  0.00500  0.84703  Biso   1.000  H
