data_image0
_cell_length_a       11.0759
_cell_length_b       11.0759
_cell_length_c       24.985
_cell_angle_alpha    90
_cell_angle_beta     90
_cell_angle_gamma    120

_symmetry_space_group_name_H-M    "P 1"
_symmetry_int_tables_number       1

loop_
  _symmetry_equiv_pos_as_xyz
  'x, y, z'

loop_
  _atom_site_label
  _atom_site_occupancy
  _atom_site_fract_x
  _atom_site_fract_y
  _atom_site_fract_z
  _atom_site_thermal_displace_type
  _atom_site_B_iso_or_equiv
  _atom_site_type_symbol
  Cu1      1.0000 0.51457  0.00000  0.00000  Biso   1.000  Cu
  Cu2      1.0000 0.00000  0.51457  0.66667  Biso   1.000  Cu
  Cu3      1.0000 0.48543  0.48543  0.33333  Biso   1.000  Cu
  Cu4      1.0000 0.48543  0.00000  0.50000  Biso   1.000  Cu
  Cu5      1.0000 0.00000  0.48543  0.16667  Biso   1.000  Cu
  Cu6      1.0000 0.51457  0.51457  0.83333  Biso   1.000  Cu
  C1       1.0000 0.81720  0.11610  0.00981  Biso   1.000  C
  C2       1.0000 0.88390  0.70110  0.67648  Biso   1.000  C
  C3       1.0000 0.29890  0.18280  0.34314  Biso   1.000  C
  C4       1.0000 0.18280  0.88390  0.50981  Biso   1.000  C
  C5       1.0000 0.11610  0.29890  0.17648  Biso   1.000  C
  C6       1.0000 0.70110  0.81720  0.84314  Biso   1.000  C
  C7       1.0000 0.11610  0.81720  0.65686  Biso   1.000  C
  C8       1.0000 0.70110  0.88390  0.99019  Biso   1.000  C
  C9       1.0000 0.18280  0.29890  0.32352  Biso   1.000  C
  C10      1.0000 0.88390  0.18280  0.15686  Biso   1.000  C
  C11      1.0000 0.29890  0.11610  0.49019  Biso   1.000  C
  C12      1.0000 0.81720  0.70110  0.82352  Biso   1.000  C
  H1       1.0000 0.81580  0.19820  0.01600  Biso   1.000  H
  H2       1.0000 0.80180  0.61760  0.68267  Biso   1.000  H
  H3       1.0000 0.38240  0.18420  0.34933  Biso   1.000  H
  H4       1.0000 0.18420  0.80180  0.51600  Biso   1.000  H
  H5       1.0000 0.19820  0.38240  0.18267  Biso   1.000  H
  H6       1.0000 0.61760  0.81580  0.84933  Biso   1.000  H
  H7       1.0000 0.19820  0.81580  0.65067  Biso   1.000  H
  H8       1.0000 0.61760  0.80180  0.98400  Biso   1.000  H
  H9       1.0000 0.18420  0.38240  0.31733  Biso   1.000  H
  H10      1.0000 0.80180  0.18420  0.15067  Biso   1.000  H
  H11      1.0000 0.38240  0.19820  0.48400  Biso   1.000  H
  H12      1.0000 0.81580  0.61760  0.81733  Biso   1.000  H
  N1       1.0000 0.69690  0.00000  0.00000  Biso   1.000  N
  N2       1.0000 0.00000  0.69690  0.66667  Biso   1.000  N
  N3       1.0000 0.30310  0.30310  0.33333  Biso   1.000  N
  N4       1.0000 0.30310  0.00000  0.50000  Biso   1.000  N
  N5       1.0000 0.00000  0.30310  0.16667  Biso   1.000  N
  N6       1.0000 0.69690  0.69690  0.83333  Biso   1.000  N
  C13      1.0000 0.94360  0.12030  0.01124  Biso   1.000  C
  C14      1.0000 0.87970  0.82330  0.67791  Biso   1.000  C
  C15      1.0000 0.17670  0.05640  0.34457  Biso   1.000  C
  C16      1.0000 0.05640  0.87970  0.51124  Biso   1.000  C
  C17      1.0000 0.12030  0.17670  0.17791  Biso   1.000  C
  C18      1.0000 0.82330  0.94360  0.84457  Biso   1.000  C
  C19      1.0000 0.12030  0.94360  0.65543  Biso   1.000  C
  C20      1.0000 0.82330  0.87970  0.98876  Biso   1.000  C
  C21      1.0000 0.05640  0.17670  0.32209  Biso   1.000  C
  C22      1.0000 0.87970  0.05640  0.15543  Biso   1.000  C
  C23      1.0000 0.17670  0.12030  0.48876  Biso   1.000  C
  C24      1.0000 0.94360  0.82330  0.82209  Biso   1.000  C
  H13      1.0000 0.02460  0.20290  0.01960  Biso   1.000  H
  H14      1.0000 0.79710  0.82170  0.68627  Biso   1.000  H
  H15      1.0000 0.17830  0.97540  0.35293  Biso   1.000  H
  H16      1.0000 0.97540  0.79710  0.51960  Biso   1.000  H
  H17      1.0000 0.20290  0.17830  0.18627  Biso   1.000  H
  H18      1.0000 0.82170  0.02460  0.85293  Biso   1.000  H
  H19      1.0000 0.20290  0.02460  0.64707  Biso   1.000  H
  H20      1.0000 0.82170  0.79710  0.98040  Biso   1.000  H
  H21      1.0000 0.97540  0.17830  0.31373  Biso   1.000  H
  H22      1.0000 0.79710  0.97540  0.14707  Biso   1.000  H
  H23      1.0000 0.17830  0.20290  0.48040  Biso   1.000  H
  H24      1.0000 0.02460  0.82170  0.81373  Biso   1.000  H
  O1       1.0000 0.43300  0.82790  0.04212  Biso   1.000  O
  O2       1.0000 0.17210  0.60510  0.70879  Biso   1.000  O
  O3       1.0000 0.39490  0.56700  0.37545  Biso   1.000  O
  O4       1.0000 0.56700  0.17210  0.54212  Biso   1.000  O
  O5       1.0000 0.82790  0.39490  0.20879  Biso   1.000  O
  O6       1.0000 0.60510  0.43300  0.87545  Biso   1.000  O
  O7       1.0000 0.82790  0.43300  0.62455  Biso   1.000  O
  O8       1.0000 0.60510  0.17210  0.95788  Biso   1.000  O
  O9       1.0000 0.56700  0.39490  0.29121  Biso   1.000  O
  O10      1.0000 0.17210  0.56700  0.12455  Biso   1.000  O
  O11      1.0000 0.39490  0.82790  0.45788  Biso   1.000  O
  O12      1.0000 0.43300  0.60510  0.79121  Biso   1.000  O
  C25      1.0000 0.21420  0.88310  0.00750  Biso   1.000  C
  C26      1.0000 0.11690  0.33110  0.67417  Biso   1.000  C
  C27      1.0000 0.66890  0.78580  0.34083  Biso   1.000  C
  C28      1.0000 0.78580  0.11690  0.50750  Biso   1.000  C
  C29      1.0000 0.88310  0.66890  0.17417  Biso   1.000  C
  C30      1.0000 0.33110  0.21420  0.84083  Biso   1.000  C
  C31      1.0000 0.88310  0.21420  0.65917  Biso   1.000  C
  C32      1.0000 0.33110  0.11690  0.99250  Biso   1.000  C
  C33      1.0000 0.78580  0.66890  0.32583  Biso   1.000  C
  C34      1.0000 0.11690  0.78580  0.15917  Biso   1.000  C
  C35      1.0000 0.66890  0.88310  0.49250  Biso   1.000  C
  C36      1.0000 0.21420  0.33110  0.82583  Biso   1.000  C
  H25      1.0000 0.21550  0.80050  0.01240  Biso   1.000  H
  H26      1.0000 0.19950  0.41500  0.67907  Biso   1.000  H
  H27      1.0000 0.58500  0.78450  0.34573  Biso   1.000  H
  H28      1.0000 0.78450  0.19950  0.51240  Biso   1.000  H
  H29      1.0000 0.80050  0.58500  0.17907  Biso   1.000  H
  H30      1.0000 0.41500  0.21550  0.84573  Biso   1.000  H
  H31      1.0000 0.80050  0.21550  0.65427  Biso   1.000  H
  H32      1.0000 0.41500  0.19950  0.98760  Biso   1.000  H
  H33      1.0000 0.78450  0.58500  0.32093  Biso   1.000  H
  H34      1.0000 0.19950  0.78450  0.15427  Biso   1.000  H
  H35      1.0000 0.58500  0.80050  0.48760  Biso   1.000  H
  H36      1.0000 0.21550  0.41500  0.82093  Biso   1.000  H
  C37      1.0000 0.47580  0.81220  0.08710  Biso   1.000  C
  C38      1.0000 0.18780  0.66360  0.75377  Biso   1.000  C
  C39      1.0000 0.33640  0.52420  0.42043  Biso   1.000  C
  C40      1.0000 0.52420  0.18780  0.58710  Biso   1.000  C
  C41      1.0000 0.81220  0.33640  0.25377  Biso   1.000  C
  C42      1.0000 0.66360  0.47580  0.92043  Biso   1.000  C
  C43      1.0000 0.81220  0.47580  0.57957  Biso   1.000  C
  C44      1.0000 0.66360  0.18780  0.91290  Biso   1.000  C
  C45      1.0000 0.52420  0.33640  0.24623  Biso   1.000  C
  C46      1.0000 0.18780  0.52420  0.07957  Biso   1.000  C
  C47      1.0000 0.33640  0.81220  0.41290  Biso   1.000  C
  C48      1.0000 0.47580  0.66360  0.74623  Biso   1.000  C
  O13      1.0000 0.43240  0.84460  0.91813  Biso   1.000  O
  O14      1.0000 0.15540  0.58780  0.58480  Biso   1.000  O
  O15      1.0000 0.41220  0.56760  0.25146  Biso   1.000  O
  O16      1.0000 0.56760  0.15540  0.41813  Biso   1.000  O
  O17      1.0000 0.84460  0.41220  0.08480  Biso   1.000  O
  O18      1.0000 0.58780  0.43240  0.75146  Biso   1.000  O
  O19      1.0000 0.84460  0.43240  0.74854  Biso   1.000  O
  O20      1.0000 0.58780  0.15540  0.08187  Biso   1.000  O
  O21      1.0000 0.56760  0.41220  0.41520  Biso   1.000  O
  O22      1.0000 0.15540  0.56760  0.24854  Biso   1.000  O
  O23      1.0000 0.41220  0.84460  0.58187  Biso   1.000  O
  O24      1.0000 0.43240  0.58780  0.91520  Biso   1.000  O
  H37      1.0000 0.35500  0.78140  0.90560  Biso   1.000  H
  H38      1.0000 0.21860  0.57360  0.57227  Biso   1.000  H
  H39      1.0000 0.42640  0.64500  0.23893  Biso   1.000  H
  H40      1.0000 0.64500  0.21860  0.40560  Biso   1.000  H
  H41      1.0000 0.78140  0.42640  0.07227  Biso   1.000  H
  H42      1.0000 0.57360  0.35500  0.73893  Biso   1.000  H
  H43      1.0000 0.78140  0.35500  0.76107  Biso   1.000  H
  H44      1.0000 0.57360  0.21860  0.09440  Biso   1.000  H
  H45      1.0000 0.64500  0.42640  0.42773  Biso   1.000  H
  H46      1.0000 0.21860  0.64500  0.26107  Biso   1.000  H
  H47      1.0000 0.42640  0.78140  0.59440  Biso   1.000  H
  H48      1.0000 0.35500  0.57360  0.92773  Biso   1.000  H
  H49      1.0000 0.47610  0.90410  0.89370  Biso   1.000  H
  H50      1.0000 0.09590  0.57200  0.56037  Biso   1.000  H
  H51      1.0000 0.42800  0.52390  0.22703  Biso   1.000  H
  H52      1.0000 0.52390  0.09590  0.39370  Biso   1.000  H
  H53      1.0000 0.90410  0.42800  0.06037  Biso   1.000  H
  H54      1.0000 0.57200  0.47610  0.72703  Biso   1.000  H
  H55      1.0000 0.90410  0.47610  0.77297  Biso   1.000  H
  H56      1.0000 0.57200  0.09590  0.10630  Biso   1.000  H
  H57      1.0000 0.52390  0.42800  0.43963  Biso   1.000  H
  H58      1.0000 0.09590  0.52390  0.27297  Biso   1.000  H
  H59      1.0000 0.42800  0.90410  0.60630  Biso   1.000  H
  H60      1.0000 0.47610  0.57200  0.93963  Biso   1.000  H
  O25      1.0000 0.54160  0.90670  0.11999  Biso   1.000  O
  O26      1.0000 0.09330  0.63490  0.78666  Biso   1.000  O
  O27      1.0000 0.36510  0.45840  0.45332  Biso   1.000  O
  O28      1.0000 0.45840  0.09330  0.61999  Biso   1.000  O
  O29      1.0000 0.90670  0.36510  0.28666  Biso   1.000  O
  O30      1.0000 0.63490  0.54160  0.95332  Biso   1.000  O
  O31      1.0000 0.90670  0.54160  0.54668  Biso   1.000  O
  O32      1.0000 0.63490  0.09330  0.88001  Biso   1.000  O
  O33      1.0000 0.45840  0.36510  0.21334  Biso   1.000  O
  O34      1.0000 0.09330  0.45840  0.04668  Biso   1.000  O
  O35      1.0000 0.36510  0.90670  0.38001  Biso   1.000  O
  O36      1.0000 0.54160  0.63490  0.71334  Biso   1.000  O
  C49      1.0000 0.44770  0.66630  0.09975  Biso   1.000  C
  C50      1.0000 0.33370  0.78140  0.76642  Biso   1.000  C
  C51      1.0000 0.21860  0.55230  0.43308  Biso   1.000  C
  C52      1.0000 0.55230  0.33370  0.59975  Biso   1.000  C
  C53      1.0000 0.66630  0.21860  0.26642  Biso   1.000  C
  C54      1.0000 0.78140  0.44770  0.93308  Biso   1.000  C
  C55      1.0000 0.66630  0.44770  0.56692  Biso   1.000  C
  C56      1.0000 0.78140  0.33370  0.90025  Biso   1.000  C
  C57      1.0000 0.55230  0.21860  0.23358  Biso   1.000  C
  C58      1.0000 0.33370  0.55230  0.06692  Biso   1.000  C
  C59      1.0000 0.21860  0.66630  0.40025  Biso   1.000  C
  C60      1.0000 0.44770  0.78140  0.73358  Biso   1.000  C
  H61      1.0000 0.53300  0.66360  0.09430  Biso   1.000  H
  H62      1.0000 0.33640  0.86940  0.76097  Biso   1.000  H
  H63      1.0000 0.13060  0.46700  0.42763  Biso   1.000  H
  H64      1.0000 0.46700  0.33640  0.59430  Biso   1.000  H
  H65      1.0000 0.66360  0.13060  0.26097  Biso   1.000  H
  H66      1.0000 0.86940  0.53300  0.92763  Biso   1.000  H
  H67      1.0000 0.66360  0.53300  0.57237  Biso   1.000  H
  H68      1.0000 0.86940  0.33640  0.90570  Biso   1.000  H
  H69      1.0000 0.46700  0.13060  0.23903  Biso   1.000  H
  H70      1.0000 0.33640  0.46700  0.07237  Biso   1.000  H
  H71      1.0000 0.13060  0.66360  0.40570  Biso   1.000  H
  H72      1.0000 0.53300  0.86940  0.73903  Biso   1.000  H
  H73      1.0000 0.42320  0.64730  0.13730  Biso   1.000  H
  H74      1.0000 0.35270  0.77590  0.80397  Biso   1.000  H
  H75      1.0000 0.22410  0.57680  0.47063  Biso   1.000  H
  H76      1.0000 0.57680  0.35270  0.63730  Biso   1.000  H
  H77      1.0000 0.64730  0.22410  0.30397  Biso   1.000  H
  H78      1.0000 0.77590  0.42320  0.97063  Biso   1.000  H
  H79      1.0000 0.64730  0.42320  0.52937  Biso   1.000  H
  H80      1.0000 0.77590  0.35270  0.86270  Biso   1.000  H
  H81      1.0000 0.57680  0.22410  0.19603  Biso   1.000  H
  H82      1.0000 0.35270  0.57680  0.02937  Biso   1.000  H
  H83      1.0000 0.22410  0.64730  0.36270  Biso   1.000  H
  H84      1.0000 0.42320  0.77590  0.69603  Biso   1.000  H
  N7       1.0000 0.33440  0.00000  0.00000  Biso   1.000  N
  N8       1.0000 0.00000  0.33440  0.66667  Biso   1.000  N
  N9       1.0000 0.66560  0.66560  0.33333  Biso   1.000  N
  N10      1.0000 0.66560  0.00000  0.50000  Biso   1.000  N
  N11      1.0000 0.00000  0.66560  0.16667  Biso   1.000  N
  N12      1.0000 0.33440  0.33440  0.83333  Biso   1.000  N
  C61      1.0000 0.94940  0.00000  0.00000  Biso   1.000  C
  C62      1.0000 0.00000  0.94940  0.66667  Biso   1.000  C
  C63      1.0000 0.05060  0.05060  0.33333  Biso   1.000  C
  C64      1.0000 0.05060  0.00000  0.50000  Biso   1.000  C
  C65      1.0000 0.00000  0.05060  0.16667  Biso   1.000  C
  C66      1.0000 0.94940  0.94940  0.83333  Biso   1.000  C
  C67      1.0000 0.08130  0.00000  0.00000  Biso   1.000  C
  C68      1.0000 0.00000  0.08130  0.66667  Biso   1.000  C
  C69      1.0000 0.91870  0.91870  0.33333  Biso   1.000  C
  C70      1.0000 0.91870  0.00000  0.50000  Biso   1.000  C
  C71      1.0000 0.00000  0.91870  0.16667  Biso   1.000  C
  C72      1.0000 0.08130  0.08130  0.83333  Biso   1.000  C
  O37      1.0000 0.54720  0.85760  0.22829  Biso   1.000  O
  O38      1.0000 0.14240  0.68960  0.89496  Biso   1.000  O
  O39      1.0000 0.31040  0.45280  0.56162  Biso   1.000  O
  O40      1.0000 0.45280  0.14240  0.72829  Biso   1.000  O
  O41      1.0000 0.85760  0.31040  0.39496  Biso   1.000  O
  O42      1.0000 0.68960  0.54720  0.06162  Biso   1.000  O
  O43      1.0000 0.85760  0.54720  0.43838  Biso   1.000  O
  O44      1.0000 0.68960  0.14240  0.77171  Biso   1.000  O
  O45      1.0000 0.45280  0.31040  0.10504  Biso   1.000  O
  O46      1.0000 0.14240  0.45280  0.93838  Biso   1.000  O
  O47      1.0000 0.31040  0.85760  0.27171  Biso   1.000  O
  O48      1.0000 0.54720  0.68960  0.60504  Biso   1.000  O
  H85      1.0000 0.51550  0.86750  0.19860  Biso   1.000  H
  H86      1.0000 0.13250  0.64800  0.86527  Biso   1.000  H
  H87      1.0000 0.35200  0.48450  0.53193  Biso   1.000  H
  H88      1.0000 0.48450  0.13250  0.69860  Biso   1.000  H
  H89      1.0000 0.86750  0.35200  0.36527  Biso   1.000  H
  H90      1.0000 0.64800  0.51550  0.03193  Biso   1.000  H
  H91      1.0000 0.86750  0.51550  0.46807  Biso   1.000  H
  H92      1.0000 0.64800  0.13250  0.80140  Biso   1.000  H
  H93      1.0000 0.48450  0.35200  0.13473  Biso   1.000  H
  H94      1.0000 0.13250  0.48450  0.96807  Biso   1.000  H
  H95      1.0000 0.35200  0.86750  0.30140  Biso   1.000  H
  H96      1.0000 0.51550  0.64800  0.63473  Biso   1.000  H
  H97      1.0000 0.55740  0.78670  0.22600  Biso   1.000  H
  H98      1.0000 0.21330  0.77070  0.89267  Biso   1.000  H
  H99      1.0000 0.22930  0.44260  0.55933  Biso   1.000  H
  H100     1.0000 0.44260  0.21330  0.72600  Biso   1.000  H
  H101     1.0000 0.78670  0.22930  0.39267  Biso   1.000  H
  H102     1.0000 0.77070  0.55740  0.05933  Biso   1.000  H
  H103     1.0000 0.78670  0.55740  0.44067  Biso   1.000  H
  H104     1.0000 0.77070  0.21330  0.77400  Biso   1.000  H
  H105     1.0000 0.44260  0.22930  0.10733  Biso   1.000  H
  H106     1.0000 0.21330  0.44260  0.94067  Biso   1.000  H
  H107     1.0000 0.22930  0.78670  0.27400  Biso   1.000  H
  H108     1.0000 0.55740  0.77070  0.60733  Biso   1.000  H
  C73      1.0000 0.08660  0.87840  0.00838  Biso   1.000  C
  C74      1.0000 0.12160  0.20820  0.67505  Biso   1.000  C
  C75      1.0000 0.79180  0.91340  0.34171  Biso   1.000  C
  C76      1.0000 0.91340  0.12160  0.50838  Biso   1.000  C
  C77      1.0000 0.87840  0.79180  0.17505  Biso   1.000  C
  C78      1.0000 0.20820  0.08660  0.84171  Biso   1.000  C
  C79      1.0000 0.87840  0.08660  0.65829  Biso   1.000  C
  C80      1.0000 0.20820  0.12160  0.99162  Biso   1.000  C
  C81      1.0000 0.91340  0.79180  0.32495  Biso   1.000  C
  C82      1.0000 0.12160  0.91340  0.15829  Biso   1.000  C
  C83      1.0000 0.79180  0.87840  0.49162  Biso   1.000  C
  C84      1.0000 0.08660  0.20820  0.82495  Biso   1.000  C
  H109     1.0000 0.00500  0.79440  0.01450  Biso   1.000  H
  H110     1.0000 0.20560  0.21060  0.68117  Biso   1.000  H
  H111     1.0000 0.78940  0.99500  0.34783  Biso   1.000  H
  H112     1.0000 0.99500  0.20560  0.51450  Biso   1.000  H
  H113     1.0000 0.79440  0.78940  0.18117  Biso   1.000  H
  H114     1.0000 0.21060  0.00500  0.84783  Biso   1.000  H
  H115     1.0000 0.79440  0.00500  0.65217  Biso   1.000  H
  H116     1.0000 0.21060  0.20560  0.98550  Biso   1.000  H
  H117     1.0000 0.99500  0.78940  0.31883  Biso   1.000  H
  H118     1.0000 0.20560  0.99500  0.15217  Biso   1.000  H
  H119     1.0000 0.78940  0.79440  0.48550  Biso   1.000  H
  H120     1.0000 0.00500  0.21060  0.81883  Biso   1.000  H
