data_image0
_cell_length_a       11.0172
_cell_length_b       11.0172
_cell_length_c       24.606
_cell_angle_alpha    90
_cell_angle_beta     90
_cell_angle_gamma    120

_symmetry_space_group_name_H-M    "P 1"
_symmetry_int_tables_number       1

loop_
  _symmetry_equiv_pos_as_xyz
  'x, y, z'

loop_
  _atom_site_label
  _atom_site_occupancy
  _atom_site_fract_x
  _atom_site_fract_y
  _atom_site_fract_z
  _atom_site_thermal_displace_type
  _atom_site_B_iso_or_equiv
  _atom_site_type_symbol
  Cu1      1.0000 0.48397  0.00000  0.00000  Biso   1.000  Cu
  Cu2      1.0000 0.00000  0.48397  0.66667  Biso   1.000  Cu
  Cu3      1.0000 0.51603  0.51603  0.33333  Biso   1.000  Cu
  Cu4      1.0000 0.51603  0.00000  0.50000  Biso   1.000  Cu
  Cu5      1.0000 0.00000  0.51603  0.16667  Biso   1.000  Cu
  Cu6      1.0000 0.48397  0.48397  0.83333  Biso   1.000  Cu
  O1       1.0000 0.56620  0.17390  0.04228  Biso   1.000  O
  O2       1.0000 0.82610  0.39230  0.70895  Biso   1.000  O
  O3       1.0000 0.60770  0.43380  0.37561  Biso   1.000  O
  O4       1.0000 0.43380  0.82610  0.54228  Biso   1.000  O
  O5       1.0000 0.17390  0.60770  0.20895  Biso   1.000  O
  O6       1.0000 0.39230  0.56620  0.87561  Biso   1.000  O
  O7       1.0000 0.17390  0.56620  0.62439  Biso   1.000  O
  O8       1.0000 0.39230  0.82610  0.95772  Biso   1.000  O
  O9       1.0000 0.43380  0.60770  0.29105  Biso   1.000  O
  O10      1.0000 0.82610  0.43380  0.12439  Biso   1.000  O
  O11      1.0000 0.60770  0.17390  0.45772  Biso   1.000  O
  O12      1.0000 0.56620  0.39230  0.79105  Biso   1.000  O
  N1       1.0000 0.66440  0.00000  0.00000  Biso   1.000  N
  N2       1.0000 0.00000  0.66440  0.66667  Biso   1.000  N
  N3       1.0000 0.33560  0.33560  0.33333  Biso   1.000  N
  N4       1.0000 0.33560  0.00000  0.50000  Biso   1.000  N
  N5       1.0000 0.00000  0.33560  0.16667  Biso   1.000  N
  N6       1.0000 0.66440  0.66440  0.83333  Biso   1.000  N
  C1       1.0000 0.05020  0.00000  0.00000  Biso   1.000  C
  C2       1.0000 0.00000  0.05020  0.66667  Biso   1.000  C
  C3       1.0000 0.94980  0.94980  0.33333  Biso   1.000  C
  C4       1.0000 0.94980  0.00000  0.50000  Biso   1.000  C
  C5       1.0000 0.00000  0.94980  0.16667  Biso   1.000  C
  C6       1.0000 0.05020  0.05020  0.83333  Biso   1.000  C
  N7       1.0000 0.30200  0.00000  0.00000  Biso   1.000  N
  N8       1.0000 0.00000  0.30200  0.66667  Biso   1.000  N
  N9       1.0000 0.69800  0.69800  0.33333  Biso   1.000  N
  N10      1.0000 0.69800  0.00000  0.50000  Biso   1.000  N
  N11      1.0000 0.00000  0.69800  0.16667  Biso   1.000  N
  N12      1.0000 0.30200  0.30200  0.83333  Biso   1.000  N
  C7       1.0000 0.54920  0.33600  0.10008  Biso   1.000  C
  C8       1.0000 0.66400  0.21320  0.76675  Biso   1.000  C
  C9       1.0000 0.78680  0.45080  0.43341  Biso   1.000  C
  C10      1.0000 0.45080  0.66400  0.60008  Biso   1.000  C
  C11      1.0000 0.33600  0.78680  0.26675  Biso   1.000  C
  C12      1.0000 0.21320  0.54920  0.93341  Biso   1.000  C
  C13      1.0000 0.33600  0.54920  0.56659  Biso   1.000  C
  C14      1.0000 0.21320  0.66400  0.89992  Biso   1.000  C
  C15      1.0000 0.45080  0.78680  0.23325  Biso   1.000  C
  C16      1.0000 0.66400  0.45080  0.06659  Biso   1.000  C
  C17      1.0000 0.78680  0.33600  0.39992  Biso   1.000  C
  C18      1.0000 0.54920  0.21320  0.73325  Biso   1.000  C
  H1       1.0000 0.46140  0.33810  0.09410  Biso   1.000  H
  H2       1.0000 0.66190  0.12330  0.76077  Biso   1.000  H
  H3       1.0000 0.87670  0.53860  0.42743  Biso   1.000  H
  H4       1.0000 0.53860  0.66190  0.59410  Biso   1.000  H
  H5       1.0000 0.33810  0.87670  0.26077  Biso   1.000  H
  H6       1.0000 0.12330  0.46140  0.92743  Biso   1.000  H
  H7       1.0000 0.33810  0.46140  0.57257  Biso   1.000  H
  H8       1.0000 0.12330  0.66190  0.90590  Biso   1.000  H
  H9       1.0000 0.53860  0.87670  0.23923  Biso   1.000  H
  H10      1.0000 0.66190  0.53860  0.07257  Biso   1.000  H
  H11      1.0000 0.87670  0.33810  0.40590  Biso   1.000  H
  H12      1.0000 0.46140  0.12330  0.73923  Biso   1.000  H
  H13      1.0000 0.57400  0.35600  0.13900  Biso   1.000  H
  H14      1.0000 0.64400  0.21800  0.80567  Biso   1.000  H
  H15      1.0000 0.78200  0.42600  0.47233  Biso   1.000  H
  H16      1.0000 0.42600  0.64400  0.63900  Biso   1.000  H
  H17      1.0000 0.35600  0.78200  0.30567  Biso   1.000  H
  H18      1.0000 0.21800  0.57400  0.97233  Biso   1.000  H
  H19      1.0000 0.35600  0.57400  0.52767  Biso   1.000  H
  H20      1.0000 0.21800  0.64400  0.86100  Biso   1.000  H
  H21      1.0000 0.42600  0.78200  0.19433  Biso   1.000  H
  H22      1.0000 0.64400  0.42600  0.02767  Biso   1.000  H
  H23      1.0000 0.78200  0.35600  0.36100  Biso   1.000  H
  H24      1.0000 0.57400  0.21800  0.69433  Biso   1.000  H
  C19      1.0000 0.18180  0.88310  0.00996  Biso   1.000  C
  C20      1.0000 0.11690  0.29870  0.67663  Biso   1.000  C
  C21      1.0000 0.70130  0.81820  0.34329  Biso   1.000  C
  C22      1.0000 0.81820  0.11690  0.50996  Biso   1.000  C
  C23      1.0000 0.88310  0.70130  0.17663  Biso   1.000  C
  C24      1.0000 0.29870  0.18180  0.84329  Biso   1.000  C
  C25      1.0000 0.88310  0.18180  0.65671  Biso   1.000  C
  C26      1.0000 0.29870  0.11690  0.99004  Biso   1.000  C
  C27      1.0000 0.81820  0.70130  0.32337  Biso   1.000  C
  C28      1.0000 0.11690  0.81820  0.15671  Biso   1.000  C
  C29      1.0000 0.70130  0.88310  0.49004  Biso   1.000  C
  C30      1.0000 0.18180  0.29870  0.82337  Biso   1.000  C
  H25      1.0000 0.18350  0.79910  0.01660  Biso   1.000  H
  H26      1.0000 0.20090  0.38440  0.68327  Biso   1.000  H
  H27      1.0000 0.61560  0.81650  0.34993  Biso   1.000  H
  H28      1.0000 0.81650  0.20090  0.51660  Biso   1.000  H
  H29      1.0000 0.79910  0.61560  0.18327  Biso   1.000  H
  H30      1.0000 0.38440  0.18350  0.84993  Biso   1.000  H
  H31      1.0000 0.79910  0.18350  0.65007  Biso   1.000  H
  H32      1.0000 0.38440  0.20090  0.98340  Biso   1.000  H
  H33      1.0000 0.81650  0.61560  0.31673  Biso   1.000  H
  H34      1.0000 0.20090  0.81650  0.15007  Biso   1.000  H
  H35      1.0000 0.61560  0.79910  0.48340  Biso   1.000  H
  H36      1.0000 0.18350  0.38440  0.81673  Biso   1.000  H
  C31      1.0000 0.05480  0.87910  0.01099  Biso   1.000  C
  C32      1.0000 0.12090  0.17570  0.67766  Biso   1.000  C
  C33      1.0000 0.82430  0.94520  0.34432  Biso   1.000  C
  C34      1.0000 0.94520  0.12090  0.51099  Biso   1.000  C
  C35      1.0000 0.87910  0.82430  0.17766  Biso   1.000  C
  C36      1.0000 0.17570  0.05480  0.84432  Biso   1.000  C
  C37      1.0000 0.87910  0.05480  0.65568  Biso   1.000  C
  C38      1.0000 0.17570  0.12090  0.98901  Biso   1.000  C
  C39      1.0000 0.94520  0.82430  0.32234  Biso   1.000  C
  C40      1.0000 0.12090  0.94520  0.15568  Biso   1.000  C
  C41      1.0000 0.82430  0.87910  0.48901  Biso   1.000  C
  C42      1.0000 0.05480  0.17570  0.82234  Biso   1.000  C
  H37      1.0000 0.97110  0.79430  0.01920  Biso   1.000  H
  H38      1.0000 0.20570  0.17680  0.68587  Biso   1.000  H
  H39      1.0000 0.82320  0.02890  0.35253  Biso   1.000  H
  H40      1.0000 0.02890  0.20570  0.51920  Biso   1.000  H
  H41      1.0000 0.79430  0.82320  0.18587  Biso   1.000  H
  H42      1.0000 0.17680  0.97110  0.85253  Biso   1.000  H
  H43      1.0000 0.79430  0.97110  0.64747  Biso   1.000  H
  H44      1.0000 0.17680  0.20570  0.98080  Biso   1.000  H
  H45      1.0000 0.02890  0.82320  0.31413  Biso   1.000  H
  H46      1.0000 0.20570  0.02890  0.14747  Biso   1.000  H
  H47      1.0000 0.82320  0.79430  0.48080  Biso   1.000  H
  H48      1.0000 0.97110  0.17680  0.81413  Biso   1.000  H
  O13      1.0000 0.45490  0.09440  0.12098  Biso   1.000  O
  O14      1.0000 0.90560  0.36050  0.78765  Biso   1.000  O
  O15      1.0000 0.63950  0.54510  0.45431  Biso   1.000  O
  O16      1.0000 0.54510  0.90560  0.62098  Biso   1.000  O
  O17      1.0000 0.09440  0.63950  0.28765  Biso   1.000  O
  O18      1.0000 0.36050  0.45490  0.95431  Biso   1.000  O
  O19      1.0000 0.09440  0.45490  0.54569  Biso   1.000  O
  O20      1.0000 0.36050  0.90560  0.87902  Biso   1.000  O
  O21      1.0000 0.54510  0.63950  0.21235  Biso   1.000  O
  O22      1.0000 0.90560  0.54510  0.04569  Biso   1.000  O
  O23      1.0000 0.63950  0.09440  0.37902  Biso   1.000  O
  O24      1.0000 0.45490  0.36050  0.71235  Biso   1.000  O
  C43      1.0000 0.52230  0.18960  0.08747  Biso   1.000  C
  C44      1.0000 0.81040  0.33270  0.75414  Biso   1.000  C
  C45      1.0000 0.66730  0.47770  0.42080  Biso   1.000  C
  C46      1.0000 0.47770  0.81040  0.58747  Biso   1.000  C
  C47      1.0000 0.18960  0.66730  0.25414  Biso   1.000  C
  C48      1.0000 0.33270  0.52230  0.92080  Biso   1.000  C
  C49      1.0000 0.18960  0.52230  0.57920  Biso   1.000  C
  C50      1.0000 0.33270  0.81040  0.91253  Biso   1.000  C
  C51      1.0000 0.47770  0.66730  0.24586  Biso   1.000  C
  C52      1.0000 0.81040  0.47770  0.07920  Biso   1.000  C
  C53      1.0000 0.66730  0.18960  0.41253  Biso   1.000  C
  C54      1.0000 0.52230  0.33270  0.74586  Biso   1.000  C
  O25      1.0000 0.41170  0.84720  0.08160  Biso   1.000  O
  O26      1.0000 0.15280  0.56450  0.74827  Biso   1.000  O
  O27      1.0000 0.43550  0.58830  0.41493  Biso   1.000  O
  O28      1.0000 0.58830  0.15280  0.58160  Biso   1.000  O
  O29      1.0000 0.84720  0.43550  0.24827  Biso   1.000  O
  O30      1.0000 0.56450  0.41170  0.91493  Biso   1.000  O
  O31      1.0000 0.84720  0.41170  0.58507  Biso   1.000  O
  O32      1.0000 0.56450  0.15280  0.91840  Biso   1.000  O
  O33      1.0000 0.58830  0.43550  0.25173  Biso   1.000  O
  O34      1.0000 0.15280  0.58830  0.08507  Biso   1.000  O
  O35      1.0000 0.43550  0.84720  0.41840  Biso   1.000  O
  O36      1.0000 0.41170  0.56450  0.75173  Biso   1.000  O
  H49      1.0000 0.41240  0.90930  0.10230  Biso   1.000  H
  H50      1.0000 0.09070  0.50310  0.76897  Biso   1.000  H
  H51      1.0000 0.49690  0.58760  0.43563  Biso   1.000  H
  H52      1.0000 0.58760  0.09070  0.60230  Biso   1.000  H
  H53      1.0000 0.90930  0.49690  0.26897  Biso   1.000  H
  H54      1.0000 0.50310  0.41240  0.93563  Biso   1.000  H
  H55      1.0000 0.90930  0.41240  0.56437  Biso   1.000  H
  H56      1.0000 0.50310  0.09070  0.89770  Biso   1.000  H
  H57      1.0000 0.58760  0.49690  0.23103  Biso   1.000  H
  H58      1.0000 0.09070  0.58760  0.06437  Biso   1.000  H
  H59      1.0000 0.49690  0.90930  0.39770  Biso   1.000  H
  H60      1.0000 0.41240  0.50310  0.73103  Biso   1.000  H
  H61      1.0000 0.33540  0.77080  0.08640  Biso   1.000  H
  H62      1.0000 0.22920  0.56460  0.75307  Biso   1.000  H
  H63      1.0000 0.43540  0.66460  0.41973  Biso   1.000  H
  H64      1.0000 0.66460  0.22920  0.58640  Biso   1.000  H
  H65      1.0000 0.77080  0.43540  0.25307  Biso   1.000  H
  H66      1.0000 0.56460  0.33540  0.91973  Biso   1.000  H
  H67      1.0000 0.77080  0.33540  0.58027  Biso   1.000  H
  H68      1.0000 0.56460  0.22920  0.91360  Biso   1.000  H
  H69      1.0000 0.66460  0.43540  0.24693  Biso   1.000  H
  H70      1.0000 0.22920  0.66460  0.08027  Biso   1.000  H
  H71      1.0000 0.43540  0.77080  0.41360  Biso   1.000  H
  H72      1.0000 0.33540  0.56460  0.74693  Biso   1.000  H
  C55      1.0000 0.91700  0.00000  0.00000  Biso   1.000  C
  C56      1.0000 0.00000  0.91700  0.66667  Biso   1.000  C
  C57      1.0000 0.08300  0.08300  0.33333  Biso   1.000  C
  C58      1.0000 0.08300  0.00000  0.50000  Biso   1.000  C
  C59      1.0000 0.00000  0.08300  0.16667  Biso   1.000  C
  C60      1.0000 0.91700  0.91700  0.83333  Biso   1.000  C
  O37      1.0000 0.54550  0.69450  0.10335  Biso   1.000  O
  O38      1.0000 0.30550  0.85100  0.77002  Biso   1.000  O
  O39      1.0000 0.14900  0.45450  0.43668  Biso   1.000  O
  O40      1.0000 0.45450  0.30550  0.60335  Biso   1.000  O
  O41      1.0000 0.69450  0.14900  0.27002  Biso   1.000  O
  O42      1.0000 0.85100  0.54550  0.93668  Biso   1.000  O
  O43      1.0000 0.69450  0.54550  0.56332  Biso   1.000  O
  O44      1.0000 0.85100  0.30550  0.89665  Biso   1.000  O
  O45      1.0000 0.45450  0.14900  0.22998  Biso   1.000  O
  O46      1.0000 0.30550  0.45450  0.06332  Biso   1.000  O
  O47      1.0000 0.14900  0.69450  0.39665  Biso   1.000  O
  O48      1.0000 0.54550  0.85100  0.72998  Biso   1.000  O
  H73      1.0000 0.55910  0.69310  0.13730  Biso   1.000  H
  H74      1.0000 0.30690  0.86600  0.80397  Biso   1.000  H
  H75      1.0000 0.13400  0.44090  0.47063  Biso   1.000  H
  H76      1.0000 0.44090  0.30690  0.63730  Biso   1.000  H
  H77      1.0000 0.69310  0.13400  0.30397  Biso   1.000  H
  H78      1.0000 0.86600  0.55910  0.97063  Biso   1.000  H
  H79      1.0000 0.69310  0.55910  0.52937  Biso   1.000  H
  H80      1.0000 0.86600  0.30690  0.86270  Biso   1.000  H
  H81      1.0000 0.44090  0.13400  0.19603  Biso   1.000  H
  H82      1.0000 0.30690  0.44090  0.02937  Biso   1.000  H
  H83      1.0000 0.13400  0.69310  0.36270  Biso   1.000  H
  H84      1.0000 0.55910  0.86600  0.69603  Biso   1.000  H
  H85      1.0000 0.45860  0.66470  0.09850  Biso   1.000  H
  H86      1.0000 0.33530  0.79390  0.76517  Biso   1.000  H
  H87      1.0000 0.20610  0.54140  0.43183  Biso   1.000  H
  H88      1.0000 0.54140  0.33530  0.59850  Biso   1.000  H
  H89      1.0000 0.66470  0.20610  0.26517  Biso   1.000  H
  H90      1.0000 0.79390  0.45860  0.93183  Biso   1.000  H
  H91      1.0000 0.66470  0.45860  0.56817  Biso   1.000  H
  H92      1.0000 0.79390  0.33530  0.90150  Biso   1.000  H
  H93      1.0000 0.54140  0.20610  0.23483  Biso   1.000  H
  H94      1.0000 0.33530  0.54140  0.06817  Biso   1.000  H
  H95      1.0000 0.20610  0.66470  0.40150  Biso   1.000  H
  H96      1.0000 0.45860  0.79390  0.73483  Biso   1.000  H
  C61      1.0000 0.78530  0.11830  0.00842  Biso   1.000  C
  C62      1.0000 0.88170  0.66700  0.67509  Biso   1.000  C
  C63      1.0000 0.33300  0.21470  0.34175  Biso   1.000  C
  C64      1.0000 0.21470  0.88170  0.50842  Biso   1.000  C
  C65      1.0000 0.11830  0.33300  0.17509  Biso   1.000  C
  C66      1.0000 0.66700  0.78530  0.84175  Biso   1.000  C
  C67      1.0000 0.11830  0.78530  0.65825  Biso   1.000  C
  C68      1.0000 0.66700  0.88170  0.99158  Biso   1.000  C
  C69      1.0000 0.21470  0.33300  0.32491  Biso   1.000  C
  C70      1.0000 0.88170  0.21470  0.15825  Biso   1.000  C
  C71      1.0000 0.33300  0.11830  0.49158  Biso   1.000  C
  C72      1.0000 0.78530  0.66700  0.82491  Biso   1.000  C
  H97      1.0000 0.78380  0.20290  0.01410  Biso   1.000  H
  H98      1.0000 0.79710  0.58090  0.68077  Biso   1.000  H
  H99      1.0000 0.41910  0.21620  0.34743  Biso   1.000  H
  H100     1.0000 0.21620  0.79710  0.51410  Biso   1.000  H
  H101     1.0000 0.20290  0.41910  0.18077  Biso   1.000  H
  H102     1.0000 0.58090  0.78380  0.84743  Biso   1.000  H
  H103     1.0000 0.20290  0.78380  0.65257  Biso   1.000  H
  H104     1.0000 0.58090  0.79710  0.98590  Biso   1.000  H
  H105     1.0000 0.21620  0.41910  0.31923  Biso   1.000  H
  H106     1.0000 0.79710  0.21620  0.15257  Biso   1.000  H
  H107     1.0000 0.41910  0.20290  0.48590  Biso   1.000  H
  H108     1.0000 0.78380  0.58090  0.81923  Biso   1.000  H
  C73      1.0000 0.91190  0.12220  0.00923  Biso   1.000  C
  C74      1.0000 0.87780  0.78970  0.67590  Biso   1.000  C
  C75      1.0000 0.21030  0.08810  0.34256  Biso   1.000  C
  C76      1.0000 0.08810  0.87780  0.50923  Biso   1.000  C
  C77      1.0000 0.12220  0.21030  0.17590  Biso   1.000  C
  C78      1.0000 0.78970  0.91190  0.84256  Biso   1.000  C
  C79      1.0000 0.12220  0.91190  0.65744  Biso   1.000  C
  C80      1.0000 0.78970  0.87780  0.99077  Biso   1.000  C
  C81      1.0000 0.08810  0.21030  0.32410  Biso   1.000  C
  C82      1.0000 0.87780  0.08810  0.15744  Biso   1.000  C
  C83      1.0000 0.21030  0.12220  0.49077  Biso   1.000  C
  C84      1.0000 0.91190  0.78970  0.82410  Biso   1.000  C
  H109     1.0000 0.99580  0.20790  0.01610  Biso   1.000  H
  H110     1.0000 0.79210  0.78790  0.68277  Biso   1.000  H
  H111     1.0000 0.21210  0.00420  0.34943  Biso   1.000  H
  H112     1.0000 0.00420  0.79210  0.51610  Biso   1.000  H
  H113     1.0000 0.20790  0.21210  0.18277  Biso   1.000  H
  H114     1.0000 0.78790  0.99580  0.84943  Biso   1.000  H
  H115     1.0000 0.20790  0.99580  0.65057  Biso   1.000  H
  H116     1.0000 0.78790  0.79210  0.98390  Biso   1.000  H
  H117     1.0000 0.00420  0.21210  0.31723  Biso   1.000  H
  H118     1.0000 0.79210  0.00420  0.15057  Biso   1.000  H
  H119     1.0000 0.21210  0.20790  0.48390  Biso   1.000  H
  H120     1.0000 0.99580  0.78790  0.81723  Biso   1.000  H
