data_image0
_cell_length_a       17.181
_cell_length_b       18.198
_cell_length_c       20.672
_cell_angle_alpha    90
_cell_angle_beta     90
_cell_angle_gamma    90

_symmetry_space_group_name_H-M    "P 1"
_symmetry_int_tables_number       1

loop_
  _symmetry_equiv_pos_as_xyz
  'x, y, z'

loop_
  _atom_site_label
  _atom_site_occupancy
  _atom_site_fract_x
  _atom_site_fract_y
  _atom_site_fract_z
  _atom_site_thermal_displace_type
  _atom_site_B_iso_or_equiv
  _atom_site_type_symbol
  Mo1      1.0000 0.59271  0.13328  0.40439  Biso   1.000  Mo
  Mo2      1.0000 0.40729  0.36672  0.90439  Biso   1.000  Mo
  Mo3      1.0000 0.09271  0.86672  0.09561  Biso   1.000  Mo
  Mo4      1.0000 0.90729  0.63328  0.59561  Biso   1.000  Mo
  Mo5      1.0000 0.40729  0.86672  0.59561  Biso   1.000  Mo
  Mo6      1.0000 0.59271  0.63328  0.09561  Biso   1.000  Mo
  Mo7      1.0000 0.90729  0.13328  0.90439  Biso   1.000  Mo
  Mo8      1.0000 0.09271  0.36672  0.40439  Biso   1.000  Mo
  Mo9      1.0000 0.53104  0.96693  0.33317  Biso   1.000  Mo
  Mo10     1.0000 0.46896  0.53307  0.83317  Biso   1.000  Mo
  Mo11     1.0000 0.03104  0.03307  0.16683  Biso   1.000  Mo
  Mo12     1.0000 0.96896  0.46693  0.66683  Biso   1.000  Mo
  Mo13     1.0000 0.46896  0.03307  0.66683  Biso   1.000  Mo
  Mo14     1.0000 0.53104  0.46693  0.16683  Biso   1.000  Mo
  Mo15     1.0000 0.96896  0.96693  0.83317  Biso   1.000  Mo
  Mo16     1.0000 0.03104  0.53307  0.33317  Biso   1.000  Mo
  Mo17     1.0000 0.53751  0.17538  0.56578  Biso   1.000  Mo
  Mo18     1.0000 0.46249  0.32462  0.06578  Biso   1.000  Mo
  Mo19     1.0000 0.03751  0.82462  0.93422  Biso   1.000  Mo
  Mo20     1.0000 0.96249  0.67538  0.43422  Biso   1.000  Mo
  Mo21     1.0000 0.46249  0.82462  0.43422  Biso   1.000  Mo
  Mo22     1.0000 0.53751  0.67538  0.93422  Biso   1.000  Mo
  Mo23     1.0000 0.96249  0.17538  0.06578  Biso   1.000  Mo
  Mo24     1.0000 0.03751  0.32462  0.56578  Biso   1.000  Mo
  Mo25     1.0000 0.33952  0.97576  0.39424  Biso   1.000  Mo
  Mo26     1.0000 0.66048  0.52424  0.89424  Biso   1.000  Mo
  Mo27     1.0000 0.83952  0.02424  0.10576  Biso   1.000  Mo
  Mo28     1.0000 0.16048  0.47576  0.60576  Biso   1.000  Mo
  Mo29     1.0000 0.66048  0.02424  0.60576  Biso   1.000  Mo
  Mo30     1.0000 0.33952  0.47576  0.10576  Biso   1.000  Mo
  Mo31     1.0000 0.16048  0.97576  0.89424  Biso   1.000  Mo
  Mo32     1.0000 0.83952  0.52424  0.39424  Biso   1.000  Mo
  Mo33     1.0000 0.31107  0.03285  0.55743  Biso   1.000  Mo
  Mo34     1.0000 0.68893  0.46715  0.05743  Biso   1.000  Mo
  Mo35     1.0000 0.81107  0.96715  0.94257  Biso   1.000  Mo
  Mo36     1.0000 0.18893  0.53285  0.44257  Biso   1.000  Mo
  Mo37     1.0000 0.68893  0.96715  0.44257  Biso   1.000  Mo
  Mo38     1.0000 0.31107  0.53285  0.94257  Biso   1.000  Mo
  Mo39     1.0000 0.18893  0.03285  0.05743  Biso   1.000  Mo
  Mo40     1.0000 0.81107  0.46715  0.55743  Biso   1.000  Mo
  Mo41     1.0000 0.39387  0.15481  0.44334  Biso   1.000  Mo
  Mo42     1.0000 0.60613  0.34519  0.94334  Biso   1.000  Mo
  Mo43     1.0000 0.89387  0.84519  0.05666  Biso   1.000  Mo
  Mo44     1.0000 0.10613  0.65481  0.55666  Biso   1.000  Mo
  Mo45     1.0000 0.60613  0.84519  0.55666  Biso   1.000  Mo
  Mo46     1.0000 0.39387  0.65481  0.05666  Biso   1.000  Mo
  Mo47     1.0000 0.10613  0.15481  0.94334  Biso   1.000  Mo
  Mo48     1.0000 0.89387  0.34519  0.44334  Biso   1.000  Mo
  Cu1      1.0000 0.55899  0.29640  0.28871  Biso   1.000  Cu
  Cu2      1.0000 0.44101  0.20360  0.78871  Biso   1.000  Cu
  Cu3      1.0000 0.05899  0.70360  0.21129  Biso   1.000  Cu
  Cu4      1.0000 0.94101  0.79640  0.71129  Biso   1.000  Cu
  Cu5      1.0000 0.44101  0.70360  0.71129  Biso   1.000  Cu
  Cu6      1.0000 0.55899  0.79640  0.21129  Biso   1.000  Cu
  Cu7      1.0000 0.94101  0.29640  0.78871  Biso   1.000  Cu
  Cu8      1.0000 0.05899  0.20360  0.28871  Biso   1.000  Cu
  Si1      1.0000 0.50000  0.00000  0.50000  Biso   1.000  Si
  Si2      1.0000 0.50000  0.50000  0.00000  Biso   1.000  Si
  Si3      1.0000 0.00000  0.00000  0.00000  Biso   1.000  Si
  Si4      1.0000 0.00000  0.50000  0.50000  Biso   1.000  Si
  N1       1.0000 0.55270  0.21410  0.22670  Biso   1.000  N
  N2       1.0000 0.44730  0.28590  0.72670  Biso   1.000  N
  N3       1.0000 0.05270  0.78590  0.27330  Biso   1.000  N
  N4       1.0000 0.94730  0.71410  0.77330  Biso   1.000  N
  N5       1.0000 0.44730  0.78590  0.77330  Biso   1.000  N
  N6       1.0000 0.55270  0.71410  0.27330  Biso   1.000  N
  N7       1.0000 0.94730  0.21410  0.72670  Biso   1.000  N
  N8       1.0000 0.05270  0.28590  0.22670  Biso   1.000  N
  N9       1.0000 0.66060  0.31420  0.24680  Biso   1.000  N
  N10      1.0000 0.33940  0.18580  0.74680  Biso   1.000  N
  N11      1.0000 0.16060  0.68580  0.25320  Biso   1.000  N
  N12      1.0000 0.83940  0.81420  0.75320  Biso   1.000  N
  N13      1.0000 0.33940  0.68580  0.75320  Biso   1.000  N
  N14      1.0000 0.66060  0.81420  0.25320  Biso   1.000  N
  N15      1.0000 0.83940  0.31420  0.74680  Biso   1.000  N
  N16      1.0000 0.16060  0.18580  0.24680  Biso   1.000  N
  N17      1.0000 0.56940  0.34560  0.37230  Biso   1.000  N
  N18      1.0000 0.43060  0.15440  0.87230  Biso   1.000  N
  N19      1.0000 0.06940  0.65440  0.12770  Biso   1.000  N
  N20      1.0000 0.93060  0.84560  0.62770  Biso   1.000  N
  N21      1.0000 0.43060  0.65440  0.62770  Biso   1.000  N
  N22      1.0000 0.56940  0.84560  0.12770  Biso   1.000  N
  N23      1.0000 0.93060  0.34560  0.87230  Biso   1.000  N
  N24      1.0000 0.06940  0.15440  0.37230  Biso   1.000  N
  N25      1.0000 0.44870  0.32150  0.30060  Biso   1.000  N
  N26      1.0000 0.55130  0.17850  0.80060  Biso   1.000  N
  N27      1.0000 0.94870  0.67850  0.19940  Biso   1.000  N
  N28      1.0000 0.05130  0.82150  0.69940  Biso   1.000  N
  N29      1.0000 0.55130  0.67850  0.69940  Biso   1.000  N
  N30      1.0000 0.44870  0.82150  0.19940  Biso   1.000  N
  N31      1.0000 0.05130  0.32150  0.80060  Biso   1.000  N
  N32      1.0000 0.94870  0.17850  0.30060  Biso   1.000  N
  C1       1.0000 0.50140  0.16130  0.22800  Biso   1.000  C
  C2       1.0000 0.49860  0.33870  0.72800  Biso   1.000  C
  C3       1.0000 0.00140  0.83870  0.27200  Biso   1.000  C
  C4       1.0000 0.99860  0.66130  0.77200  Biso   1.000  C
  C5       1.0000 0.49860  0.83870  0.77200  Biso   1.000  C
  C6       1.0000 0.50140  0.66130  0.27200  Biso   1.000  C
  C7       1.0000 0.99860  0.16130  0.72800  Biso   1.000  C
  C8       1.0000 0.00140  0.33870  0.22800  Biso   1.000  C
  H1       1.0000 0.45990  0.16320  0.25680  Biso   1.000  H
  H2       1.0000 0.54010  0.33680  0.75680  Biso   1.000  H
  H3       1.0000 0.95990  0.83680  0.24320  Biso   1.000  H
  H4       1.0000 0.04010  0.66320  0.74320  Biso   1.000  H
  H5       1.0000 0.54010  0.83680  0.74320  Biso   1.000  H
  H6       1.0000 0.45990  0.66320  0.24320  Biso   1.000  H
  H7       1.0000 0.04010  0.16320  0.75680  Biso   1.000  H
  H8       1.0000 0.95990  0.33680  0.25680  Biso   1.000  H
  C9       1.0000 0.50950  0.10170  0.18570  Biso   1.000  C
  C10      1.0000 0.49050  0.39830  0.68570  Biso   1.000  C
  C11      1.0000 0.00950  0.89830  0.31430  Biso   1.000  C
  C12      1.0000 0.99050  0.60170  0.81430  Biso   1.000  C
  C13      1.0000 0.49050  0.89830  0.81430  Biso   1.000  C
  C14      1.0000 0.50950  0.60170  0.31430  Biso   1.000  C
  C15      1.0000 0.99050  0.10170  0.68570  Biso   1.000  C
  C16      1.0000 0.00950  0.39830  0.18570  Biso   1.000  C
  H9       1.0000 0.47190  0.06490  0.18640  Biso   1.000  H
  H10      1.0000 0.52810  0.43510  0.68640  Biso   1.000  H
  H11      1.0000 0.97190  0.93510  0.31360  Biso   1.000  H
  H12      1.0000 0.02810  0.56490  0.81360  Biso   1.000  H
  H13      1.0000 0.52810  0.93510  0.81360  Biso   1.000  H
  H14      1.0000 0.47190  0.56490  0.31360  Biso   1.000  H
  H15      1.0000 0.02810  0.06490  0.68640  Biso   1.000  H
  H16      1.0000 0.97190  0.43510  0.18640  Biso   1.000  H
  C17      1.0000 0.56690  0.09560  0.14570  Biso   1.000  C
  C18      1.0000 0.43310  0.40440  0.64570  Biso   1.000  C
  C19      1.0000 0.06690  0.90440  0.35430  Biso   1.000  C
  C20      1.0000 0.93310  0.59560  0.85430  Biso   1.000  C
  C21      1.0000 0.43310  0.90440  0.85430  Biso   1.000  C
  C22      1.0000 0.56690  0.59560  0.35430  Biso   1.000  C
  C23      1.0000 0.93310  0.09560  0.64570  Biso   1.000  C
  C24      1.0000 0.06690  0.40440  0.14570  Biso   1.000  C
  H17      1.0000 0.57130  0.05500  0.11870  Biso   1.000  H
  H18      1.0000 0.42870  0.44500  0.61870  Biso   1.000  H
  H19      1.0000 0.07130  0.94500  0.38130  Biso   1.000  H
  H20      1.0000 0.92870  0.55500  0.88130  Biso   1.000  H
  H21      1.0000 0.42870  0.94500  0.88130  Biso   1.000  H
  H22      1.0000 0.57130  0.55500  0.38130  Biso   1.000  H
  H23      1.0000 0.92870  0.05500  0.61870  Biso   1.000  H
  H24      1.0000 0.07130  0.44500  0.11870  Biso   1.000  H
  C25      1.0000 0.62190  0.15140  0.14430  Biso   1.000  C
  C26      1.0000 0.37810  0.34860  0.64430  Biso   1.000  C
  C27      1.0000 0.12190  0.84860  0.35570  Biso   1.000  C
  C28      1.0000 0.87810  0.65140  0.85570  Biso   1.000  C
  C29      1.0000 0.37810  0.84860  0.85570  Biso   1.000  C
  C30      1.0000 0.62190  0.65140  0.35570  Biso   1.000  C
  C31      1.0000 0.87810  0.15140  0.64430  Biso   1.000  C
  C32      1.0000 0.12190  0.34860  0.14430  Biso   1.000  C
  H25      1.0000 0.66370  0.14870  0.11580  Biso   1.000  H
  H26      1.0000 0.33630  0.35130  0.61580  Biso   1.000  H
  H27      1.0000 0.16370  0.85130  0.38420  Biso   1.000  H
  H28      1.0000 0.83630  0.64870  0.88420  Biso   1.000  H
  H29      1.0000 0.33630  0.85130  0.88420  Biso   1.000  H
  H30      1.0000 0.66370  0.64870  0.38420  Biso   1.000  H
  H31      1.0000 0.83630  0.14870  0.61580  Biso   1.000  H
  H32      1.0000 0.16370  0.35130  0.11580  Biso   1.000  H
  C33      1.0000 0.61430  0.21110  0.18550  Biso   1.000  C
  C34      1.0000 0.38570  0.28890  0.68550  Biso   1.000  C
  C35      1.0000 0.11430  0.78890  0.31450  Biso   1.000  C
  C36      1.0000 0.88570  0.71110  0.81450  Biso   1.000  C
  C37      1.0000 0.38570  0.78890  0.81450  Biso   1.000  C
  C38      1.0000 0.61430  0.71110  0.31450  Biso   1.000  C
  C39      1.0000 0.88570  0.21110  0.68550  Biso   1.000  C
  C40      1.0000 0.11430  0.28890  0.18550  Biso   1.000  C
  C41      1.0000 0.67290  0.27060  0.19400  Biso   1.000  C
  C42      1.0000 0.32710  0.22940  0.69400  Biso   1.000  C
  C43      1.0000 0.17290  0.72940  0.30600  Biso   1.000  C
  C44      1.0000 0.82710  0.77060  0.80600  Biso   1.000  C
  C45      1.0000 0.32710  0.72940  0.80600  Biso   1.000  C
  C46      1.0000 0.67290  0.77060  0.30600  Biso   1.000  C
  C47      1.0000 0.82710  0.27060  0.69400  Biso   1.000  C
  C48      1.0000 0.17290  0.22940  0.19400  Biso   1.000  C
  C49      1.0000 0.73630  0.28050  0.15530  Biso   1.000  C
  C50      1.0000 0.26370  0.21950  0.65530  Biso   1.000  C
  C51      1.0000 0.23630  0.71950  0.34470  Biso   1.000  C
  C52      1.0000 0.76370  0.78050  0.84470  Biso   1.000  C
  C53      1.0000 0.26370  0.71950  0.84470  Biso   1.000  C
  C54      1.0000 0.73630  0.78050  0.34470  Biso   1.000  C
  C55      1.0000 0.76370  0.28050  0.65530  Biso   1.000  C
  C56      1.0000 0.23630  0.21950  0.15530  Biso   1.000  C
  H33      1.0000 0.74320  0.25120  0.11890  Biso   1.000  H
  H34      1.0000 0.25680  0.24880  0.61890  Biso   1.000  H
  H35      1.0000 0.24320  0.74880  0.38110  Biso   1.000  H
  H36      1.0000 0.75680  0.75120  0.88110  Biso   1.000  H
  H37      1.0000 0.25680  0.74880  0.88110  Biso   1.000  H
  H38      1.0000 0.74320  0.75120  0.38110  Biso   1.000  H
  H39      1.0000 0.75680  0.25120  0.61890  Biso   1.000  H
  H40      1.0000 0.24320  0.24880  0.11890  Biso   1.000  H
  C57      1.0000 0.79050  0.33430  0.17040  Biso   1.000  C
  C58      1.0000 0.20950  0.16570  0.67040  Biso   1.000  C
  C59      1.0000 0.29050  0.66570  0.32960  Biso   1.000  C
  C60      1.0000 0.70950  0.83430  0.82960  Biso   1.000  C
  C61      1.0000 0.20950  0.66570  0.82960  Biso   1.000  C
  C62      1.0000 0.79050  0.83430  0.32960  Biso   1.000  C
  C63      1.0000 0.70950  0.33430  0.67040  Biso   1.000  C
  C64      1.0000 0.29050  0.16570  0.17040  Biso   1.000  C
  H41      1.0000 0.83390  0.34060  0.14410  Biso   1.000  H
  H42      1.0000 0.16610  0.15940  0.64410  Biso   1.000  H
  H43      1.0000 0.33390  0.65940  0.35590  Biso   1.000  H
  H44      1.0000 0.66610  0.84060  0.85590  Biso   1.000  H
  H45      1.0000 0.16610  0.65940  0.85590  Biso   1.000  H
  H46      1.0000 0.83390  0.84060  0.35590  Biso   1.000  H
  H47      1.0000 0.66610  0.34060  0.64410  Biso   1.000  H
  H48      1.0000 0.33390  0.15940  0.14410  Biso   1.000  H
  C65      1.0000 0.78100  0.37840  0.22370  Biso   1.000  C
  C66      1.0000 0.21900  0.12160  0.72370  Biso   1.000  C
  C67      1.0000 0.28100  0.62160  0.27630  Biso   1.000  C
  C68      1.0000 0.71900  0.87840  0.77630  Biso   1.000  C
  C69      1.0000 0.21900  0.62160  0.77630  Biso   1.000  C
  C70      1.0000 0.78100  0.87840  0.27630  Biso   1.000  C
  C71      1.0000 0.71900  0.37840  0.72370  Biso   1.000  C
  C72      1.0000 0.28100  0.12160  0.22370  Biso   1.000  C
  H49      1.0000 0.81810  0.41290  0.23610  Biso   1.000  H
  H50      1.0000 0.18190  0.08710  0.73610  Biso   1.000  H
  H51      1.0000 0.31810  0.58710  0.26390  Biso   1.000  H
  H52      1.0000 0.68190  0.91290  0.76390  Biso   1.000  H
  H53      1.0000 0.18190  0.58710  0.76390  Biso   1.000  H
  H54      1.0000 0.81810  0.91290  0.26390  Biso   1.000  H
  H55      1.0000 0.68190  0.41290  0.73610  Biso   1.000  H
  H56      1.0000 0.31810  0.08710  0.23610  Biso   1.000  H
  C73      1.0000 0.71140  0.36810  0.25840  Biso   1.000  C
  C74      1.0000 0.28860  0.13190  0.75840  Biso   1.000  C
  C75      1.0000 0.21140  0.63190  0.24160  Biso   1.000  C
  C76      1.0000 0.78860  0.86810  0.74160  Biso   1.000  C
  C77      1.0000 0.28860  0.63190  0.74160  Biso   1.000  C
  C78      1.0000 0.71140  0.86810  0.24160  Biso   1.000  C
  C79      1.0000 0.78860  0.36810  0.75840  Biso   1.000  C
  C80      1.0000 0.21140  0.13190  0.25840  Biso   1.000  C
  H57      1.0000 0.70000  0.40100  0.29150  Biso   1.000  H
  H58      1.0000 0.30000  0.09900  0.79150  Biso   1.000  H
  H59      1.0000 0.20000  0.59900  0.20850  Biso   1.000  H
  H60      1.0000 0.80000  0.90100  0.70850  Biso   1.000  H
  H61      1.0000 0.30000  0.59900  0.70850  Biso   1.000  H
  H62      1.0000 0.70000  0.90100  0.20850  Biso   1.000  H
  H63      1.0000 0.80000  0.40100  0.79150  Biso   1.000  H
  H64      1.0000 0.20000  0.09900  0.29150  Biso   1.000  H
  C81      1.0000 0.63360  0.34700  0.40990  Biso   1.000  C
  C82      1.0000 0.36640  0.15300  0.90990  Biso   1.000  C
  C83      1.0000 0.13360  0.65300  0.09010  Biso   1.000  C
  C84      1.0000 0.86640  0.84700  0.59010  Biso   1.000  C
  C85      1.0000 0.36640  0.65300  0.59010  Biso   1.000  C
  C86      1.0000 0.63360  0.84700  0.09010  Biso   1.000  C
  C87      1.0000 0.86640  0.34700  0.90990  Biso   1.000  C
  C88      1.0000 0.13360  0.15300  0.40990  Biso   1.000  C
  H65      1.0000 0.68070  0.33210  0.39210  Biso   1.000  H
  H66      1.0000 0.31930  0.16790  0.89210  Biso   1.000  H
  H67      1.0000 0.18070  0.66790  0.10790  Biso   1.000  H
  H68      1.0000 0.81930  0.83210  0.60790  Biso   1.000  H
  H69      1.0000 0.31930  0.66790  0.60790  Biso   1.000  H
  H70      1.0000 0.68070  0.83210  0.10790  Biso   1.000  H
  H71      1.0000 0.81930  0.33210  0.89210  Biso   1.000  H
  H72      1.0000 0.18070  0.16790  0.39210  Biso   1.000  H
  C89      1.0000 0.63220  0.37020  0.47500  Biso   1.000  C
  C90      1.0000 0.36780  0.12980  0.97500  Biso   1.000  C
  C91      1.0000 0.13220  0.62980  0.02500  Biso   1.000  C
  C92      1.0000 0.86780  0.87020  0.52500  Biso   1.000  C
  C93      1.0000 0.36780  0.62980  0.52500  Biso   1.000  C
  C94      1.0000 0.63220  0.87020  0.02500  Biso   1.000  C
  C95      1.0000 0.86780  0.37020  0.97500  Biso   1.000  C
  C96      1.0000 0.13220  0.12980  0.47500  Biso   1.000  C
  H73      1.0000 0.67610  0.36780  0.50130  Biso   1.000  H
  H74      1.0000 0.32390  0.13220  0.00130  Biso   1.000  H
  H75      1.0000 0.17610  0.63220  0.99870  Biso   1.000  H
  H76      1.0000 0.82390  0.86780  0.49870  Biso   1.000  H
  H77      1.0000 0.32390  0.63220  0.49870  Biso   1.000  H
  H78      1.0000 0.67610  0.86780  0.99870  Biso   1.000  H
  H79      1.0000 0.82390  0.36780  0.00130  Biso   1.000  H
  H80      1.0000 0.17610  0.13220  0.50130  Biso   1.000  H
  C97      1.0000 0.56310  0.39590  0.49690  Biso   1.000  C
  C98      1.0000 0.43690  0.10410  0.99690  Biso   1.000  C
  C99      1.0000 0.06310  0.60410  0.00310  Biso   1.000  C
  C100     1.0000 0.93690  0.89590  0.50310  Biso   1.000  C
  C101     1.0000 0.43690  0.60410  0.50310  Biso   1.000  C
  C102     1.0000 0.56310  0.89590  0.00310  Biso   1.000  C
  C103     1.0000 0.93690  0.39590  0.99690  Biso   1.000  C
  C104     1.0000 0.06310  0.10410  0.49690  Biso   1.000  C
  H81      1.0000 0.56110  0.41620  0.53820  Biso   1.000  H
  H82      1.0000 0.43890  0.08380  0.03820  Biso   1.000  H
  H83      1.0000 0.06110  0.58380  0.96180  Biso   1.000  H
  H84      1.0000 0.93890  0.91620  0.46180  Biso   1.000  H
  H85      1.0000 0.43890  0.58380  0.46180  Biso   1.000  H
  H86      1.0000 0.56110  0.91620  0.96180  Biso   1.000  H
  H87      1.0000 0.93890  0.41620  0.03820  Biso   1.000  H
  H88      1.0000 0.06110  0.08380  0.53820  Biso   1.000  H
  C105     1.0000 0.49670  0.39350  0.46140  Biso   1.000  C
  C106     1.0000 0.50330  0.10650  0.96140  Biso   1.000  C
  C107     1.0000 0.99670  0.60650  0.03860  Biso   1.000  C
  C108     1.0000 0.00330  0.89350  0.53860  Biso   1.000  C
  C109     1.0000 0.50330  0.60650  0.53860  Biso   1.000  C
  C110     1.0000 0.49670  0.89350  0.03860  Biso   1.000  C
  C111     1.0000 0.00330  0.39350  0.96140  Biso   1.000  C
  C112     1.0000 0.99670  0.10650  0.46140  Biso   1.000  C
  H89      1.0000 0.44920  0.40760  0.47900  Biso   1.000  H
  H90      1.0000 0.55080  0.09240  0.97900  Biso   1.000  H
  H91      1.0000 0.94920  0.59240  0.02100  Biso   1.000  H
  H92      1.0000 0.05080  0.90760  0.52100  Biso   1.000  H
  H93      1.0000 0.55080  0.59240  0.52100  Biso   1.000  H
  H94      1.0000 0.44920  0.90760  0.02100  Biso   1.000  H
  H95      1.0000 0.05080  0.40760  0.97900  Biso   1.000  H
  H96      1.0000 0.94920  0.09240  0.47900  Biso   1.000  H
  C113     1.0000 0.50230  0.36940  0.39850  Biso   1.000  C
  C114     1.0000 0.49770  0.13060  0.89850  Biso   1.000  C
  C115     1.0000 0.00230  0.63060  0.10150  Biso   1.000  C
  C116     1.0000 0.99770  0.86940  0.60150  Biso   1.000  C
  C117     1.0000 0.49770  0.63060  0.60150  Biso   1.000  C
  C118     1.0000 0.50230  0.86940  0.10150  Biso   1.000  C
  C119     1.0000 0.99770  0.36940  0.89850  Biso   1.000  C
  C120     1.0000 0.00230  0.13060  0.39850  Biso   1.000  C
  C121     1.0000 0.43510  0.36370  0.35200  Biso   1.000  C
  C122     1.0000 0.56490  0.13630  0.85200  Biso   1.000  C
  C123     1.0000 0.93510  0.63630  0.14800  Biso   1.000  C
  C124     1.0000 0.06490  0.86370  0.64800  Biso   1.000  C
  C125     1.0000 0.56490  0.63630  0.64800  Biso   1.000  C
  C126     1.0000 0.43510  0.86370  0.14800  Biso   1.000  C
  C127     1.0000 0.06490  0.36370  0.85200  Biso   1.000  C
  C128     1.0000 0.93510  0.13630  0.35200  Biso   1.000  C
  C129     1.0000 0.36460  0.39970  0.36050  Biso   1.000  C
  C130     1.0000 0.63540  0.10030  0.86050  Biso   1.000  C
  C131     1.0000 0.86460  0.60030  0.13950  Biso   1.000  C
  C132     1.0000 0.13540  0.89970  0.63950  Biso   1.000  C
  C133     1.0000 0.63540  0.60030  0.63950  Biso   1.000  C
  C134     1.0000 0.36460  0.89970  0.13950  Biso   1.000  C
  C135     1.0000 0.13540  0.39970  0.86050  Biso   1.000  C
  C136     1.0000 0.86460  0.10030  0.36050  Biso   1.000  C
  H97      1.0000 0.35590  0.42900  0.39660  Biso   1.000  H
  H98      1.0000 0.64410  0.07100  0.89660  Biso   1.000  H
  H99      1.0000 0.85590  0.57100  0.10340  Biso   1.000  H
  H100     1.0000 0.14410  0.92900  0.60340  Biso   1.000  H
  H101     1.0000 0.64410  0.57100  0.60340  Biso   1.000  H
  H102     1.0000 0.35590  0.92900  0.10340  Biso   1.000  H
  H103     1.0000 0.14410  0.42900  0.89660  Biso   1.000  H
  H104     1.0000 0.85590  0.07100  0.39660  Biso   1.000  H
  C137     1.0000 0.30800  0.39070  0.31420  Biso   1.000  C
  C138     1.0000 0.69200  0.10930  0.81420  Biso   1.000  C
  C139     1.0000 0.80800  0.60930  0.18580  Biso   1.000  C
  C140     1.0000 0.19200  0.89070  0.68580  Biso   1.000  C
  C141     1.0000 0.69200  0.60930  0.68580  Biso   1.000  C
  C142     1.0000 0.30800  0.89070  0.18580  Biso   1.000  C
  C143     1.0000 0.19200  0.39070  0.81420  Biso   1.000  C
  C144     1.0000 0.80800  0.10930  0.31420  Biso   1.000  C
  H105     1.0000 0.26000  0.41350  0.31970  Biso   1.000  H
  H106     1.0000 0.74000  0.08650  0.81970  Biso   1.000  H
  H107     1.0000 0.76000  0.58650  0.18030  Biso   1.000  H
  H108     1.0000 0.24000  0.91350  0.68030  Biso   1.000  H
  H109     1.0000 0.74000  0.58650  0.68030  Biso   1.000  H
  H110     1.0000 0.26000  0.91350  0.18030  Biso   1.000  H
  H111     1.0000 0.24000  0.41350  0.81970  Biso   1.000  H
  H112     1.0000 0.76000  0.08650  0.31970  Biso   1.000  H
  C145     1.0000 0.32000  0.35030  0.26180  Biso   1.000  C
  C146     1.0000 0.68000  0.14970  0.76180  Biso   1.000  C
  C147     1.0000 0.82000  0.64970  0.23820  Biso   1.000  C
  C148     1.0000 0.18000  0.85030  0.73820  Biso   1.000  C
  C149     1.0000 0.68000  0.64970  0.73820  Biso   1.000  C
  C150     1.0000 0.32000  0.85030  0.23820  Biso   1.000  C
  C151     1.0000 0.18000  0.35030  0.76180  Biso   1.000  C
  C152     1.0000 0.82000  0.14970  0.26180  Biso   1.000  C
  H113     1.0000 0.28160  0.34520  0.23050  Biso   1.000  H
  H114     1.0000 0.71840  0.15480  0.73050  Biso   1.000  H
  H115     1.0000 0.78160  0.65480  0.26950  Biso   1.000  H
  H116     1.0000 0.21840  0.84520  0.76950  Biso   1.000  H
  H117     1.0000 0.71840  0.65480  0.76950  Biso   1.000  H
  H118     1.0000 0.28160  0.84520  0.26950  Biso   1.000  H
  H119     1.0000 0.21840  0.34520  0.73050  Biso   1.000  H
  H120     1.0000 0.78160  0.15480  0.23050  Biso   1.000  H
  C153     1.0000 0.39200  0.31570  0.25510  Biso   1.000  C
  C154     1.0000 0.60800  0.18430  0.75510  Biso   1.000  C
  C155     1.0000 0.89200  0.68430  0.24490  Biso   1.000  C
  C156     1.0000 0.10800  0.81570  0.74490  Biso   1.000  C
  C157     1.0000 0.60800  0.68430  0.74490  Biso   1.000  C
  C158     1.0000 0.39200  0.81570  0.24490  Biso   1.000  C
  C159     1.0000 0.10800  0.31570  0.75510  Biso   1.000  C
  C160     1.0000 0.89200  0.18430  0.25510  Biso   1.000  C
  H121     1.0000 0.40140  0.28770  0.21830  Biso   1.000  H
  H122     1.0000 0.59860  0.21230  0.71830  Biso   1.000  H
  H123     1.0000 0.90140  0.71230  0.28170  Biso   1.000  H
  H124     1.0000 0.09860  0.78770  0.78170  Biso   1.000  H
  H125     1.0000 0.59860  0.71230  0.78170  Biso   1.000  H
  H126     1.0000 0.40140  0.78770  0.28170  Biso   1.000  H
  H127     1.0000 0.09860  0.28770  0.71830  Biso   1.000  H
  H128     1.0000 0.90140  0.21230  0.21830  Biso   1.000  H
  O1       1.0000 0.41540  0.03240  0.48480  Biso   1.000  O
  O2       1.0000 0.58460  0.46760  0.98480  Biso   1.000  O
  O3       1.0000 0.91540  0.96760  0.01520  Biso   1.000  O
  O4       1.0000 0.08460  0.53240  0.51520  Biso   1.000  O
  O5       1.0000 0.58460  0.96760  0.51520  Biso   1.000  O
  O6       1.0000 0.41540  0.53240  0.01520  Biso   1.000  O
  O7       1.0000 0.08460  0.03240  0.98480  Biso   1.000  O
  O8       1.0000 0.91540  0.46760  0.48480  Biso   1.000  O
  O9       1.0000 0.21110  0.84260  0.48800  Biso   1.000  O
  O10      1.0000 0.78890  0.65740  0.98800  Biso   1.000  O
  O11      1.0000 0.71110  0.15740  0.01200  Biso   1.000  O
  O12      1.0000 0.28890  0.34260  0.51200  Biso   1.000  O
  O13      1.0000 0.78890  0.15740  0.51200  Biso   1.000  O
  O14      1.0000 0.21110  0.34260  0.01200  Biso   1.000  O
  O15      1.0000 0.28890  0.84260  0.98800  Biso   1.000  O
  O16      1.0000 0.71110  0.65740  0.48800  Biso   1.000  O
  O17      1.0000 0.56000  0.01270  0.44160  Biso   1.000  O
  O18      1.0000 0.44000  0.48730  0.94160  Biso   1.000  O
  O19      1.0000 0.06000  0.98730  0.05840  Biso   1.000  O
  O20      1.0000 0.94000  0.51270  0.55840  Biso   1.000  O
  O21      1.0000 0.44000  0.98730  0.55840  Biso   1.000  O
  O22      1.0000 0.56000  0.51270  0.05840  Biso   1.000  O
  O23      1.0000 0.94000  0.01270  0.94160  Biso   1.000  O
  O24      1.0000 0.06000  0.48730  0.44160  Biso   1.000  O
  O25      1.0000 0.50370  0.08730  0.48140  Biso   1.000  O
  O26      1.0000 0.49630  0.41270  0.98140  Biso   1.000  O
  O27      1.0000 0.00370  0.91270  0.01860  Biso   1.000  O
  O28      1.0000 0.99630  0.58730  0.51860  Biso   1.000  O
  O29      1.0000 0.49630  0.91270  0.51860  Biso   1.000  O
  O30      1.0000 0.50370  0.58730  0.01860  Biso   1.000  O
  O31      1.0000 0.99630  0.08730  0.98140  Biso   1.000  O
  O32      1.0000 0.00370  0.41270  0.48140  Biso   1.000  O
  O33      1.0000 0.46920  0.95490  0.43380  Biso   1.000  O
  O34      1.0000 0.53080  0.54510  0.93380  Biso   1.000  O
  O35      1.0000 0.96920  0.04510  0.06620  Biso   1.000  O
  O36      1.0000 0.03080  0.45490  0.56620  Biso   1.000  O
  O37      1.0000 0.53080  0.04510  0.56620  Biso   1.000  O
  O38      1.0000 0.46920  0.45490  0.06620  Biso   1.000  O
  O39      1.0000 0.03080  0.95490  0.93380  Biso   1.000  O
  O40      1.0000 0.96920  0.54510  0.43380  Biso   1.000  O
  O41      1.0000 0.42760  0.98350  0.33200  Biso   1.000  O
  O42      1.0000 0.57240  0.51650  0.83200  Biso   1.000  O
  O43      1.0000 0.92760  0.01650  0.16800  Biso   1.000  O
  O44      1.0000 0.07240  0.48350  0.66800  Biso   1.000  O
  O45      1.0000 0.57240  0.01650  0.66800  Biso   1.000  O
  O46      1.0000 0.42760  0.48350  0.16800  Biso   1.000  O
  O47      1.0000 0.07240  0.98350  0.83200  Biso   1.000  O
  O48      1.0000 0.92760  0.51650  0.33200  Biso   1.000  O
  O49      1.0000 0.21860  0.03950  0.58120  Biso   1.000  O
  O50      1.0000 0.78140  0.46050  0.08120  Biso   1.000  O
  O51      1.0000 0.71860  0.96050  0.91880  Biso   1.000  O
  O52      1.0000 0.28140  0.53950  0.41880  Biso   1.000  O
  O53      1.0000 0.78140  0.96050  0.41880  Biso   1.000  O
  O54      1.0000 0.21860  0.53950  0.91880  Biso   1.000  O
  O55      1.0000 0.28140  0.03950  0.08120  Biso   1.000  O
  O56      1.0000 0.71860  0.46050  0.58120  Biso   1.000  O
  O57      1.0000 0.59870  0.17730  0.48550  Biso   1.000  O
  O58      1.0000 0.40130  0.32270  0.98550  Biso   1.000  O
  O59      1.0000 0.09870  0.82270  0.01450  Biso   1.000  O
  O60      1.0000 0.90130  0.67730  0.51450  Biso   1.000  O
  O61      1.0000 0.40130  0.82270  0.51450  Biso   1.000  O
  O62      1.0000 0.59870  0.67730  0.01450  Biso   1.000  O
  O63      1.0000 0.90130  0.17730  0.98550  Biso   1.000  O
  O64      1.0000 0.09870  0.32270  0.48550  Biso   1.000  O
  O65      1.0000 0.48400  0.16740  0.39750  Biso   1.000  O
  O66      1.0000 0.51600  0.33260  0.89750  Biso   1.000  O
  O67      1.0000 0.98400  0.83260  0.10250  Biso   1.000  O
  O68      1.0000 0.01600  0.66740  0.60250  Biso   1.000  O
  O69      1.0000 0.51600  0.83260  0.60250  Biso   1.000  O
  O70      1.0000 0.48400  0.66740  0.10250  Biso   1.000  O
  O71      1.0000 0.01600  0.16740  0.89750  Biso   1.000  O
  O72      1.0000 0.98400  0.33260  0.39750  Biso   1.000  O
  O73      1.0000 0.45100  0.19720  0.51930  Biso   1.000  O
  O74      1.0000 0.54900  0.30280  0.01930  Biso   1.000  O
  O75      1.0000 0.95100  0.80280  0.98070  Biso   1.000  O
  O76      1.0000 0.04900  0.69720  0.48070  Biso   1.000  O
  O77      1.0000 0.54900  0.80280  0.48070  Biso   1.000  O
  O78      1.0000 0.45100  0.69720  0.98070  Biso   1.000  O
  O79      1.0000 0.04900  0.19720  0.01930  Biso   1.000  O
  O80      1.0000 0.95100  0.30280  0.51930  Biso   1.000  O
  O81      1.0000 0.63330  0.11800  0.59050  Biso   1.000  O
  O82      1.0000 0.36670  0.38200  0.09050  Biso   1.000  O
  O83      1.0000 0.13330  0.88200  0.90950  Biso   1.000  O
  O84      1.0000 0.86670  0.61800  0.40950  Biso   1.000  O
  O85      1.0000 0.36670  0.88200  0.40950  Biso   1.000  O
  O86      1.0000 0.63330  0.61800  0.90950  Biso   1.000  O
  O87      1.0000 0.86670  0.11800  0.09050  Biso   1.000  O
  O88      1.0000 0.13330  0.38200  0.59050  Biso   1.000  O
  O89      1.0000 0.63120  0.19640  0.35410  Biso   1.000  O
  O90      1.0000 0.36880  0.30360  0.85410  Biso   1.000  O
  O91      1.0000 0.13120  0.80360  0.14590  Biso   1.000  O
  O92      1.0000 0.86880  0.69640  0.64590  Biso   1.000  O
  O93      1.0000 0.36880  0.80360  0.64590  Biso   1.000  O
  O94      1.0000 0.63120  0.69640  0.14590  Biso   1.000  O
  O95      1.0000 0.86880  0.19640  0.85410  Biso   1.000  O
  O96      1.0000 0.13120  0.30360  0.35410  Biso   1.000  O
  O97      1.0000 0.54930  0.94740  0.25680  Biso   1.000  O
  O98      1.0000 0.45070  0.55260  0.75680  Biso   1.000  O
  O99      1.0000 0.04930  0.05260  0.24320  Biso   1.000  O
  O100     1.0000 0.95070  0.44740  0.74320  Biso   1.000  O
  O101     1.0000 0.45070  0.05260  0.74320  Biso   1.000  O
  O102     1.0000 0.54930  0.44740  0.24320  Biso   1.000  O
  O103     1.0000 0.95070  0.94740  0.75680  Biso   1.000  O
  O104     1.0000 0.04930  0.55260  0.25680  Biso   1.000  O
  O105     1.0000 0.35360  0.08550  0.39150  Biso   1.000  O
  O106     1.0000 0.64640  0.41450  0.89150  Biso   1.000  O
  O107     1.0000 0.85360  0.91450  0.10850  Biso   1.000  O
  O108     1.0000 0.14640  0.58550  0.60850  Biso   1.000  O
  O109     1.0000 0.64640  0.91450  0.60850  Biso   1.000  O
  O110     1.0000 0.35360  0.58550  0.10850  Biso   1.000  O
  O111     1.0000 0.14640  0.08550  0.89150  Biso   1.000  O
  O112     1.0000 0.85360  0.41450  0.39150  Biso   1.000  O
  O113     1.0000 0.51110  0.86640  0.36680  Biso   1.000  O
  O114     1.0000 0.48890  0.63360  0.86680  Biso   1.000  O
  O115     1.0000 0.01110  0.13360  0.13320  Biso   1.000  O
  O116     1.0000 0.98890  0.36640  0.63320  Biso   1.000  O
  O117     1.0000 0.48890  0.13360  0.63320  Biso   1.000  O
  O118     1.0000 0.51110  0.36640  0.13320  Biso   1.000  O
  O119     1.0000 0.98890  0.86640  0.86680  Biso   1.000  O
  O120     1.0000 0.01110  0.63360  0.36680  Biso   1.000  O
  O121     1.0000 0.26710  0.97010  0.34150  Biso   1.000  O
  O122     1.0000 0.73290  0.52990  0.84150  Biso   1.000  O
  O123     1.0000 0.76710  0.02990  0.15850  Biso   1.000  O
  O124     1.0000 0.23290  0.47010  0.65850  Biso   1.000  O
  O125     1.0000 0.73290  0.02990  0.65850  Biso   1.000  O
  O126     1.0000 0.26710  0.47010  0.15850  Biso   1.000  O
  O127     1.0000 0.23290  0.97010  0.84150  Biso   1.000  O
  O128     1.0000 0.76710  0.52990  0.34150  Biso   1.000  O
  O129     1.0000 0.55740  0.06380  0.33760  Biso   1.000  O
  O130     1.0000 0.44260  0.43620  0.83760  Biso   1.000  O
  O131     1.0000 0.05740  0.93620  0.16240  Biso   1.000  O
  O132     1.0000 0.94260  0.56380  0.66240  Biso   1.000  O
  O133     1.0000 0.44260  0.93620  0.66240  Biso   1.000  O
  O134     1.0000 0.55740  0.56380  0.16240  Biso   1.000  O
  O135     1.0000 0.94260  0.06380  0.83760  Biso   1.000  O
  O136     1.0000 0.05740  0.43620  0.33760  Biso   1.000  O
  O137     1.0000 0.28790  0.98560  0.47070  Biso   1.000  O
  O138     1.0000 0.71210  0.51440  0.97070  Biso   1.000  O
  O139     1.0000 0.78790  0.01440  0.02930  Biso   1.000  O
  O140     1.0000 0.21210  0.48560  0.52930  Biso   1.000  O
  O141     1.0000 0.71210  0.01440  0.52930  Biso   1.000  O
  O142     1.0000 0.28790  0.48560  0.02930  Biso   1.000  O
  O143     1.0000 0.21210  0.98560  0.97070  Biso   1.000  O
  O144     1.0000 0.78790  0.51440  0.47070  Biso   1.000  O
  O145     1.0000 0.34340  0.22900  0.42410  Biso   1.000  O
  O146     1.0000 0.65660  0.27100  0.92410  Biso   1.000  O
  O147     1.0000 0.84340  0.77100  0.07590  Biso   1.000  O
  O148     1.0000 0.15660  0.72900  0.57590  Biso   1.000  O
  O149     1.0000 0.65660  0.77100  0.57590  Biso   1.000  O
  O150     1.0000 0.34340  0.72900  0.07590  Biso   1.000  O
  O151     1.0000 0.15660  0.22900  0.92410  Biso   1.000  O
  O152     1.0000 0.84340  0.27100  0.42410  Biso   1.000  O
  O153     1.0000 0.56280  0.25610  0.59650  Biso   1.000  O
  O154     1.0000 0.43720  0.24390  0.09650  Biso   1.000  O
  O155     1.0000 0.06280  0.74390  0.90350  Biso   1.000  O
  O156     1.0000 0.93720  0.75610  0.40350  Biso   1.000  O
  O157     1.0000 0.43720  0.74390  0.40350  Biso   1.000  O
  O158     1.0000 0.56280  0.75610  0.90350  Biso   1.000  O
  O159     1.0000 0.93720  0.25610  0.09650  Biso   1.000  O
  O160     1.0000 0.06280  0.24390  0.59650  Biso   1.000  O
  O161     1.0000 0.63560  0.94510  0.37110  Biso   1.000  O
  O162     1.0000 0.36440  0.55490  0.87110  Biso   1.000  O
  O163     1.0000 0.13560  0.05490  0.12890  Biso   1.000  O
  O164     1.0000 0.86440  0.44510  0.62890  Biso   1.000  O
  O165     1.0000 0.36440  0.05490  0.62890  Biso   1.000  O
  O166     1.0000 0.63560  0.44510  0.12890  Biso   1.000  O
  O167     1.0000 0.86440  0.94510  0.87110  Biso   1.000  O
  O168     1.0000 0.13560  0.55490  0.37110  Biso   1.000  O
  O169     1.0000 0.67460  0.07310  0.42230  Biso   1.000  O
  O170     1.0000 0.32540  0.42690  0.92230  Biso   1.000  O
  O171     1.0000 0.17460  0.92690  0.07770  Biso   1.000  O
  O172     1.0000 0.82540  0.57310  0.57770  Biso   1.000  O
  O173     1.0000 0.32540  0.92690  0.57770  Biso   1.000  O
  O174     1.0000 0.67460  0.57310  0.07770  Biso   1.000  O
  O175     1.0000 0.82540  0.07310  0.92230  Biso   1.000  O
  O176     1.0000 0.17460  0.42690  0.42230  Biso   1.000  O
  O177     1.0000 0.32560  0.11940  0.51410  Biso   1.000  O
  O178     1.0000 0.67440  0.38060  0.01410  Biso   1.000  O
  O179     1.0000 0.82560  0.88060  0.98590  Biso   1.000  O
  O180     1.0000 0.17440  0.61940  0.48590  Biso   1.000  O
  O181     1.0000 0.67440  0.88060  0.48590  Biso   1.000  O
  O182     1.0000 0.32560  0.61940  0.98590  Biso   1.000  O
  O183     1.0000 0.17440  0.11940  0.01410  Biso   1.000  O
  O184     1.0000 0.82560  0.38060  0.51410  Biso   1.000  O
  O185     1.0000 0.29850  0.87940  0.49170  Biso   1.000  O
  O186     1.0000 0.70150  0.62060  0.99170  Biso   1.000  O
  O187     1.0000 0.79850  0.12060  0.00830  Biso   1.000  O
  O188     1.0000 0.20150  0.37940  0.50830  Biso   1.000  O
  O189     1.0000 0.70150  0.12060  0.50830  Biso   1.000  O
  O190     1.0000 0.29850  0.37940  0.00830  Biso   1.000  O
  O191     1.0000 0.20150  0.87940  0.99170  Biso   1.000  O
  O192     1.0000 0.79850  0.62060  0.49170  Biso   1.000  O
