data_image0
_cell_length_a       17.001
_cell_length_b       8.7562
_cell_length_c       14.213
_cell_angle_alpha    90
_cell_angle_beta     104.981
_cell_angle_gamma    90

_symmetry_space_group_name_H-M    "P 1"
_symmetry_int_tables_number       1

loop_
  _symmetry_equiv_pos_as_xyz
  'x, y, z'

loop_
  _atom_site_label
  _atom_site_occupancy
  _atom_site_fract_x
  _atom_site_fract_y
  _atom_site_fract_z
  _atom_site_thermal_displace_type
  _atom_site_B_iso_or_equiv
  _atom_site_type_symbol
  Cu1      1.0000 0.24912  0.26349  0.24516  Biso   1.000  Cu
  Cu2      1.0000 0.75088  0.26349  0.25484  Biso   1.000  Cu
  Cu3      1.0000 0.75088  0.73651  0.75484  Biso   1.000  Cu
  Cu4      1.0000 0.24912  0.73651  0.74516  Biso   1.000  Cu
  O1       1.0000 0.28270  0.35270  0.13447  Biso   1.000  O
  O2       1.0000 0.71730  0.35270  0.36553  Biso   1.000  O
  O3       1.0000 0.71730  0.64730  0.86553  Biso   1.000  O
  O4       1.0000 0.28270  0.64730  0.63447  Biso   1.000  O
  O5       1.0000 0.34389  0.56130  0.21129  Biso   1.000  O
  O6       1.0000 0.65611  0.56130  0.28871  Biso   1.000  O
  O7       1.0000 0.65611  0.43870  0.78871  Biso   1.000  O
  O8       1.0000 0.34389  0.43870  0.71129  Biso   1.000  O
  O9       1.0000 0.21637  0.17580  0.35701  Biso   1.000  O
  O10      1.0000 0.78363  0.17580  0.14299  Biso   1.000  O
  O11      1.0000 0.78363  0.82420  0.64299  Biso   1.000  O
  O12      1.0000 0.21637  0.82420  0.85701  Biso   1.000  O
  O13      1.0000 0.15435  0.96530  0.28244  Biso   1.000  O
  O14      1.0000 0.84565  0.96530  0.21756  Biso   1.000  O
  O15      1.0000 0.84565  0.03470  0.71756  Biso   1.000  O
  O16      1.0000 0.15435  0.03470  0.78244  Biso   1.000  O
  O17      1.0000 0.25658  0.52300  0.33968  Biso   1.000  O
  O18      1.0000 0.74342  0.52300  0.16032  Biso   1.000  O
  O19      1.0000 0.74342  0.47700  0.66032  Biso   1.000  O
  O20      1.0000 0.25658  0.47700  0.83968  Biso   1.000  O
  H1       1.0000 0.26300  0.61710  0.34100  Biso   1.000  H
  H2       1.0000 0.73700  0.61710  0.15900  Biso   1.000  H
  H3       1.0000 0.73700  0.38290  0.65900  Biso   1.000  H
  H4       1.0000 0.26300  0.38290  0.84100  Biso   1.000  H
  H5       1.0000 0.21000  0.53800  0.30500  Biso   1.000  H
  H6       1.0000 0.79000  0.53800  0.19500  Biso   1.000  H
  H7       1.0000 0.79000  0.46200  0.69500  Biso   1.000  H
  H8       1.0000 0.21000  0.46200  0.80500  Biso   1.000  H
  O21      1.0000 0.24197  0.01010  0.15372  Biso   1.000  O
  O22      1.0000 0.75803  0.01010  0.34628  Biso   1.000  O
  O23      1.0000 0.75803  0.98990  0.84628  Biso   1.000  O
  O24      1.0000 0.24197  0.98990  0.65372  Biso   1.000  O
  H9       1.0000 0.20800  0.98300  0.18200  Biso   1.000  H
  H10      1.0000 0.79200  0.98300  0.31800  Biso   1.000  H
  H11      1.0000 0.79200  0.01700  0.81800  Biso   1.000  H
  H12      1.0000 0.20800  0.01700  0.68200  Biso   1.000  H
  H13      1.0000 0.28510  0.97300  0.18500  Biso   1.000  H
  H14      1.0000 0.71490  0.97300  0.31500  Biso   1.000  H
  H15      1.0000 0.71490  0.02700  0.81500  Biso   1.000  H
  H16      1.0000 0.28510  0.02700  0.68500  Biso   1.000  H
  N1       1.0000 0.50790  0.19410  0.11667  Biso   1.000  N
  N2       1.0000 0.49210  0.19410  0.38333  Biso   1.000  N
  N3       1.0000 0.49210  0.80590  0.88333  Biso   1.000  N
  N4       1.0000 0.50790  0.80590  0.61667  Biso   1.000  N
  N5       1.0000 0.57102  0.28770  0.14949  Biso   1.000  N
  N6       1.0000 0.42898  0.28770  0.35051  Biso   1.000  N
  N7       1.0000 0.42898  0.71230  0.85051  Biso   1.000  N
  N8       1.0000 0.57102  0.71230  0.64949  Biso   1.000  N
  N9       1.0000 0.63499  0.20380  0.19271  Biso   1.000  N
  N10      1.0000 0.36501  0.20380  0.30729  Biso   1.000  N
  N11      1.0000 0.36501  0.79620  0.80729  Biso   1.000  N
  N12      1.0000 0.63499  0.79620  0.69271  Biso   1.000  N
  N13      1.0000 0.61584  0.05640  0.18939  Biso   1.000  N
  N14      1.0000 0.38416  0.05640  0.31061  Biso   1.000  N
  N15      1.0000 0.38416  0.94360  0.81061  Biso   1.000  N
  N16      1.0000 0.61584  0.94360  0.68939  Biso   1.000  N
  N17      1.0000 0.41048  0.63930  0.07108  Biso   1.000  N
  N18      1.0000 0.58952  0.63930  0.42892  Biso   1.000  N
  N19      1.0000 0.58952  0.36070  0.92892  Biso   1.000  N
  N20      1.0000 0.41048  0.36070  0.57108  Biso   1.000  N
  N21      1.0000 0.99514  0.33380  0.38459  Biso   1.000  N
  N22      1.0000 0.00486  0.33380  0.11541  Biso   1.000  N
  N23      1.0000 0.00486  0.66620  0.61541  Biso   1.000  N
  N24      1.0000 0.99514  0.66620  0.88459  Biso   1.000  N
  N25      1.0000 0.93182  0.24050  0.35376  Biso   1.000  N
  N26      1.0000 0.06818  0.24050  0.14624  Biso   1.000  N
  N27      1.0000 0.06818  0.75950  0.64624  Biso   1.000  N
  N28      1.0000 0.93182  0.75950  0.85376  Biso   1.000  N
  N29      1.0000 0.86648  0.32420  0.31525  Biso   1.000  N
  N30      1.0000 0.13352  0.32420  0.18475  Biso   1.000  N
  N31      1.0000 0.13352  0.67580  0.68475  Biso   1.000  N
  N32      1.0000 0.86648  0.67580  0.81525  Biso   1.000  N
  N33      1.0000 0.88557  0.47160  0.31983  Biso   1.000  N
  N34      1.0000 0.11443  0.47160  0.18017  Biso   1.000  N
  N35      1.0000 0.11443  0.52840  0.68017  Biso   1.000  N
  N36      1.0000 0.88557  0.52840  0.81983  Biso   1.000  N
  N37      1.0000 0.09163  0.88960  0.42724  Biso   1.000  N
  N38      1.0000 0.90837  0.88960  0.07276  Biso   1.000  N
  N39      1.0000 0.90837  0.11040  0.57276  Biso   1.000  N
  N40      1.0000 0.09163  0.11040  0.92724  Biso   1.000  N
  C1       1.0000 0.53700  0.05420  0.14160  Biso   1.000  C
  C2       1.0000 0.46300  0.05420  0.35840  Biso   1.000  C
  C3       1.0000 0.46300  0.94580  0.85840  Biso   1.000  C
  C4       1.0000 0.53700  0.94580  0.64160  Biso   1.000  C
  C5       1.0000 0.49178  0.91070  0.11740  Biso   1.000  C
  C6       1.0000 0.50822  0.91070  0.38260  Biso   1.000  C
  C7       1.0000 0.50822  0.08930  0.88260  Biso   1.000  C
  C8       1.0000 0.49178  0.08930  0.61740  Biso   1.000  C
  C9       1.0000 0.53143  0.77290  0.14240  Biso   1.000  C
  C10      1.0000 0.46857  0.77290  0.35760  Biso   1.000  C
  C11      1.0000 0.46857  0.22710  0.85760  Biso   1.000  C
  C12      1.0000 0.53143  0.22710  0.64240  Biso   1.000  C
  H17      1.0000 0.58760  0.77160  0.17570  Biso   1.000  H
  H18      1.0000 0.41240  0.77160  0.32430  Biso   1.000  H
  H19      1.0000 0.41240  0.22840  0.82430  Biso   1.000  H
  H20      1.0000 0.58760  0.22840  0.67570  Biso   1.000  H
  C13      1.0000 0.49006  0.63880  0.11920  Biso   1.000  C
  C14      1.0000 0.50994  0.63880  0.38080  Biso   1.000  C
  C15      1.0000 0.50994  0.36120  0.88080  Biso   1.000  C
  C16      1.0000 0.49006  0.36120  0.61920  Biso   1.000  C
  H21      1.0000 0.51750  0.54450  0.13700  Biso   1.000  H
  H22      1.0000 0.48250  0.54450  0.36300  Biso   1.000  H
  H23      1.0000 0.48250  0.45550  0.86300  Biso   1.000  H
  H24      1.0000 0.51750  0.45550  0.63700  Biso   1.000  H
  C17      1.0000 0.37029  0.77130  0.04490  Biso   1.000  C
  C18      1.0000 0.62971  0.77130  0.45510  Biso   1.000  C
  C19      1.0000 0.62971  0.22870  0.95510  Biso   1.000  C
  C20      1.0000 0.37029  0.22870  0.54490  Biso   1.000  C
  H25      1.0000 0.31450  0.76920  0.01020  Biso   1.000  H
  H26      1.0000 0.68550  0.76920  0.48980  Biso   1.000  H
  H27      1.0000 0.68550  0.23080  0.98980  Biso   1.000  H
  H28      1.0000 0.31450  0.23080  0.51020  Biso   1.000  H
  C21      1.0000 0.40915  0.90890  0.06790  Biso   1.000  C
  C22      1.0000 0.59085  0.90890  0.43210  Biso   1.000  C
  C23      1.0000 0.59085  0.09110  0.93210  Biso   1.000  C
  C24      1.0000 0.40915  0.09110  0.56790  Biso   1.000  C
  H29      1.0000 0.38030  0.00190  0.05050  Biso   1.000  H
  H30      1.0000 0.61970  0.00190  0.44950  Biso   1.000  H
  H31      1.0000 0.61970  0.99810  0.94950  Biso   1.000  H
  H32      1.0000 0.38030  0.99810  0.55050  Biso   1.000  H
  C25      1.0000 0.36445  0.49540  0.05730  Biso   1.000  C
  C26      1.0000 0.63555  0.49540  0.44270  Biso   1.000  C
  C27      1.0000 0.63555  0.50460  0.94270  Biso   1.000  C
  C28      1.0000 0.36445  0.50460  0.55730  Biso   1.000  C
  H33      1.0000 0.40120  0.40940  0.05300  Biso   1.000  H
  H34      1.0000 0.59880  0.40940  0.44700  Biso   1.000  H
  H35      1.0000 0.59880  0.59060  0.94700  Biso   1.000  H
  H36      1.0000 0.40120  0.59060  0.55300  Biso   1.000  H
  H37      1.0000 0.32080  0.49940  0.99580  Biso   1.000  H
  H38      1.0000 0.67920  0.49940  0.50420  Biso   1.000  H
  H39      1.0000 0.67920  0.50060  0.00420  Biso   1.000  H
  H40      1.0000 0.32080  0.50060  0.49580  Biso   1.000  H
  C29      1.0000 0.32713  0.47010  0.14290  Biso   1.000  C
  C30      1.0000 0.67287  0.47010  0.35710  Biso   1.000  C
  C31      1.0000 0.67287  0.52990  0.85710  Biso   1.000  C
  C32      1.0000 0.32713  0.52990  0.64290  Biso   1.000  C
  C33      1.0000 0.96511  0.47430  0.36250  Biso   1.000  C
  C34      1.0000 0.03489  0.47430  0.13750  Biso   1.000  C
  C35      1.0000 0.03489  0.52570  0.63750  Biso   1.000  C
  C36      1.0000 0.96511  0.52570  0.86250  Biso   1.000  C
  C37      1.0000 0.01039  0.61690  0.38530  Biso   1.000  C
  C38      1.0000 0.98961  0.61690  0.11470  Biso   1.000  C
  C39      1.0000 0.98961  0.38310  0.61470  Biso   1.000  C
  C40      1.0000 0.01039  0.38310  0.88530  Biso   1.000  C
  C41      1.0000 0.96997  0.75500  0.36150  Biso   1.000  C
  C42      1.0000 0.03003  0.75500  0.13850  Biso   1.000  C
  C43      1.0000 0.03003  0.24500  0.63850  Biso   1.000  C
  C44      1.0000 0.96997  0.24500  0.86150  Biso   1.000  C
  H41      1.0000 0.91320  0.75600  0.33100  Biso   1.000  H
  H42      1.0000 0.08680  0.75600  0.16900  Biso   1.000  H
  H43      1.0000 0.08680  0.24400  0.66900  Biso   1.000  H
  H44      1.0000 0.91320  0.24400  0.83100  Biso   1.000  H
  C45      1.0000 0.01170  0.88960  0.38190  Biso   1.000  C
  C46      1.0000 0.98830  0.88960  0.11810  Biso   1.000  C
  C47      1.0000 0.98830  0.11040  0.61810  Biso   1.000  C
  C48      1.0000 0.01170  0.11040  0.88190  Biso   1.000  C
  H45      1.0000 0.98410  0.98370  0.36400  Biso   1.000  H
  H46      1.0000 0.01590  0.98370  0.13600  Biso   1.000  H
  H47      1.0000 0.01590  0.01630  0.63600  Biso   1.000  H
  H48      1.0000 0.98410  0.01630  0.86400  Biso   1.000  H
  C49      1.0000 0.13231  0.75780  0.45240  Biso   1.000  C
  C50      1.0000 0.86769  0.75780  0.04760  Biso   1.000  C
  C51      1.0000 0.86769  0.24220  0.54760  Biso   1.000  C
  C52      1.0000 0.13231  0.24220  0.95240  Biso   1.000  C
  H49      1.0000 0.18860  0.76030  0.48490  Biso   1.000  H
  H50      1.0000 0.81140  0.76030  0.01510  Biso   1.000  H
  H51      1.0000 0.81140  0.23970  0.51510  Biso   1.000  H
  H52      1.0000 0.18860  0.23970  0.98490  Biso   1.000  H
  C53      1.0000 0.09349  0.62000  0.43180  Biso   1.000  C
  C54      1.0000 0.90651  0.62000  0.06820  Biso   1.000  C
  C55      1.0000 0.90651  0.38000  0.56820  Biso   1.000  C
  C56      1.0000 0.09349  0.38000  0.93180  Biso   1.000  C
  H53      1.0000 0.12280  0.52750  0.44890  Biso   1.000  H
  H54      1.0000 0.87720  0.52750  0.05110  Biso   1.000  H
  H55      1.0000 0.87720  0.47250  0.55110  Biso   1.000  H
  H56      1.0000 0.12280  0.47250  0.94890  Biso   1.000  H
  C57      1.0000 0.13736  0.03430  0.43800  Biso   1.000  C
  C58      1.0000 0.86264  0.03430  0.06200  Biso   1.000  C
  C59      1.0000 0.86264  0.96570  0.56200  Biso   1.000  C
  C60      1.0000 0.13736  0.96570  0.93800  Biso   1.000  C
  H57      1.0000 0.18220  0.03180  0.49840  Biso   1.000  H
  H58      1.0000 0.81780  0.03180  0.00160  Biso   1.000  H
  H59      1.0000 0.81780  0.96820  0.50160  Biso   1.000  H
  H60      1.0000 0.18220  0.96820  0.99840  Biso   1.000  H
  H61      1.0000 0.10080  0.12040  0.44290  Biso   1.000  H
  H62      1.0000 0.89920  0.12040  0.05710  Biso   1.000  H
  H63      1.0000 0.89920  0.87960  0.55710  Biso   1.000  H
  H64      1.0000 0.10080  0.87960  0.94290  Biso   1.000  H
  C61      1.0000 0.17208  0.05750  0.35030  Biso   1.000  C
  C62      1.0000 0.82792  0.05750  0.14970  Biso   1.000  C
  C63      1.0000 0.82792  0.94250  0.64970  Biso   1.000  C
  C64      1.0000 0.17208  0.94250  0.85030  Biso   1.000  C
