data_image0
_cell_length_a       12.412
_cell_length_b       11.816
_cell_length_c       19.057
_cell_angle_alpha    90
_cell_angle_beta     105.28
_cell_angle_gamma    90

_symmetry_space_group_name_H-M    "P 1"
_symmetry_int_tables_number       1

loop_
  _symmetry_equiv_pos_as_xyz
  'x, y, z'

loop_
  _atom_site_label
  _atom_site_occupancy
  _atom_site_fract_x
  _atom_site_fract_y
  _atom_site_fract_z
  _atom_site_thermal_displace_type
  _atom_site_B_iso_or_equiv
  _atom_site_type_symbol
  Cu1      1.0000 0.54365  0.48905  0.40059  Biso   1.000  Cu
  Cu2      1.0000 0.45635  0.98905  0.59941  Biso   1.000  Cu
  O1       1.0000 0.63440  0.54120  0.49610  Biso   1.000  O
  O2       1.0000 0.36560  0.04120  0.50390  Biso   1.000  O
  N1       1.0000 0.49130  0.64220  0.37420  Biso   1.000  N
  N2       1.0000 0.50870  0.14220  0.62580  Biso   1.000  N
  C1       1.0000 0.77090  0.56580  0.62820  Biso   1.000  C
  C2       1.0000 0.22910  0.06580  0.37180  Biso   1.000  C
  H1       1.0000 0.81570  0.59140  0.67450  Biso   1.000  H
  H2       1.0000 0.18430  0.09140  0.32550  Biso   1.000  H
  H3       1.0000 0.71840  0.51030  0.63550  Biso   1.000  H
  H4       1.0000 0.28160  0.01030  0.36450  Biso   1.000  H
  H5       1.0000 0.81820  0.53270  0.60120  Biso   1.000  H
  H6       1.0000 0.18180  0.03270  0.39880  Biso   1.000  H
  O3       1.0000 0.71250  0.66000  0.58640  Biso   1.000  O
  O4       1.0000 0.28750  0.16000  0.41360  Biso   1.000  O
  C3       1.0000 0.64540  0.63970  0.52110  Biso   1.000  C
  C4       1.0000 0.35460  0.13970  0.47890  Biso   1.000  C
  C5       1.0000 0.59250  0.73750  0.48540  Biso   1.000  C
  C6       1.0000 0.40750  0.23750  0.51460  Biso   1.000  C
  N3       1.0000 0.62110  0.92950  0.54750  Biso   1.000  N
  N4       1.0000 0.37890  0.42950  0.45250  Biso   1.000  N
  C7       1.0000 0.52180  0.73260  0.41420  Biso   1.000  C
  C8       1.0000 0.47820  0.23260  0.58580  Biso   1.000  C
  C9       1.0000 0.47460  0.83950  0.37440  Biso   1.000  C
  C10      1.0000 0.52540  0.33950  0.62560  Biso   1.000  C
  H7       1.0000 0.53050  0.88160  0.35900  Biso   1.000  H
  H8       1.0000 0.46950  0.38160  0.64100  Biso   1.000  H
  H9       1.0000 0.44310  0.88670  0.40490  Biso   1.000  H
  H10      1.0000 0.55690  0.38670  0.59510  Biso   1.000  H
  C11      1.0000 0.38470  0.79510  0.30930  Biso   1.000  C
  C12      1.0000 0.61530  0.29510  0.69070  Biso   1.000  C
  H11      1.0000 0.38120  0.83940  0.26650  Biso   1.000  H
  H12      1.0000 0.61880  0.33940  0.73350  Biso   1.000  H
  H13      1.0000 0.31270  0.79460  0.31900  Biso   1.000  H
  H14      1.0000 0.68730  0.29460  0.68100  Biso   1.000  H
  C13      1.0000 0.42550  0.67380  0.30120  Biso   1.000  C
  C14      1.0000 0.57450  0.17380  0.69880  Biso   1.000  C
  H15      1.0000 0.36270  0.62360  0.28660  Biso   1.000  H
  H16      1.0000 0.63730  0.12360  0.71340  Biso   1.000  H
  C15      1.0000 0.49160  0.67030  0.24590  Biso   1.000  C
  C16      1.0000 0.50840  0.17030  0.75410  Biso   1.000  C
  O5       1.0000 0.45200  0.66230  0.18160  Biso   1.000  O
  O6       1.0000 0.54800  0.16230  0.81840  Biso   1.000  O
  O7       1.0000 0.59910  0.67710  0.27680  Biso   1.000  O
  O8       1.0000 0.40090  0.17710  0.72320  Biso   1.000  O
  C17      1.0000 0.67630  0.67680  0.23080  Biso   1.000  C
  C18      1.0000 0.32370  0.17680  0.76920  Biso   1.000  C
  H17      1.0000 0.64670  0.63170  0.18820  Biso   1.000  H
  H18      1.0000 0.35330  0.13170  0.81180  Biso   1.000  H
  C19      1.0000 0.77970  0.62830  0.27380  Biso   1.000  C
  C20      1.0000 0.22030  0.12830  0.72620  Biso   1.000  C
  H19      1.0000 0.83480  0.62490  0.24670  Biso   1.000  H
  H20      1.0000 0.16520  0.12490  0.75330  Biso   1.000  H
  H21      1.0000 0.80750  0.67340  0.31670  Biso   1.000  H
  H22      1.0000 0.19250  0.17340  0.68330  Biso   1.000  H
  H23      1.0000 0.76420  0.55320  0.28770  Biso   1.000  H
  H24      1.0000 0.23580  0.05320  0.71230  Biso   1.000  H
  C21      1.0000 0.68930  0.79430  0.20950  Biso   1.000  C
  C22      1.0000 0.31070  0.29430  0.79050  Biso   1.000  C
  H25      1.0000 0.73960  0.79830  0.17890  Biso   1.000  H
  H26      1.0000 0.26040  0.29830  0.82110  Biso   1.000  H
  H27      1.0000 0.61760  0.82340  0.18370  Biso   1.000  H
  H28      1.0000 0.38240  0.32340  0.81630  Biso   1.000  H
  H29      1.0000 0.71850  0.83850  0.25260  Biso   1.000  H
  H30      1.0000 0.28150  0.33850  0.74740  Biso   1.000  H
  O9       1.0000 0.45390  0.43900  0.30460  Biso   1.000  O
  O10      1.0000 0.54610  0.93900  0.69540  Biso   1.000  O
  N5       1.0000 0.61240  0.33950  0.42020  Biso   1.000  N
  N6       1.0000 0.38760  0.83950  0.57980  Biso   1.000  N
  C23      1.0000 0.30750  0.41250  0.17770  Biso   1.000  C
  C24      1.0000 0.69250  0.91250  0.82230  Biso   1.000  C
  H31      1.0000 0.25810  0.38570  0.13320  Biso   1.000  H
  H32      1.0000 0.74190  0.88570  0.86680  Biso   1.000  H
  H33      1.0000 0.26520  0.45160  0.20570  Biso   1.000  H
  H34      1.0000 0.73480  0.95160  0.79430  Biso   1.000  H
  H35      1.0000 0.36130  0.46320  0.16670  Biso   1.000  H
  H36      1.0000 0.63870  0.96320  0.83330  Biso   1.000  H
  O11      1.0000 0.36240  0.31750  0.21910  Biso   1.000  O
  O12      1.0000 0.63760  0.81750  0.78090  Biso   1.000  O
  C25      1.0000 0.43640  0.33940  0.28300  Biso   1.000  C
  C26      1.0000 0.56360  0.83940  0.71700  Biso   1.000  C
  C27      1.0000 0.48990  0.24340  0.31840  Biso   1.000  C
  C28      1.0000 0.51010  0.74340  0.68160  Biso   1.000  C
  C29      1.0000 0.57820  0.24910  0.38320  Biso   1.000  C
  C30      1.0000 0.42180  0.74910  0.61680  Biso   1.000  C
  C31      1.0000 0.64300  0.14520  0.41600  Biso   1.000  C
  C32      1.0000 0.35700  0.64520  0.58400  Biso   1.000  C
  H37      1.0000 0.68830  0.11830  0.38570  Biso   1.000  H
  H38      1.0000 0.31170  0.61830  0.61430  Biso   1.000  H
  H39      1.0000 0.59340  0.08580  0.42190  Biso   1.000  H
  H40      1.0000 0.40660  0.58580  0.57810  Biso   1.000  H
  C33      1.0000 0.71470  0.18530  0.48740  Biso   1.000  C
  C34      1.0000 0.28530  0.68530  0.51260  Biso   1.000  C
  H41      1.0000 0.79000  0.15830  0.49550  Biso   1.000  H
  H42      1.0000 0.21000  0.65830  0.50450  Biso   1.000  H
  H43      1.0000 0.68490  0.16000  0.52630  Biso   1.000  H
  H44      1.0000 0.31510  0.66000  0.47370  Biso   1.000  H
  C35      1.0000 0.71050  0.31450  0.48190  Biso   1.000  C
  C36      1.0000 0.28950  0.81450  0.51810  Biso   1.000  C
  H45      1.0000 0.69810  0.34640  0.52550  Biso   1.000  H
  H46      1.0000 0.30190  0.84640  0.47450  Biso   1.000  H
  C37      1.0000 0.81420  0.36480  0.46860  Biso   1.000  C
  C38      1.0000 0.18580  0.86480  0.53140  Biso   1.000  C
  O13      1.0000 0.82360  0.40210  0.41330  Biso   1.000  O
  O14      1.0000 0.17640  0.90210  0.58670  Biso   1.000  O
  O15      1.0000 0.89670  0.35570  0.52790  Biso   1.000  O
  O16      1.0000 0.10330  0.85570  0.47210  Biso   1.000  O
  C39      1.0000 0.00830  0.39230  0.52540  Biso   1.000  C
  C40      1.0000 0.99170  0.89230  0.47460  Biso   1.000  C
  H47      1.0000 0.00380  0.44010  0.48400  Biso   1.000  H
  H48      1.0000 0.99620  0.94010  0.51600  Biso   1.000  H
  C41      1.0000 0.07070  0.29190  0.51850  Biso   1.000  C
  C42      1.0000 0.92930  0.79190  0.48150  Biso   1.000  C
  H49      1.0000 0.03560  0.25720  0.47270  Biso   1.000  H
  H50      1.0000 0.96440  0.75720  0.52730  Biso   1.000  H
  H51      1.0000 0.14760  0.30720  0.52110  Biso   1.000  H
  H52      1.0000 0.85240  0.80720  0.47890  Biso   1.000  H
  H53      1.0000 0.06650  0.24170  0.55730  Biso   1.000  H
  H54      1.0000 0.93350  0.74170  0.44270  Biso   1.000  H
  C43      1.0000 0.06120  0.45560  0.59330  Biso   1.000  C
  C44      1.0000 0.93880  0.95560  0.40670  Biso   1.000  C
  H55      1.0000 0.01850  0.52350  0.59280  Biso   1.000  H
  H56      1.0000 0.98150  0.02350  0.40720  Biso   1.000  H
  H57      1.0000 0.05670  0.40950  0.63380  Biso   1.000  H
  H58      1.0000 0.94330  0.90950  0.36620  Biso   1.000  H
  H59      1.0000 0.13780  0.47500  0.59760  Biso   1.000  H
  H60      1.0000 0.86220  0.97500  0.40240  Biso   1.000  H
  Cu3      1.0000 0.94348  0.44491  0.11711  Biso   1.000  Cu
  Cu4      1.0000 0.05652  0.94491  0.88289  Biso   1.000  Cu
  O17      1.0000 0.89390  0.60410  0.09930  Biso   1.000  O
  O18      1.0000 0.10610  0.10410  0.90070  Biso   1.000  O
  N7       1.0000 0.01940  0.48280  0.21710  Biso   1.000  N
  N8       1.0000 0.98060  0.98280  0.78290  Biso   1.000  N
  C45      1.0000 0.83410  0.80290  0.03810  Biso   1.000  C
  C46      1.0000 0.16590  0.30290  0.96190  Biso   1.000  C
  H61      1.0000 0.82410  0.88110  0.02450  Biso   1.000  H
  H62      1.0000 0.17590  0.38110  0.97550  Biso   1.000  H
  H63      1.0000 0.85900  0.76200  0.00180  Biso   1.000  H
  H64      1.0000 0.14100  0.26200  0.99820  Biso   1.000  H
  H65      1.0000 0.76440  0.77190  0.04210  Biso   1.000  H
  H66      1.0000 0.23560  0.27190  0.95790  Biso   1.000  H
  O19      1.0000 0.91470  0.79270  0.10700  Biso   1.000  O
  O20      1.0000 0.08530  0.29270  0.89300  Biso   1.000  O
  C47      1.0000 0.94030  0.68830  0.13500  Biso   1.000  C
  C48      1.0000 0.05970  0.18830  0.86500  Biso   1.000  C
  C49      1.0000 0.01780  0.68590  0.20300  Biso   1.000  C
  C50      1.0000 0.98220  0.18590  0.79700  Biso   1.000  C
  C51      1.0000 0.05920  0.78890  0.23770  Biso   1.000  C
  C52      1.0000 0.94080  0.28890  0.76230  Biso   1.000  C
  N9       1.0000 0.44480  0.05060  0.25570  Biso   1.000  N
  N10      1.0000 0.55520  0.55060  0.74430  Biso   1.000  N
  C53      1.0000 0.46350  0.13540  0.28390  Biso   1.000  C
  C54      1.0000 0.53650  0.63540  0.71610  Biso   1.000  C
  N11      1.0000 0.09390  0.86960  0.26530  Biso   1.000  N
  N12      1.0000 0.90610  0.36960  0.73470  Biso   1.000  N
  C55      1.0000 0.04660  0.58450  0.24280  Biso   1.000  C
  C56      1.0000 0.95340  0.08450  0.75720  Biso   1.000  C
  C57      1.0000 0.11450  0.58370  0.32040  Biso   1.000  C
  C58      1.0000 0.88550  0.08370  0.67960  Biso   1.000  C
  H67      1.0000 0.08940  0.64150  0.34790  Biso   1.000  H
  H68      1.0000 0.91060  0.14150  0.65210  Biso   1.000  H
  H69      1.0000 0.19240  0.59500  0.32400  Biso   1.000  H
  H70      1.0000 0.80760  0.09500  0.67600  Biso   1.000  H
  C59      1.0000 0.09290  0.46730  0.34470  Biso   1.000  C
  C60      1.0000 0.90710  0.96730  0.65530  Biso   1.000  C
  H71      1.0000 0.03280  0.46820  0.36770  Biso   1.000  H
  H72      1.0000 0.96720  0.96820  0.63230  Biso   1.000  H
  H73      1.0000 0.15860  0.43740  0.37800  Biso   1.000  H
  H74      1.0000 0.84140  0.93740  0.62200  Biso   1.000  H
  C61      1.0000 0.05960  0.39710  0.27440  Biso   1.000  C
  C62      1.0000 0.94040  0.89710  0.72560  Biso   1.000  C
  H75      1.0000 0.12500  0.36130  0.26670  Biso   1.000  H
  H76      1.0000 0.87500  0.86130  0.73330  Biso   1.000  H
  C63      1.0000 0.97840  0.31010  0.28030  Biso   1.000  C
  C64      1.0000 0.02160  0.81010  0.71970  Biso   1.000  C
  O21      1.0000 0.00200  0.22940  0.32000  Biso   1.000  O
  O22      1.0000 0.99800  0.72940  0.68000  Biso   1.000  O
  O23      1.0000 0.87630  0.32850  0.24010  Biso   1.000  O
  O24      1.0000 0.12370  0.82850  0.75990  Biso   1.000  O
  C65      1.0000 0.78950  0.24830  0.24340  Biso   1.000  C
  C66      1.0000 0.21050  0.74830  0.75660  Biso   1.000  C
  H77      1.0000 0.79890  0.22420  0.29270  Biso   1.000  H
  H78      1.0000 0.20110  0.72420  0.70730  Biso   1.000  H
  C67      1.0000 0.79750  0.14880  0.19720  Biso   1.000  C
  C68      1.0000 0.20250  0.64880  0.80280  Biso   1.000  C
  H79      1.0000 0.86840  0.11300  0.21730  Biso   1.000  H
  H80      1.0000 0.13160  0.61300  0.78270  Biso   1.000  H
  H81      1.0000 0.73860  0.09560  0.19600  Biso   1.000  H
  H82      1.0000 0.26140  0.59560  0.80400  Biso   1.000  H
  H83      1.0000 0.79330  0.17420  0.14870  Biso   1.000  H
  H84      1.0000 0.20670  0.67420  0.85130  Biso   1.000  H
  C69      1.0000 0.68470  0.30820  0.22000  Biso   1.000  C
  C70      1.0000 0.31530  0.80820  0.78000  Biso   1.000  C
  H85      1.0000 0.68350  0.37010  0.25230  Biso   1.000  H
  H86      1.0000 0.31650  0.87010  0.74770  Biso   1.000  H
  H87      1.0000 0.67820  0.33670  0.17190  Biso   1.000  H
  H88      1.0000 0.32180  0.83670  0.82810  Biso   1.000  H
  H89      1.0000 0.62340  0.25810  0.21910  Biso   1.000  H
  H90      1.0000 0.37660  0.75810  0.78090  Biso   1.000  H
  O25      1.0000 0.01570  0.29380  0.13120  Biso   1.000  O
  O26      1.0000 0.98430  0.79380  0.86880  Biso   1.000  O
  N13      1.0000 0.84660  0.39740  0.02420  Biso   1.000  N
  N14      1.0000 0.15340  0.89740  0.97580  Biso   1.000  N
  C71      1.0000 0.13430  0.11400  0.17690  Biso   1.000  C
  C72      1.0000 0.86570  0.61400  0.82310  Biso   1.000  C
  H91      1.0000 0.17230  0.04240  0.18390  Biso   1.000  H
  H92      1.0000 0.82770  0.54240  0.81610  Biso   1.000  H
  H93      1.0000 0.18760  0.17370  0.17960  Biso   1.000  H
  H94      1.0000 0.81240  0.67370  0.82040  Biso   1.000  H
  H95      1.0000 0.09600  0.12460  0.21410  Biso   1.000  H
  H96      1.0000 0.90400  0.62460  0.78590  Biso   1.000  H
  O27      1.0000 0.05730  0.11730  0.10730  Biso   1.000  O
  O28      1.0000 0.94270  0.61730  0.89270  Biso   1.000  O
  C73      1.0000 0.99790  0.21190  0.08910  Biso   1.000  C
  C74      1.0000 0.00210  0.71190  0.91090  Biso   1.000  C
  C75      1.0000 0.92020  0.20930  0.02050  Biso   1.000  C
  C76      1.0000 0.07980  0.70930  0.97950  Biso   1.000  C
  C77      1.0000 0.91030  0.10750  0.97810  Biso   1.000  C
  C78      1.0000 0.08970  0.60750  0.02190  Biso   1.000  C
  N15      1.0000 0.90390  0.02760  0.94360  Biso   1.000  N
  N16      1.0000 0.09610  0.52760  0.05640  Biso   1.000  N
  C79      1.0000 0.85080  0.30210  0.99120  Biso   1.000  C
  C80      1.0000 0.14920  0.80210  0.00880  Biso   1.000  C
  C81      1.0000 0.61080  0.84280  0.52100  Biso   1.000  C
  C82      1.0000 0.38920  0.34280  0.47900  Biso   1.000  C
  C83      1.0000 0.77330  0.29870  0.91560  Biso   1.000  C
  C84      1.0000 0.22670  0.79870  0.08440  Biso   1.000  C
  H97      1.0000 0.72800  0.23170  0.90930  Biso   1.000  H
  H98      1.0000 0.27200  0.73170  0.09070  Biso   1.000  H
  H99      1.0000 0.81350  0.30030  0.87890  Biso   1.000  H
  H100     1.0000 0.18650  0.80030  0.12110  Biso   1.000  H
  C85      1.0000 0.70310  0.40270  0.91240  Biso   1.000  C
  C86      1.0000 0.29690  0.90270  0.08760  Biso   1.000  C
  H101     1.0000 0.62930  0.38350  0.91550  Biso   1.000  H
  H102     1.0000 0.37070  0.88350  0.08450  Biso   1.000  H
  H103     1.0000 0.69750  0.44300  0.86790  Biso   1.000  H
  H104     1.0000 0.30250  0.94300  0.13210  Biso   1.000  H
  C87      1.0000 0.76140  0.47240  0.97790  Biso   1.000  C
  C88      1.0000 0.23860  0.97240  0.02210  Biso   1.000  C
  H105     1.0000 0.79730  0.53650  0.96280  Biso   1.000  H
  H106     1.0000 0.20270  0.03650  0.03720  Biso   1.000  H
  C89      1.0000 0.67970  0.51180  0.01870  Biso   1.000  C
  C90      1.0000 0.32030  0.01180  0.98130  Biso   1.000  C
  O29      1.0000 0.67180  0.47780  0.07570  Biso   1.000  O
  O30      1.0000 0.32820  0.97780  0.92430  Biso   1.000  O
  O31      1.0000 0.61630  0.59140  0.97980  Biso   1.000  O
  O32      1.0000 0.38370  0.09140  0.02020  Biso   1.000  O
  C91      1.0000 0.52220  0.62900  0.00370  Biso   1.000  C
  C92      1.0000 0.47780  0.12900  0.99630  Biso   1.000  C
  H107     1.0000 0.54240  0.63340  0.05580  Biso   1.000  H
  H108     1.0000 0.45760  0.13340  0.94420  Biso   1.000  H
  C93      1.0000 0.49280  0.73690  0.97210  Biso   1.000  C
  C94      1.0000 0.50720  0.23690  0.02790  Biso   1.000  C
  H109     1.0000 0.42840  0.76630  0.98480  Biso   1.000  H
  H110     1.0000 0.57160  0.26630  0.01520  Biso   1.000  H
  H111     1.0000 0.55580  0.78500  0.99190  Biso   1.000  H
  H112     1.0000 0.44420  0.28500  0.00810  Biso   1.000  H
  H113     1.0000 0.47860  0.73420  0.92010  Biso   1.000  H
  H114     1.0000 0.52140  0.23420  0.07990  Biso   1.000  H
  C95      1.0000 0.42450  0.55500  0.97880  Biso   1.000  C
  C96      1.0000 0.57550  0.05500  0.02120  Biso   1.000  C
  H115     1.0000 0.44280  0.48090  0.99920  Biso   1.000  H
  H116     1.0000 0.55720  0.98090  0.00080  Biso   1.000  H
  H117     1.0000 0.36320  0.58520  0.99480  Biso   1.000  H
  H118     1.0000 0.63680  0.08520  0.00520  Biso   1.000  H
  H119     1.0000 0.40370  0.54990  0.92670  Biso   1.000  H
  H120     1.0000 0.59630  0.04990  0.07330  Biso   1.000  H
