data_image0
_cell_length_a       19.5109
_cell_length_b       18.82
_cell_length_c       13.9091
_cell_angle_alpha    90
_cell_angle_beta     109.813
_cell_angle_gamma    90

_symmetry_space_group_name_H-M    "P 1"
_symmetry_int_tables_number       1

loop_
  _symmetry_equiv_pos_as_xyz
  'x, y, z'

loop_
  _atom_site_label
  _atom_site_occupancy
  _atom_site_fract_x
  _atom_site_fract_y
  _atom_site_fract_z
  _atom_site_thermal_displace_type
  _atom_site_B_iso_or_equiv
  _atom_site_type_symbol
  U1       1.0000 0.72768  0.47138  0.73013  Biso   1.000  U
  U2       1.0000 0.27232  0.47138  0.26987  Biso   1.000  U
  U3       1.0000 0.22768  0.97138  0.73013  Biso   1.000  U
  U4       1.0000 0.77232  0.97138  0.26987  Biso   1.000  U
  U5       1.0000 0.77202  0.47104  0.27943  Biso   1.000  U
  U6       1.0000 0.22798  0.47104  0.72057  Biso   1.000  U
  U7       1.0000 0.27202  0.97104  0.27943  Biso   1.000  U
  U8       1.0000 0.72798  0.97104  0.72057  Biso   1.000  U
  Cu1      1.0000 0.75143  0.46840  0.00705  Biso   1.000  Cu
  Cu2      1.0000 0.24857  0.46840  0.99295  Biso   1.000  Cu
  Cu3      1.0000 0.25143  0.96840  0.00705  Biso   1.000  Cu
  Cu4      1.0000 0.74857  0.96840  0.99295  Biso   1.000  Cu
  O1       1.0000 0.71950  0.53080  0.82570  Biso   1.000  O
  O2       1.0000 0.28050  0.53080  0.17430  Biso   1.000  O
  O3       1.0000 0.21950  0.03080  0.82570  Biso   1.000  O
  O4       1.0000 0.78050  0.03080  0.17430  Biso   1.000  O
  O5       1.0000 0.73280  0.41360  0.63400  Biso   1.000  O
  O6       1.0000 0.26720  0.41360  0.36600  Biso   1.000  O
  O7       1.0000 0.23280  0.91360  0.63400  Biso   1.000  O
  O8       1.0000 0.76720  0.91360  0.36600  Biso   1.000  O
  O9       1.0000 0.78510  0.41540  0.18310  Biso   1.000  O
  O10      1.0000 0.21490  0.41540  0.81690  Biso   1.000  O
  O11      1.0000 0.28510  0.91540  0.18310  Biso   1.000  O
  O12      1.0000 0.71490  0.91540  0.81690  Biso   1.000  O
  O13      1.0000 0.75960  0.52480  0.37750  Biso   1.000  O
  O14      1.0000 0.24040  0.52480  0.62250  Biso   1.000  O
  O15      1.0000 0.25960  0.02480  0.37750  Biso   1.000  O
  O16      1.0000 0.74040  0.02480  0.62250  Biso   1.000  O
  O17      1.0000 0.70330  0.56940  0.60950  Biso   1.000  O
  O18      1.0000 0.29670  0.56940  0.39050  Biso   1.000  O
  O19      1.0000 0.20330  0.06940  0.60950  Biso   1.000  O
  O20      1.0000 0.79670  0.06940  0.39050  Biso   1.000  O
  O21      1.0000 0.81950  0.54960  0.70300  Biso   1.000  O
  O22      1.0000 0.18050  0.54960  0.29700  Biso   1.000  O
  O23      1.0000 0.31950  0.04960  0.70300  Biso   1.000  O
  O24      1.0000 0.68050  0.04960  0.29700  Biso   1.000  O
  O25      1.0000 0.81630  0.88610  0.69890  Biso   1.000  O
  O26      1.0000 0.18370  0.88610  0.30110  Biso   1.000  O
  O27      1.0000 0.31630  0.38610  0.69890  Biso   1.000  O
  O28      1.0000 0.68370  0.38610  0.30110  Biso   1.000  O
  O29      1.0000 0.70280  0.87050  0.60470  Biso   1.000  O
  O30      1.0000 0.29720  0.87050  0.39530  Biso   1.000  O
  O31      1.0000 0.20280  0.37050  0.60470  Biso   1.000  O
  O32      1.0000 0.79720  0.37050  0.39530  Biso   1.000  O
  O33      1.0000 0.68960  0.37580  0.80480  Biso   1.000  O
  O34      1.0000 0.31040  0.37580  0.19520  Biso   1.000  O
  O35      1.0000 0.18960  0.87580  0.80480  Biso   1.000  O
  O36      1.0000 0.81040  0.87580  0.19520  Biso   1.000  O
  O37      1.0000 0.69150  0.38210  0.96680  Biso   1.000  O
  O38      1.0000 0.30850  0.38210  0.03320  Biso   1.000  O
  O39      1.0000 0.19150  0.88210  0.96680  Biso   1.000  O
  O40      1.0000 0.80850  0.88210  0.03320  Biso   1.000  O
  O41      1.0000 0.69000  0.06800  0.79550  Biso   1.000  O
  O42      1.0000 0.31000  0.06800  0.20450  Biso   1.000  O
  O43      1.0000 0.19000  0.56800  0.79550  Biso   1.000  O
  O44      1.0000 0.81000  0.56800  0.20450  Biso   1.000  O
  O45      1.0000 0.68700  0.05170  0.94990  Biso   1.000  O
  O46      1.0000 0.31300  0.05170  0.05010  Biso   1.000  O
  O47      1.0000 0.18700  0.55170  0.94990  Biso   1.000  O
  O48      1.0000 0.81300  0.55170  0.05010  Biso   1.000  O
  O49      1.0000 0.83470  0.41580  0.00320  Biso   1.000  O
  O50      1.0000 0.16530  0.41580  0.99680  Biso   1.000  O
  O51      1.0000 0.33470  0.91580  0.00320  Biso   1.000  O
  O52      1.0000 0.66530  0.91580  0.99680  Biso   1.000  O
  O53      1.0000 0.83680  0.42670  0.84410  Biso   1.000  O
  O54      1.0000 0.16320  0.42670  0.15590  Biso   1.000  O
  O55      1.0000 0.33680  0.92670  0.84410  Biso   1.000  O
  O56      1.0000 0.66320  0.92670  0.15590  Biso   1.000  O
  O57      1.0000 0.65830  0.51190  0.16300  Biso   1.000  O
  O58      1.0000 0.34170  0.51190  0.83700  Biso   1.000  O
  O59      1.0000 0.15830  0.01190  0.16300  Biso   1.000  O
  O60      1.0000 0.84170  0.01190  0.83700  Biso   1.000  O
  O61      1.0000 0.66530  0.51980  0.00790  Biso   1.000  O
  O62      1.0000 0.33470  0.51980  0.99210  Biso   1.000  O
  O63      1.0000 0.16530  0.01980  0.00790  Biso   1.000  O
  O64      1.0000 0.83470  0.01980  0.99210  Biso   1.000  O
  O65      1.0000 0.59850  0.47990  0.65340  Biso   1.000  O
  O66      1.0000 0.40150  0.47990  0.34660  Biso   1.000  O
  O67      1.0000 0.09850  0.97990  0.65340  Biso   1.000  O
  O68      1.0000 0.90150  0.97990  0.34660  Biso   1.000  O
  O69      1.0000 0.90200  0.47540  0.36270  Biso   1.000  O
  O70      1.0000 0.09800  0.47540  0.63730  Biso   1.000  O
  O71      1.0000 0.40200  0.97540  0.36270  Biso   1.000  O
  O72      1.0000 0.59800  0.97540  0.63730  Biso   1.000  O
  N1       1.0000 0.48180  0.50800  0.62250  Biso   1.000  N
  N2       1.0000 0.51820  0.50800  0.37750  Biso   1.000  N
  N3       1.0000 0.98180  0.00800  0.62250  Biso   1.000  N
  N4       1.0000 0.01820  0.00800  0.37750  Biso   1.000  N
  N5       1.0000 0.02110  0.45800  0.38340  Biso   1.000  N
  N6       1.0000 0.97890  0.45800  0.61660  Biso   1.000  N
  N7       1.0000 0.52110  0.95800  0.38340  Biso   1.000  N
  N8       1.0000 0.47890  0.95800  0.61660  Biso   1.000  N
  C1       1.0000 0.79120  0.65540  0.59200  Biso   1.000  C
  C2       1.0000 0.20880  0.65540  0.40800  Biso   1.000  C
  C3       1.0000 0.29120  0.15540  0.59200  Biso   1.000  C
  C4       1.0000 0.70880  0.15540  0.40800  Biso   1.000  C
  H1       1.0000 0.84100  0.64830  0.59220  Biso   1.000  H
  H2       1.0000 0.15900  0.64830  0.40780  Biso   1.000  H
  H3       1.0000 0.34100  0.14830  0.59220  Biso   1.000  H
  H4       1.0000 0.65900  0.14830  0.40780  Biso   1.000  H
  C5       1.0000 0.79200  0.71740  0.65920  Biso   1.000  C
  C6       1.0000 0.20800  0.71740  0.34080  Biso   1.000  C
  C7       1.0000 0.29200  0.21740  0.65920  Biso   1.000  C
  C8       1.0000 0.70800  0.21740  0.34080  Biso   1.000  C
  C9       1.0000 0.78680  0.78530  0.58780  Biso   1.000  C
  C10      1.0000 0.21320  0.78530  0.41220  Biso   1.000  C
  C11      1.0000 0.28680  0.28530  0.58780  Biso   1.000  C
  C12      1.0000 0.71320  0.28530  0.41220  Biso   1.000  C
  C13      1.0000 0.72380  0.75370  0.49100  Biso   1.000  C
  C14      1.0000 0.27620  0.75370  0.50900  Biso   1.000  C
  C15      1.0000 0.22380  0.25370  0.49100  Biso   1.000  C
  C16      1.0000 0.77620  0.25370  0.50900  Biso   1.000  C
  H5       1.0000 0.72250  0.77770  0.42870  Biso   1.000  H
  H6       1.0000 0.27750  0.77770  0.57130  Biso   1.000  H
  H7       1.0000 0.22250  0.27770  0.42870  Biso   1.000  H
  H8       1.0000 0.77750  0.27770  0.57130  Biso   1.000  H
  H9       1.0000 0.67660  0.75820  0.49920  Biso   1.000  H
  H10      1.0000 0.32340  0.75820  0.50080  Biso   1.000  H
  H11      1.0000 0.17660  0.25820  0.49920  Biso   1.000  H
  H12      1.0000 0.82340  0.25820  0.50080  Biso   1.000  H
  C17      1.0000 0.74610  0.67190  0.48910  Biso   1.000  C
  C18      1.0000 0.25390  0.67190  0.51090  Biso   1.000  C
  C19      1.0000 0.24610  0.17190  0.48910  Biso   1.000  C
  C20      1.0000 0.75390  0.17190  0.51090  Biso   1.000  C
  H13      1.0000 0.70310  0.64200  0.46780  Biso   1.000  H
  H14      1.0000 0.29690  0.64200  0.53220  Biso   1.000  H
  H15      1.0000 0.20310  0.14200  0.46780  Biso   1.000  H
  H16      1.0000 0.79690  0.14200  0.53220  Biso   1.000  H
  H17      1.0000 0.77270  0.66490  0.44230  Biso   1.000  H
  H18      1.0000 0.22730  0.66490  0.55770  Biso   1.000  H
  H19      1.0000 0.27270  0.16490  0.44230  Biso   1.000  H
  H20      1.0000 0.72730  0.16490  0.55770  Biso   1.000  H
  C21      1.0000 0.76880  0.58820  0.63630  Biso   1.000  C
  C22      1.0000 0.23120  0.58820  0.36370  Biso   1.000  C
  C23      1.0000 0.26880  0.08820  0.63630  Biso   1.000  C
  C24      1.0000 0.73120  0.08820  0.36370  Biso   1.000  C
  C25      1.0000 0.77170  0.85140  0.63480  Biso   1.000  C
  C26      1.0000 0.22830  0.85140  0.36520  Biso   1.000  C
  C27      1.0000 0.27170  0.35140  0.63480  Biso   1.000  C
  C28      1.0000 0.72830  0.35140  0.36520  Biso   1.000  C
  C29      1.0000 0.87000  0.71560  0.75070  Biso   1.000  C
  C30      1.0000 0.13000  0.71560  0.24930  Biso   1.000  C
  C31      1.0000 0.37000  0.21560  0.75070  Biso   1.000  C
  C32      1.0000 0.63000  0.21560  0.24930  Biso   1.000  C
  H21      1.0000 0.86840  0.68150  0.80120  Biso   1.000  H
  H22      1.0000 0.13160  0.68150  0.19880  Biso   1.000  H
  H23      1.0000 0.36840  0.18150  0.80120  Biso   1.000  H
  H24      1.0000 0.63160  0.18150  0.19880  Biso   1.000  H
  H25      1.0000 0.88060  0.76180  0.78150  Biso   1.000  H
  H26      1.0000 0.11940  0.76180  0.21850  Biso   1.000  H
  H27      1.0000 0.38060  0.26180  0.78150  Biso   1.000  H
  H28      1.0000 0.61940  0.26180  0.21850  Biso   1.000  H
  H29      1.0000 0.90740  0.70240  0.72360  Biso   1.000  H
  H30      1.0000 0.09260  0.70240  0.27640  Biso   1.000  H
  H31      1.0000 0.40740  0.20240  0.72360  Biso   1.000  H
  H32      1.0000 0.59260  0.20240  0.27640  Biso   1.000  H
  C33      1.0000 0.73800  0.72010  0.71260  Biso   1.000  C
  C34      1.0000 0.26200  0.72010  0.28740  Biso   1.000  C
  C35      1.0000 0.23800  0.22010  0.71260  Biso   1.000  C
  C36      1.0000 0.76200  0.22010  0.28740  Biso   1.000  C
  H33      1.0000 0.69030  0.72780  0.66360  Biso   1.000  H
  H34      1.0000 0.30970  0.72780  0.33640  Biso   1.000  H
  H35      1.0000 0.19030  0.22780  0.66360  Biso   1.000  H
  H36      1.0000 0.80970  0.22780  0.33640  Biso   1.000  H
  H37      1.0000 0.75000  0.75830  0.76120  Biso   1.000  H
  H38      1.0000 0.25000  0.75830  0.23880  Biso   1.000  H
  H39      1.0000 0.25000  0.25830  0.76120  Biso   1.000  H
  H40      1.0000 0.75000  0.25830  0.23880  Biso   1.000  H
  H41      1.0000 0.73870  0.67590  0.74750  Biso   1.000  H
  H42      1.0000 0.26130  0.67590  0.25250  Biso   1.000  H
  H43      1.0000 0.23870  0.17590  0.74750  Biso   1.000  H
  H44      1.0000 0.76130  0.17590  0.25250  Biso   1.000  H
  C37      1.0000 0.85630  0.79200  0.55750  Biso   1.000  C
  C38      1.0000 0.14370  0.79200  0.44250  Biso   1.000  C
  C39      1.0000 0.35630  0.29200  0.55750  Biso   1.000  C
  C40      1.0000 0.64370  0.29200  0.44250  Biso   1.000  C
  H45      1.0000 0.85650  0.83740  0.52600  Biso   1.000  H
  H46      1.0000 0.14350  0.83740  0.47400  Biso   1.000  H
  H47      1.0000 0.35650  0.33740  0.52600  Biso   1.000  H
  H48      1.0000 0.64350  0.33740  0.47400  Biso   1.000  H
  H49      1.0000 0.85660  0.75490  0.51030  Biso   1.000  H
  H50      1.0000 0.14340  0.75490  0.48970  Biso   1.000  H
  H51      1.0000 0.35660  0.25490  0.51030  Biso   1.000  H
  H52      1.0000 0.64340  0.25490  0.48970  Biso   1.000  H
  H53      1.0000 0.89880  0.78790  0.61750  Biso   1.000  H
  H54      1.0000 0.10120  0.78790  0.38250  Biso   1.000  H
  H55      1.0000 0.39880  0.28790  0.61750  Biso   1.000  H
  H56      1.0000 0.60120  0.28790  0.38250  Biso   1.000  H
  C41      1.0000 0.63250  0.28490  0.86920  Biso   1.000  C
  C42      1.0000 0.36750  0.28490  0.13080  Biso   1.000  C
  C43      1.0000 0.13250  0.78490  0.86920  Biso   1.000  C
  C44      1.0000 0.86750  0.78490  0.13080  Biso   1.000  C
  C45      1.0000 0.67180  0.22310  0.84130  Biso   1.000  C
  C46      1.0000 0.32820  0.22310  0.15870  Biso   1.000  C
  C47      1.0000 0.17180  0.72310  0.84130  Biso   1.000  C
  C48      1.0000 0.82820  0.72310  0.15870  Biso   1.000  C
  C49      1.0000 0.62950  0.15550  0.85970  Biso   1.000  C
  C50      1.0000 0.37050  0.15550  0.14030  Biso   1.000  C
  C51      1.0000 0.12950  0.65550  0.85970  Biso   1.000  C
  C52      1.0000 0.87050  0.65550  0.14030  Biso   1.000  C
  H57      1.0000 0.58630  0.15040  0.79840  Biso   1.000  H
  H58      1.0000 0.41370  0.15040  0.20160  Biso   1.000  H
  H59      1.0000 0.08630  0.65040  0.79840  Biso   1.000  H
  H60      1.0000 0.91370  0.65040  0.20160  Biso   1.000  H
  C53      1.0000 0.60310  0.17280  0.94320  Biso   1.000  C
  C54      1.0000 0.39690  0.17280  0.05680  Biso   1.000  C
  C55      1.0000 0.10310  0.67280  0.94320  Biso   1.000  C
  C56      1.0000 0.89690  0.67280  0.05680  Biso   1.000  C
  H61      1.0000 0.63050  0.14700  0.00460  Biso   1.000  H
  H62      1.0000 0.36950  0.14700  0.99540  Biso   1.000  H
  H63      1.0000 0.13050  0.64700  0.00460  Biso   1.000  H
  H64      1.0000 0.86950  0.64700  0.99540  Biso   1.000  H
  H65      1.0000 0.55190  0.16070  0.92520  Biso   1.000  H
  H66      1.0000 0.44810  0.16070  0.07480  Biso   1.000  H
  H67      1.0000 0.05190  0.66070  0.92520  Biso   1.000  H
  H68      1.0000 0.94810  0.66070  0.07480  Biso   1.000  H
  C57      1.0000 0.61440  0.25380  0.96000  Biso   1.000  C
  C58      1.0000 0.38560  0.25380  0.04000  Biso   1.000  C
  C59      1.0000 0.11440  0.75380  0.96000  Biso   1.000  C
  C60      1.0000 0.88560  0.75380  0.04000  Biso   1.000  C
  H69      1.0000 0.57050  0.27560  0.96430  Biso   1.000  H
  H70      1.0000 0.42950  0.27560  0.03570  Biso   1.000  H
  H71      1.0000 0.07050  0.77560  0.96430  Biso   1.000  H
  H72      1.0000 0.92950  0.77560  0.03570  Biso   1.000  H
  H73      1.0000 0.65400  0.26300  0.02330  Biso   1.000  H
  H74      1.0000 0.34600  0.26300  0.97670  Biso   1.000  H
  H75      1.0000 0.15400  0.76300  0.02330  Biso   1.000  H
  H76      1.0000 0.84600  0.76300  0.97670  Biso   1.000  H
  C61      1.0000 0.67560  0.35550  0.88220  Biso   1.000  C
  C62      1.0000 0.32440  0.35550  0.11780  Biso   1.000  C
  C63      1.0000 0.17560  0.85550  0.88220  Biso   1.000  C
  C64      1.0000 0.82440  0.85550  0.11780  Biso   1.000  C
  C65      1.0000 0.67210  0.08630  0.87080  Biso   1.000  C
  C66      1.0000 0.32790  0.08630  0.12920  Biso   1.000  C
  C67      1.0000 0.17210  0.58630  0.87080  Biso   1.000  C
  C68      1.0000 0.82790  0.58630  0.12920  Biso   1.000  C
  C69      1.0000 0.67020  0.22770  0.73000  Biso   1.000  C
  C70      1.0000 0.32980  0.22770  0.27000  Biso   1.000  C
  C71      1.0000 0.17020  0.72770  0.73000  Biso   1.000  C
  C72      1.0000 0.82980  0.72770  0.27000  Biso   1.000  C
  H77      1.0000 0.68940  0.27280  0.71910  Biso   1.000  H
  H78      1.0000 0.31060  0.27280  0.28090  Biso   1.000  H
  H79      1.0000 0.18940  0.77280  0.71910  Biso   1.000  H
  H80      1.0000 0.81060  0.77280  0.28090  Biso   1.000  H
  H81      1.0000 0.62090  0.22300  0.68450  Biso   1.000  H
  H82      1.0000 0.37910  0.22300  0.31550  Biso   1.000  H
  H83      1.0000 0.12090  0.72300  0.68450  Biso   1.000  H
  H84      1.0000 0.87910  0.72300  0.31550  Biso   1.000  H
  H85      1.0000 0.69930  0.19020  0.71720  Biso   1.000  H
  H86      1.0000 0.30070  0.19020  0.28280  Biso   1.000  H
  H87      1.0000 0.19930  0.69020  0.71720  Biso   1.000  H
  H88      1.0000 0.80070  0.69020  0.28280  Biso   1.000  H
  C73      1.0000 0.75160  0.22060  0.89490  Biso   1.000  C
  C74      1.0000 0.24840  0.22060  0.10510  Biso   1.000  C
  C75      1.0000 0.25160  0.72060  0.89490  Biso   1.000  C
  C76      1.0000 0.74840  0.72060  0.10510  Biso   1.000  C
  H89      1.0000 0.76140  0.21680  0.96720  Biso   1.000  H
  H90      1.0000 0.23860  0.21680  0.03280  Biso   1.000  H
  H91      1.0000 0.26140  0.71680  0.96720  Biso   1.000  H
  H92      1.0000 0.73860  0.71680  0.03280  Biso   1.000  H
  H93      1.0000 0.77340  0.26320  0.88070  Biso   1.000  H
  H94      1.0000 0.22660  0.26320  0.11930  Biso   1.000  H
  H95      1.0000 0.27340  0.76320  0.88070  Biso   1.000  H
  H96      1.0000 0.72660  0.76320  0.11930  Biso   1.000  H
  H97      1.0000 0.77160  0.18010  0.87170  Biso   1.000  H
  H98      1.0000 0.22840  0.18010  0.12830  Biso   1.000  H
  H99      1.0000 0.27160  0.68010  0.87170  Biso   1.000  H
  H100     1.0000 0.72840  0.68010  0.12830  Biso   1.000  H
  C77      1.0000 0.55830  0.29280  0.78510  Biso   1.000  C
  C78      1.0000 0.44170  0.29280  0.21490  Biso   1.000  C
  C79      1.0000 0.05830  0.79280  0.78510  Biso   1.000  C
  C80      1.0000 0.94170  0.79280  0.21490  Biso   1.000  C
  H101     1.0000 0.53770  0.33810  0.79140  Biso   1.000  H
  H102     1.0000 0.46230  0.33810  0.20860  Biso   1.000  H
  H103     1.0000 0.03770  0.83810  0.79140  Biso   1.000  H
  H104     1.0000 0.96230  0.83810  0.20860  Biso   1.000  H
  H105     1.0000 0.52640  0.25570  0.79170  Biso   1.000  H
  H106     1.0000 0.47360  0.25570  0.20830  Biso   1.000  H
  H107     1.0000 0.02640  0.75570  0.79170  Biso   1.000  H
  H108     1.0000 0.97360  0.75570  0.20830  Biso   1.000  H
  H109     1.0000 0.56420  0.28940  0.71950  Biso   1.000  H
  H110     1.0000 0.43580  0.28940  0.28050  Biso   1.000  H
  H111     1.0000 0.06420  0.78940  0.71950  Biso   1.000  H
  H112     1.0000 0.93580  0.78940  0.28050  Biso   1.000  H
  C81      1.0000 0.93560  0.36730  0.96850  Biso   1.000  C
  C82      1.0000 0.06440  0.36730  0.03150  Biso   1.000  C
  C83      1.0000 0.43560  0.86730  0.96850  Biso   1.000  C
  C84      1.0000 0.56440  0.86730  0.03150  Biso   1.000  C
  C85      1.0000 0.00000  0.42040  0.00000  Biso   1.000  C
  C86      1.0000 0.50000  0.92040  0.00000  Biso   1.000  C
  C87      1.0000 0.96870  0.32870  0.06970  Biso   1.000  C
  C88      1.0000 0.03130  0.32870  0.93030  Biso   1.000  C
  C89      1.0000 0.46870  0.82870  0.06970  Biso   1.000  C
  C90      1.0000 0.53130  0.82870  0.93030  Biso   1.000  C
  C91      1.0000 0.86340  0.40610  0.93560  Biso   1.000  C
  C92      1.0000 0.13660  0.40610  0.06440  Biso   1.000  C
  C93      1.0000 0.36340  0.90610  0.93560  Biso   1.000  C
  C94      1.0000 0.63660  0.90610  0.06440  Biso   1.000  C
  C95      1.0000 0.56620  0.57120  0.03460  Biso   1.000  C
  C96      1.0000 0.43380  0.57120  0.96540  Biso   1.000  C
  C97      1.0000 0.06620  0.07120  0.03460  Biso   1.000  C
  C98      1.0000 0.93380  0.07120  0.96540  Biso   1.000  C
  C99      1.0000 0.49870  0.51920  0.02730  Biso   1.000  C
  C100     1.0000 0.50130  0.51920  0.97270  Biso   1.000  C
  C101     1.0000 0.99870  0.01920  0.02730  Biso   1.000  C
  C102     1.0000 0.00130  0.01920  0.97270  Biso   1.000  C
  C103     1.0000 0.55780  0.61960  0.95030  Biso   1.000  C
  C104     1.0000 0.44220  0.61960  0.04970  Biso   1.000  C
  C105     1.0000 0.05780  0.11960  0.95030  Biso   1.000  C
  C106     1.0000 0.94220  0.11960  0.04970  Biso   1.000  C
  C107     1.0000 0.47400  0.61210  0.89800  Biso   1.000  C
  C108     1.0000 0.52600  0.61210  0.10200  Biso   1.000  C
  C109     1.0000 0.97400  0.11210  0.89800  Biso   1.000  C
  C110     1.0000 0.02600  0.11210  0.10200  Biso   1.000  C
  C111     1.0000 0.63560  0.53010  0.07130  Biso   1.000  C
  C112     1.0000 0.36440  0.53010  0.92870  Biso   1.000  C
  C113     1.0000 0.13560  0.03010  0.07130  Biso   1.000  C
  C114     1.0000 0.86440  0.03010  0.92870  Biso   1.000  C
  C115     1.0000 0.49870  0.45720  0.95690  Biso   1.000  C
  C116     1.0000 0.50130  0.45720  0.04310  Biso   1.000  C
  C117     1.0000 0.99870  0.95720  0.95690  Biso   1.000  C
  C118     1.0000 0.00130  0.95720  0.04310  Biso   1.000  C
  C119     1.0000 0.49760  0.48910  0.12850  Biso   1.000  C
  C120     1.0000 0.50240  0.48910  0.87150  Biso   1.000  C
  C121     1.0000 0.99760  0.98910  0.12850  Biso   1.000  C
  C122     1.0000 0.00240  0.98910  0.87150  Biso   1.000  C
  C123     1.0000 0.54780  0.52400  0.64680  Biso   1.000  C
  C124     1.0000 0.45220  0.52400  0.35320  Biso   1.000  C
  C125     1.0000 0.04780  0.02400  0.64680  Biso   1.000  C
  C126     1.0000 0.95220  0.02400  0.35320  Biso   1.000  C
  C127     1.0000 0.56290  0.60220  0.66870  Biso   1.000  C
  C128     1.0000 0.43710  0.60220  0.33130  Biso   1.000  C
  C129     1.0000 0.06290  0.10220  0.66870  Biso   1.000  C
  C130     1.0000 0.93710  0.10220  0.33130  Biso   1.000  C
  H113     1.0000 0.59170  0.61060  0.73980  Biso   1.000  H
  H114     1.0000 0.40830  0.61060  0.26020  Biso   1.000  H
  H115     1.0000 0.09170  0.11060  0.73980  Biso   1.000  H
  H116     1.0000 0.90830  0.11060  0.26020  Biso   1.000  H
  H117     1.0000 0.58720  0.62300  0.62510  Biso   1.000  H
  H118     1.0000 0.41280  0.62300  0.37490  Biso   1.000  H
  H119     1.0000 0.08720  0.12300  0.62510  Biso   1.000  H
  H120     1.0000 0.91280  0.12300  0.37490  Biso   1.000  H
  C131     1.0000 0.48940  0.62860  0.64410  Biso   1.000  C
  C132     1.0000 0.51060  0.62860  0.35590  Biso   1.000  C
  C133     1.0000 0.98940  0.12860  0.64410  Biso   1.000  C
  C134     1.0000 0.01060  0.12860  0.35590  Biso   1.000  C
  H121     1.0000 0.47880  0.66170  0.58750  Biso   1.000  H
  H122     1.0000 0.52120  0.66170  0.41250  Biso   1.000  H
  H123     1.0000 0.97880  0.16170  0.58750  Biso   1.000  H
  H124     1.0000 0.02120  0.16170  0.41250  Biso   1.000  H
  H125     1.0000 0.48500  0.65400  0.70250  Biso   1.000  H
  H126     1.0000 0.51500  0.65400  0.29750  Biso   1.000  H
  H127     1.0000 0.98500  0.15400  0.70250  Biso   1.000  H
  H128     1.0000 0.01500  0.15400  0.29750  Biso   1.000  H
  C135     1.0000 0.43490  0.56870  0.61600  Biso   1.000  C
  C136     1.0000 0.56510  0.56870  0.38400  Biso   1.000  C
  C137     1.0000 0.93490  0.06870  0.61600  Biso   1.000  C
  C138     1.0000 0.06510  0.06870  0.38400  Biso   1.000  C
  H129     1.0000 0.40880  0.56490  0.66390  Biso   1.000  H
  H130     1.0000 0.59120  0.56490  0.33610  Biso   1.000  H
  H131     1.0000 0.90880  0.06490  0.66390  Biso   1.000  H
  H132     1.0000 0.09120  0.06490  0.33610  Biso   1.000  H
  H133     1.0000 0.40030  0.57460  0.54740  Biso   1.000  H
  H134     1.0000 0.59970  0.57460  0.45260  Biso   1.000  H
  H135     1.0000 0.90030  0.07460  0.54740  Biso   1.000  H
  H136     1.0000 0.09970  0.07460  0.45260  Biso   1.000  H
  C139     1.0000 0.45790  0.43360  0.60220  Biso   1.000  C
  C140     1.0000 0.54210  0.43360  0.39780  Biso   1.000  C
  C141     1.0000 0.95790  0.93360  0.60220  Biso   1.000  C
  C142     1.0000 0.04210  0.93360  0.39780  Biso   1.000  C
  H137     1.0000 0.49730  0.40250  0.63800  Biso   1.000  H
  H138     1.0000 0.50270  0.40250  0.36200  Biso   1.000  H
  H139     1.0000 0.99730  0.90250  0.63800  Biso   1.000  H
  H140     1.0000 0.00270  0.90250  0.36200  Biso   1.000  H
  H141     1.0000 0.44340  0.42440  0.53010  Biso   1.000  H
  H142     1.0000 0.55660  0.42440  0.46990  Biso   1.000  H
  H143     1.0000 0.94340  0.92440  0.53010  Biso   1.000  H
  H144     1.0000 0.05660  0.92440  0.46990  Biso   1.000  H
  H145     1.0000 0.41740  0.42530  0.62510  Biso   1.000  H
  H146     1.0000 0.58260  0.42530  0.37490  Biso   1.000  H
  H147     1.0000 0.91740  0.92530  0.62510  Biso   1.000  H
  H148     1.0000 0.08260  0.92530  0.37490  Biso   1.000  H
  C143     1.0000 0.95190  0.43660  0.36210  Biso   1.000  C
  C144     1.0000 0.04810  0.43660  0.63790  Biso   1.000  C
  C145     1.0000 0.45190  0.93660  0.36210  Biso   1.000  C
  C146     1.0000 0.54810  0.93660  0.63790  Biso   1.000  C
  C147     1.0000 0.95510  0.35830  0.34440  Biso   1.000  C
  C148     1.0000 0.04490  0.35830  0.65560  Biso   1.000  C
  C149     1.0000 0.45510  0.85830  0.34440  Biso   1.000  C
  C150     1.0000 0.54490  0.85830  0.65560  Biso   1.000  C
  H149     1.0000 0.93080  0.34720  0.27270  Biso   1.000  H
  H150     1.0000 0.06920  0.34720  0.72730  Biso   1.000  H
  H151     1.0000 0.43080  0.84720  0.27270  Biso   1.000  H
  H152     1.0000 0.56920  0.84720  0.72730  Biso   1.000  H
  H153     1.0000 0.93130  0.33220  0.38440  Biso   1.000  H
  H154     1.0000 0.06870  0.33220  0.61560  Biso   1.000  H
  H155     1.0000 0.43130  0.83220  0.38440  Biso   1.000  H
  H156     1.0000 0.56870  0.83220  0.61560  Biso   1.000  H
  C151     1.0000 0.03540  0.33820  0.37700  Biso   1.000  C
  C152     1.0000 0.96460  0.33820  0.62300  Biso   1.000  C
  C153     1.0000 0.53540  0.83820  0.37700  Biso   1.000  C
  C154     1.0000 0.46460  0.83820  0.62300  Biso   1.000  C
  H157     1.0000 0.05130  0.31550  0.44350  Biso   1.000  H
  H158     1.0000 0.94870  0.31550  0.55650  Biso   1.000  H
  H159     1.0000 0.55130  0.81550  0.44350  Biso   1.000  H
  H160     1.0000 0.44870  0.81550  0.55650  Biso   1.000  H
  H161     1.0000 0.04450  0.30640  0.32780  Biso   1.000  H
  H162     1.0000 0.95550  0.30640  0.67220  Biso   1.000  H
  H163     1.0000 0.54450  0.80640  0.32780  Biso   1.000  H
  H164     1.0000 0.45550  0.80640  0.67220  Biso   1.000  H
  C155     1.0000 0.07340  0.40730  0.38090  Biso   1.000  C
  C156     1.0000 0.92660  0.40730  0.61910  Biso   1.000  C
  C157     1.0000 0.57340  0.90730  0.38090  Biso   1.000  C
  C158     1.0000 0.42660  0.90730  0.61910  Biso   1.000  C
  H165     1.0000 0.11640  0.41050  0.44160  Biso   1.000  H
  H166     1.0000 0.88360  0.41050  0.55840  Biso   1.000  H
  H167     1.0000 0.61640  0.91050  0.44160  Biso   1.000  H
  H168     1.0000 0.38360  0.91050  0.55840  Biso   1.000  H
  H169     1.0000 0.08750  0.41360  0.32100  Biso   1.000  H
  H170     1.0000 0.91250  0.41360  0.67900  Biso   1.000  H
  H171     1.0000 0.58750  0.91360  0.32100  Biso   1.000  H
  H172     1.0000 0.41250  0.91360  0.67900  Biso   1.000  H
  C159     1.0000 0.04190  0.53560  0.39680  Biso   1.000  C
  C160     1.0000 0.95810  0.53560  0.60320  Biso   1.000  C
  C161     1.0000 0.54190  0.03560  0.39680  Biso   1.000  C
  C162     1.0000 0.45810  0.03560  0.60320  Biso   1.000  C
  H173     1.0000 0.06680  0.54820  0.35040  Biso   1.000  H
  H174     1.0000 0.93320  0.54820  0.64960  Biso   1.000  H
  H175     1.0000 0.56680  0.04820  0.35040  Biso   1.000  H
  H176     1.0000 0.43320  0.04820  0.64960  Biso   1.000  H
  H177     1.0000 0.07340  0.54380  0.46580  Biso   1.000  H
  H178     1.0000 0.92660  0.54380  0.53420  Biso   1.000  H
  H179     1.0000 0.57340  0.04380  0.46580  Biso   1.000  H
  H180     1.0000 0.42660  0.04380  0.53420  Biso   1.000  H
  H181     1.0000 0.99880  0.56400  0.38280  Biso   1.000  H
  H182     1.0000 0.00120  0.56400  0.61720  Biso   1.000  H
  H183     1.0000 0.49880  0.06400  0.38280  Biso   1.000  H
  H184     1.0000 0.50120  0.06400  0.61720  Biso   1.000  H
  C163     1.0000 0.00880  0.43610  0.89480  Biso   1.000  C
  C164     1.0000 0.99120  0.43610  0.10520  Biso   1.000  C
  C165     1.0000 0.50880  0.93610  0.89480  Biso   1.000  C
  C166     1.0000 0.49120  0.93610  0.10520  Biso   1.000  C
  C167     1.0000 0.99700  0.48800  0.05680  Biso   1.000  C
  C168     1.0000 0.00300  0.48800  0.94320  Biso   1.000  C
  C169     1.0000 0.49700  0.98800  0.05680  Biso   1.000  C
  C170     1.0000 0.50300  0.98800  0.94320  Biso   1.000  C
  C171     1.0000 0.05270  0.31910  0.11220  Biso   1.000  C
  C172     1.0000 0.94730  0.31910  0.88780  Biso   1.000  C
  C173     1.0000 0.55270  0.81910  0.11220  Biso   1.000  C
  C174     1.0000 0.44730  0.81910  0.88780  Biso   1.000  C
  H185     1.0000 0.04190  0.51350  0.07020  Biso   1.000  H
  H186     1.0000 0.95810  0.51350  0.92980  Biso   1.000  H
  H187     1.0000 0.54190  0.01350  0.07020  Biso   1.000  H
  H188     1.0000 0.45810  0.01350  0.92980  Biso   1.000  H
  H189     1.0000 0.95710  0.51730  0.01710  Biso   1.000  H
  H190     1.0000 0.04290  0.51730  0.98290  Biso   1.000  H
  H191     1.0000 0.45710  0.01730  0.01710  Biso   1.000  H
  H192     1.0000 0.54290  0.01730  0.98290  Biso   1.000  H
  H193     1.0000 0.99060  0.47590  0.12030  Biso   1.000  H
  H194     1.0000 0.00940  0.47590  0.87970  Biso   1.000  H
  H195     1.0000 0.49060  0.97590  0.12030  Biso   1.000  H
  H196     1.0000 0.50940  0.97590  0.87970  Biso   1.000  H
  H197     1.0000 0.07460  0.33720  0.18030  Biso   1.000  H
  H198     1.0000 0.92540  0.33720  0.81970  Biso   1.000  H
  H199     1.0000 0.57460  0.83720  0.18030  Biso   1.000  H
  H200     1.0000 0.42540  0.83720  0.81970  Biso   1.000  H
  H201     1.0000 0.09230  0.28600  0.13630  Biso   1.000  H
  H202     1.0000 0.90770  0.28600  0.86370  Biso   1.000  H
  H203     1.0000 0.59230  0.78600  0.13630  Biso   1.000  H
  H204     1.0000 0.40770  0.78600  0.86370  Biso   1.000  H
  H205     1.0000 0.05000  0.34730  0.16840  Biso   1.000  H
  H206     1.0000 0.95000  0.34730  0.83160  Biso   1.000  H
  H207     1.0000 0.55000  0.84730  0.16840  Biso   1.000  H
  H208     1.0000 0.45000  0.84730  0.83160  Biso   1.000  H
  H209     1.0000 0.00790  0.29360  0.08250  Biso   1.000  H
  H210     1.0000 0.99210  0.29360  0.91750  Biso   1.000  H
  H211     1.0000 0.50790  0.79360  0.08250  Biso   1.000  H
  H212     1.0000 0.49210  0.79360  0.91750  Biso   1.000  H
  H213     1.0000 0.06940  0.27170  0.10780  Biso   1.000  H
  H214     1.0000 0.93060  0.27170  0.89220  Biso   1.000  H
  H215     1.0000 0.56940  0.77170  0.10780  Biso   1.000  H
  H216     1.0000 0.43060  0.77170  0.89220  Biso   1.000  H
  H217     1.0000 0.96390  0.46160  0.88140  Biso   1.000  H
  H218     1.0000 0.03610  0.46160  0.11860  Biso   1.000  H
  H219     1.0000 0.46390  0.96160  0.88140  Biso   1.000  H
  H220     1.0000 0.53610  0.96160  0.11860  Biso   1.000  H
  H221     1.0000 0.04860  0.46540  0.93440  Biso   1.000  H
  H222     1.0000 0.95140  0.46540  0.06560  Biso   1.000  H
  H223     1.0000 0.54860  0.96540  0.93440  Biso   1.000  H
  H224     1.0000 0.45140  0.96540  0.06560  Biso   1.000  H
  H225     1.0000 0.01510  0.42390  0.83130  Biso   1.000  H
  H226     1.0000 0.98490  0.42390  0.16870  Biso   1.000  H
  H227     1.0000 0.51510  0.92390  0.83130  Biso   1.000  H
  H228     1.0000 0.48490  0.92390  0.16870  Biso   1.000  H
  H229     1.0000 0.93870  0.33820  0.91350  Biso   1.000  H
  H230     1.0000 0.06130  0.33820  0.08650  Biso   1.000  H
  H231     1.0000 0.43870  0.83820  0.91350  Biso   1.000  H
  H232     1.0000 0.56130  0.83820  0.08650  Biso   1.000  H
  H233     1.0000 0.94880  0.28150  0.05900  Biso   1.000  H
  H234     1.0000 0.05120  0.28150  0.94100  Biso   1.000  H
  H235     1.0000 0.44880  0.78150  0.05900  Biso   1.000  H
  H236     1.0000 0.55120  0.78150  0.94100  Biso   1.000  H
  H237     1.0000 0.95290  0.35090  0.12060  Biso   1.000  H
  H238     1.0000 0.04710  0.35090  0.87940  Biso   1.000  H
  H239     1.0000 0.45290  0.85090  0.12060  Biso   1.000  H
  H240     1.0000 0.54710  0.85090  0.87940  Biso   1.000  H
  H241     1.0000 0.56910  0.60220  0.09070  Biso   1.000  H
  H242     1.0000 0.43090  0.60220  0.90930  Biso   1.000  H
  H243     1.0000 0.06910  0.10220  0.09070  Biso   1.000  H
  H244     1.0000 0.93090  0.10220  0.90930  Biso   1.000  H
  H245     1.0000 0.58270  0.60390  0.90540  Biso   1.000  H
  H246     1.0000 0.41730  0.60390  0.09460  Biso   1.000  H
  H247     1.0000 0.08270  0.10390  0.90540  Biso   1.000  H
  H248     1.0000 0.91730  0.10390  0.09460  Biso   1.000  H
  H249     1.0000 0.57260  0.66730  0.97200  Biso   1.000  H
  H250     1.0000 0.42740  0.66730  0.02800  Biso   1.000  H
  H251     1.0000 0.07260  0.16730  0.97200  Biso   1.000  H
  H252     1.0000 0.92740  0.16730  0.02800  Biso   1.000  H
  H253     1.0000 0.60080  0.64810  0.96340  Biso   1.000  H
  H254     1.0000 0.39920  0.64810  0.03660  Biso   1.000  H
  H255     1.0000 0.10080  0.14810  0.96340  Biso   1.000  H
  H256     1.0000 0.89920  0.14810  0.03660  Biso   1.000  H
  H257     1.0000 0.54990  0.59230  0.88910  Biso   1.000  H
  H258     1.0000 0.45010  0.59230  0.11090  Biso   1.000  H
  H259     1.0000 0.04990  0.09230  0.88910  Biso   1.000  H
  H260     1.0000 0.95010  0.09230  0.11090  Biso   1.000  H
  H261     1.0000 0.51660  0.64990  0.94180  Biso   1.000  H
  H262     1.0000 0.48340  0.64990  0.05820  Biso   1.000  H
  H263     1.0000 0.01660  0.14990  0.94180  Biso   1.000  H
  H264     1.0000 0.98340  0.14990  0.05820  Biso   1.000  H
  H265     1.0000 0.46270  0.58850  0.83370  Biso   1.000  H
  H266     1.0000 0.53730  0.58850  0.16630  Biso   1.000  H
  H267     1.0000 0.96270  0.08850  0.83370  Biso   1.000  H
  H268     1.0000 0.03730  0.08850  0.16630  Biso   1.000  H
  H269     1.0000 0.45350  0.65890  0.88670  Biso   1.000  H
  H270     1.0000 0.54650  0.65890  0.11330  Biso   1.000  H
  H271     1.0000 0.95350  0.15890  0.88670  Biso   1.000  H
  H272     1.0000 0.04650  0.15890  0.11330  Biso   1.000  H
  H273     1.0000 0.45940  0.42510  0.95200  Biso   1.000  H
  H274     1.0000 0.54060  0.42510  0.04800  Biso   1.000  H
  H275     1.0000 0.95940  0.92510  0.95200  Biso   1.000  H
  H276     1.0000 0.04060  0.92510  0.04800  Biso   1.000  H
  H277     1.0000 0.49330  0.47550  0.89030  Biso   1.000  H
  H278     1.0000 0.50670  0.47550  0.10970  Biso   1.000  H
  H279     1.0000 0.99330  0.97550  0.89030  Biso   1.000  H
  H280     1.0000 0.00670  0.97550  0.10970  Biso   1.000  H
  H281     1.0000 0.54420  0.43240  0.98370  Biso   1.000  H
  H282     1.0000 0.45580  0.43240  0.01630  Biso   1.000  H
  H283     1.0000 0.04420  0.93240  0.98370  Biso   1.000  H
  H284     1.0000 0.95580  0.93240  0.01630  Biso   1.000  H
  H285     1.0000 0.45690  0.45760  0.11710  Biso   1.000  H
  H286     1.0000 0.54310  0.45760  0.88290  Biso   1.000  H
  H287     1.0000 0.95690  0.95760  0.11710  Biso   1.000  H
  H288     1.0000 0.04310  0.95760  0.88290  Biso   1.000  H
  H289     1.0000 0.54190  0.46440  0.16510  Biso   1.000  H
  H290     1.0000 0.45810  0.46440  0.83490  Biso   1.000  H
  H291     1.0000 0.04190  0.96440  0.16510  Biso   1.000  H
  H292     1.0000 0.95810  0.96440  0.83490  Biso   1.000  H
  H293     1.0000 0.49210  0.52920  0.16780  Biso   1.000  H
  H294     1.0000 0.50790  0.52920  0.83220  Biso   1.000  H
  H295     1.0000 0.99210  0.02920  0.16780  Biso   1.000  H
  H296     1.0000 0.00790  0.02920  0.83220  Biso   1.000  H
