data_image0
_cell_length_a       28.018
_cell_length_b       11.889
_cell_length_c       19.887
_cell_angle_alpha    90
_cell_angle_beta     100.711
_cell_angle_gamma    90

_symmetry_space_group_name_H-M    "P 1"
_symmetry_int_tables_number       1

loop_
  _symmetry_equiv_pos_as_xyz
  'x, y, z'

loop_
  _atom_site_label
  _atom_site_occupancy
  _atom_site_fract_x
  _atom_site_fract_y
  _atom_site_fract_z
  _atom_site_thermal_displace_type
  _atom_site_B_iso_or_equiv
  _atom_site_type_symbol
  Cu1      1.0000 0.53583  0.95270  0.44660  Biso   1.000  Cu
  Cu2      1.0000 0.46417  0.95270  0.05340  Biso   1.000  Cu
  Cu3      1.0000 0.03583  0.45270  0.44660  Biso   1.000  Cu
  Cu4      1.0000 0.96417  0.45270  0.05340  Biso   1.000  Cu
  Cu5      1.0000 0.46417  0.04730  0.55340  Biso   1.000  Cu
  Cu6      1.0000 0.53583  0.04730  0.94660  Biso   1.000  Cu
  Cu7      1.0000 0.96417  0.54730  0.55340  Biso   1.000  Cu
  Cu8      1.0000 0.03583  0.54730  0.94660  Biso   1.000  Cu
  O1       1.0000 0.48179  0.10010  0.46721  Biso   1.000  O
  O2       1.0000 0.51821  0.10010  0.03279  Biso   1.000  O
  O3       1.0000 0.98179  0.60010  0.46721  Biso   1.000  O
  O4       1.0000 0.01821  0.60010  0.03279  Biso   1.000  O
  O5       1.0000 0.51821  0.89990  0.53279  Biso   1.000  O
  O6       1.0000 0.48179  0.89990  0.96721  Biso   1.000  O
  O7       1.0000 0.01821  0.39990  0.53279  Biso   1.000  O
  O8       1.0000 0.98179  0.39990  0.96721  Biso   1.000  O
  O9       1.0000 0.43515  0.24830  0.47287  Biso   1.000  O
  O10      1.0000 0.56485  0.24830  0.02713  Biso   1.000  O
  O11      1.0000 0.93515  0.74830  0.47287  Biso   1.000  O
  O12      1.0000 0.06485  0.74830  0.02713  Biso   1.000  O
  O13      1.0000 0.56485  0.75170  0.52713  Biso   1.000  O
  O14      1.0000 0.43515  0.75170  0.97287  Biso   1.000  O
  O15      1.0000 0.06485  0.25170  0.52713  Biso   1.000  O
  O16      1.0000 0.93515  0.25170  0.97287  Biso   1.000  O
  O17      1.0000 0.45064  0.01910  0.13742  Biso   1.000  O
  O18      1.0000 0.54936  0.01910  0.36258  Biso   1.000  O
  O19      1.0000 0.95064  0.51910  0.13742  Biso   1.000  O
  O20      1.0000 0.04936  0.51910  0.36258  Biso   1.000  O
  O21      1.0000 0.54936  0.98090  0.86258  Biso   1.000  O
  O22      1.0000 0.45064  0.98090  0.63742  Biso   1.000  O
  O23      1.0000 0.04936  0.48090  0.86258  Biso   1.000  O
  O24      1.0000 0.95064  0.48090  0.63742  Biso   1.000  O
  O25      1.0000 0.38584  0.90860  0.13018  Biso   1.000  O
  O26      1.0000 0.61416  0.90860  0.36982  Biso   1.000  O
  O27      1.0000 0.88584  0.40860  0.13018  Biso   1.000  O
  O28      1.0000 0.11416  0.40860  0.36982  Biso   1.000  O
  O29      1.0000 0.61416  0.09140  0.86982  Biso   1.000  O
  O30      1.0000 0.38584  0.09140  0.63018  Biso   1.000  O
  O31      1.0000 0.11416  0.59140  0.86982  Biso   1.000  O
  O32      1.0000 0.88584  0.59140  0.63018  Biso   1.000  O
  N1       1.0000 0.48665  0.84920  0.39178  Biso   1.000  N
  N2       1.0000 0.51335  0.84920  0.10822  Biso   1.000  N
  N3       1.0000 0.98665  0.34920  0.39178  Biso   1.000  N
  N4       1.0000 0.01335  0.34920  0.10822  Biso   1.000  N
  N5       1.0000 0.51335  0.15080  0.60822  Biso   1.000  N
  N6       1.0000 0.48665  0.15080  0.89178  Biso   1.000  N
  N7       1.0000 0.01335  0.65080  0.60822  Biso   1.000  N
  N8       1.0000 0.98665  0.65080  0.89178  Biso   1.000  N
  N9       1.0000 0.43120  0.72520  0.35516  Biso   1.000  N
  N10      1.0000 0.56880  0.72520  0.14484  Biso   1.000  N
  N11      1.0000 0.93120  0.22520  0.35516  Biso   1.000  N
  N12      1.0000 0.06880  0.22520  0.14484  Biso   1.000  N
  N13      1.0000 0.56880  0.27480  0.64484  Biso   1.000  N
  N14      1.0000 0.43120  0.27480  0.85516  Biso   1.000  N
  N15      1.0000 0.06880  0.77480  0.64484  Biso   1.000  N
  N16      1.0000 0.93120  0.77480  0.85516  Biso   1.000  N
  N17      1.0000 0.09074  0.45860  0.00126  Biso   1.000  N
  N18      1.0000 0.90926  0.45860  0.49874  Biso   1.000  N
  N19      1.0000 0.59074  0.95860  0.00126  Biso   1.000  N
  N20      1.0000 0.40926  0.95860  0.49874  Biso   1.000  N
  N21      1.0000 0.90926  0.54140  0.99874  Biso   1.000  N
  N22      1.0000 0.09074  0.54140  0.50126  Biso   1.000  N
  N23      1.0000 0.40926  0.04140  0.99874  Biso   1.000  N
  N24      1.0000 0.59074  0.04140  0.50126  Biso   1.000  N
  N25      1.0000 0.15012  0.40750  0.08098  Biso   1.000  N
  N26      1.0000 0.84988  0.40750  0.41902  Biso   1.000  N
  N27      1.0000 0.65012  0.90750  0.08098  Biso   1.000  N
  N28      1.0000 0.34988  0.90750  0.41902  Biso   1.000  N
  N29      1.0000 0.84988  0.59250  0.91902  Biso   1.000  N
  N30      1.0000 0.15012  0.59250  0.58098  Biso   1.000  N
  N31      1.0000 0.34988  0.09250  0.91902  Biso   1.000  N
  N32      1.0000 0.65012  0.09250  0.58098  Biso   1.000  N
  N33      1.0000 0.15078  0.33230  0.02955  Biso   1.000  N
  N34      1.0000 0.84922  0.33230  0.47045  Biso   1.000  N
  N35      1.0000 0.65078  0.83230  0.02955  Biso   1.000  N
  N36      1.0000 0.34922  0.83230  0.47045  Biso   1.000  N
  N37      1.0000 0.84922  0.66770  0.97045  Biso   1.000  N
  N38      1.0000 0.15078  0.66770  0.52955  Biso   1.000  N
  N39      1.0000 0.34922  0.16770  0.97045  Biso   1.000  N
  N40      1.0000 0.65078  0.16770  0.52955  Biso   1.000  N
  N41      1.0000 0.26850  0.90020  0.58078  Biso   1.000  N
  N42      1.0000 0.73150  0.90020  0.91922  Biso   1.000  N
  N43      1.0000 0.76850  0.40020  0.58078  Biso   1.000  N
  N44      1.0000 0.23150  0.40020  0.91922  Biso   1.000  N
  N45      1.0000 0.73150  0.09980  0.41922  Biso   1.000  N
  N46      1.0000 0.26850  0.09980  0.08078  Biso   1.000  N
  N47      1.0000 0.23150  0.59980  0.41922  Biso   1.000  N
  N48      1.0000 0.76850  0.59980  0.08078  Biso   1.000  N
  N49      1.0000 0.26141  0.02590  0.50012  Biso   1.000  N
  N50      1.0000 0.73859  0.02590  0.99988  Biso   1.000  N
  N51      1.0000 0.76141  0.52590  0.50012  Biso   1.000  N
  N52      1.0000 0.23859  0.52590  0.99988  Biso   1.000  N
  N53      1.0000 0.73859  0.97410  0.49988  Biso   1.000  N
  N54      1.0000 0.26141  0.97410  0.00012  Biso   1.000  N
  N55      1.0000 0.23859  0.47410  0.49988  Biso   1.000  N
  N56      1.0000 0.76141  0.47410  0.00012  Biso   1.000  N
  N57      1.0000 0.22782  0.94670  0.47484  Biso   1.000  N
  N58      1.0000 0.77218  0.94670  0.02516  Biso   1.000  N
  N59      1.0000 0.72782  0.44670  0.47484  Biso   1.000  N
  N60      1.0000 0.27218  0.44670  0.02516  Biso   1.000  N
  N61      1.0000 0.77218  0.05330  0.52516  Biso   1.000  N
  N62      1.0000 0.22782  0.05330  0.97484  Biso   1.000  N
  N63      1.0000 0.27218  0.55330  0.52516  Biso   1.000  N
  N64      1.0000 0.72782  0.55330  0.97484  Biso   1.000  N
  N65      1.0000 0.28875  0.38540  0.32530  Biso   1.000  N
  N66      1.0000 0.71125  0.38540  0.17470  Biso   1.000  N
  N67      1.0000 0.78875  0.88540  0.32530  Biso   1.000  N
  N68      1.0000 0.21125  0.88540  0.17470  Biso   1.000  N
  N69      1.0000 0.71125  0.61460  0.67470  Biso   1.000  N
  N70      1.0000 0.28875  0.61460  0.82530  Biso   1.000  N
  N71      1.0000 0.21125  0.11460  0.67470  Biso   1.000  N
  N72      1.0000 0.78875  0.11460  0.82530  Biso   1.000  N
  C1       1.0000 0.46430  0.75870  0.40771  Biso   1.000  C
  C2       1.0000 0.53570  0.75870  0.09229  Biso   1.000  C
  C3       1.0000 0.96430  0.25870  0.40771  Biso   1.000  C
  C4       1.0000 0.03570  0.25870  0.09229  Biso   1.000  C
  C5       1.0000 0.53570  0.24130  0.59229  Biso   1.000  C
  C6       1.0000 0.46430  0.24130  0.90771  Biso   1.000  C
  C7       1.0000 0.03570  0.74130  0.59229  Biso   1.000  C
  C8       1.0000 0.96430  0.74130  0.90771  Biso   1.000  C
  H1       1.0000 0.47097  0.72226  0.45097  Biso   1.000  H
  H2       1.0000 0.52903  0.72226  0.04903  Biso   1.000  H
  H3       1.0000 0.97097  0.22226  0.45097  Biso   1.000  H
  H4       1.0000 0.02903  0.22226  0.04903  Biso   1.000  H
  H5       1.0000 0.52903  0.27774  0.54903  Biso   1.000  H
  H6       1.0000 0.47097  0.27774  0.95097  Biso   1.000  H
  H7       1.0000 0.02903  0.77774  0.54903  Biso   1.000  H
  H8       1.0000 0.97097  0.77774  0.95097  Biso   1.000  H
  C9       1.0000 0.39689  0.63380  0.34905  Biso   1.000  C
  C10      1.0000 0.60311  0.63380  0.15095  Biso   1.000  C
  C11      1.0000 0.89689  0.13380  0.34905  Biso   1.000  C
  C12      1.0000 0.10311  0.13380  0.15095  Biso   1.000  C
  C13      1.0000 0.60311  0.36620  0.65095  Biso   1.000  C
  C14      1.0000 0.39689  0.36620  0.84905  Biso   1.000  C
  C15      1.0000 0.10311  0.86620  0.65095  Biso   1.000  C
  C16      1.0000 0.89689  0.86620  0.84905  Biso   1.000  C
  C17      1.0000 0.38273  0.59000  0.40680  Biso   1.000  C
  C18      1.0000 0.61727  0.59000  0.09320  Biso   1.000  C
  C19      1.0000 0.88273  0.09000  0.40680  Biso   1.000  C
  C20      1.0000 0.11727  0.09000  0.09320  Biso   1.000  C
  C21      1.0000 0.61727  0.41000  0.59320  Biso   1.000  C
  C22      1.0000 0.38273  0.41000  0.90680  Biso   1.000  C
  C23      1.0000 0.11727  0.91000  0.59320  Biso   1.000  C
  C24      1.0000 0.88273  0.91000  0.90680  Biso   1.000  C
  H9       1.0000 0.39704  0.61689  0.45094  Biso   1.000  H
  H10      1.0000 0.60296  0.61689  0.04906  Biso   1.000  H
  H11      1.0000 0.89704  0.11689  0.45094  Biso   1.000  H
  H12      1.0000 0.10296  0.11689  0.04906  Biso   1.000  H
  H13      1.0000 0.60296  0.38311  0.54906  Biso   1.000  H
  H14      1.0000 0.39704  0.38311  0.95094  Biso   1.000  H
  H15      1.0000 0.10296  0.88311  0.54906  Biso   1.000  H
  H16      1.0000 0.89704  0.88311  0.95094  Biso   1.000  H
  C25      1.0000 0.34744  0.50650  0.39975  Biso   1.000  C
  C26      1.0000 0.65256  0.50650  0.10025  Biso   1.000  C
  C27      1.0000 0.84744  0.00650  0.39975  Biso   1.000  C
  C28      1.0000 0.15256  0.00650  0.10025  Biso   1.000  C
  C29      1.0000 0.65256  0.49350  0.60025  Biso   1.000  C
  C30      1.0000 0.34744  0.49350  0.89975  Biso   1.000  C
  C31      1.0000 0.15256  0.99350  0.60025  Biso   1.000  C
  C32      1.0000 0.84744  0.99350  0.89975  Biso   1.000  C
  H17      1.0000 0.33744  0.47661  0.43922  Biso   1.000  H
  H18      1.0000 0.66256  0.47661  0.06078  Biso   1.000  H
  H19      1.0000 0.83744  0.97661  0.43922  Biso   1.000  H
  H20      1.0000 0.16256  0.97661  0.06078  Biso   1.000  H
  H21      1.0000 0.66256  0.52339  0.56078  Biso   1.000  H
  H22      1.0000 0.33744  0.52339  0.93922  Biso   1.000  H
  H23      1.0000 0.16256  0.02339  0.56078  Biso   1.000  H
  H24      1.0000 0.83744  0.02339  0.93922  Biso   1.000  H
  C33      1.0000 0.32665  0.46630  0.33508  Biso   1.000  C
  C34      1.0000 0.67335  0.46630  0.16492  Biso   1.000  C
  C35      1.0000 0.82665  0.96630  0.33508  Biso   1.000  C
  C36      1.0000 0.17335  0.96630  0.16492  Biso   1.000  C
  C37      1.0000 0.67335  0.53370  0.66492  Biso   1.000  C
  C38      1.0000 0.32665  0.53370  0.83508  Biso   1.000  C
  C39      1.0000 0.17335  0.03370  0.66492  Biso   1.000  C
  C40      1.0000 0.82665  0.03370  0.83508  Biso   1.000  C
  C41      1.0000 0.34275  0.50910  0.27784  Biso   1.000  C
  C42      1.0000 0.65725  0.50910  0.22216  Biso   1.000  C
  C43      1.0000 0.84275  0.00910  0.27784  Biso   1.000  C
  C44      1.0000 0.15725  0.00910  0.22216  Biso   1.000  C
  C45      1.0000 0.65725  0.49090  0.72216  Biso   1.000  C
  C46      1.0000 0.34275  0.49090  0.77784  Biso   1.000  C
  C47      1.0000 0.15725  0.99090  0.72216  Biso   1.000  C
  C48      1.0000 0.84275  0.99090  0.77784  Biso   1.000  C
  H25      1.0000 0.32976  0.48000  0.23376  Biso   1.000  H
  H26      1.0000 0.67024  0.48000  0.26624  Biso   1.000  H
  H27      1.0000 0.82976  0.98000  0.23376  Biso   1.000  H
  H28      1.0000 0.17024  0.98000  0.26624  Biso   1.000  H
  H29      1.0000 0.67024  0.52000  0.76624  Biso   1.000  H
  H30      1.0000 0.32976  0.52000  0.73376  Biso   1.000  H
  H31      1.0000 0.17024  0.02000  0.76624  Biso   1.000  H
  H32      1.0000 0.82976  0.02000  0.73376  Biso   1.000  H
  C49      1.0000 0.37713  0.59280  0.28438  Biso   1.000  C
  C50      1.0000 0.62287  0.59280  0.21562  Biso   1.000  C
  C51      1.0000 0.87713  0.09280  0.28438  Biso   1.000  C
  C52      1.0000 0.12287  0.09280  0.21562  Biso   1.000  C
  C53      1.0000 0.62287  0.40720  0.71562  Biso   1.000  C
  C54      1.0000 0.37713  0.40720  0.78438  Biso   1.000  C
  C55      1.0000 0.12287  0.90720  0.71562  Biso   1.000  C
  C56      1.0000 0.87713  0.90720  0.78438  Biso   1.000  C
  H33      1.0000 0.38733  0.62242  0.24499  Biso   1.000  H
  H34      1.0000 0.61267  0.62242  0.25501  Biso   1.000  H
  H35      1.0000 0.88733  0.12242  0.24499  Biso   1.000  H
  H36      1.0000 0.11267  0.12242  0.25501  Biso   1.000  H
  H37      1.0000 0.61267  0.37758  0.75501  Biso   1.000  H
  H38      1.0000 0.38733  0.37758  0.74499  Biso   1.000  H
  H39      1.0000 0.11267  0.87758  0.75501  Biso   1.000  H
  H40      1.0000 0.88733  0.87758  0.74499  Biso   1.000  H
  C57      1.0000 0.25390  0.39170  0.26279  Biso   1.000  C
  C58      1.0000 0.74610  0.39170  0.23721  Biso   1.000  C
  C59      1.0000 0.75390  0.89170  0.26279  Biso   1.000  C
  C60      1.0000 0.24610  0.89170  0.23721  Biso   1.000  C
  C61      1.0000 0.74610  0.60830  0.73721  Biso   1.000  C
  C62      1.0000 0.25390  0.60830  0.76279  Biso   1.000  C
  C63      1.0000 0.24610  0.10830  0.73721  Biso   1.000  C
  C64      1.0000 0.75390  0.10830  0.76279  Biso   1.000  C
  C65      1.0000 0.24584  0.30020  0.21940  Biso   1.000  C
  C66      1.0000 0.75416  0.30020  0.28060  Biso   1.000  C
  C67      1.0000 0.74584  0.80020  0.21940  Biso   1.000  C
  C68      1.0000 0.25416  0.80020  0.28060  Biso   1.000  C
  C69      1.0000 0.75416  0.69980  0.78060  Biso   1.000  C
  C70      1.0000 0.24584  0.69980  0.71940  Biso   1.000  C
  C71      1.0000 0.25416  0.19980  0.78060  Biso   1.000  C
  C72      1.0000 0.74584  0.19980  0.71940  Biso   1.000  C
  H41      1.0000 0.26475  0.23410  0.23021  Biso   1.000  H
  H42      1.0000 0.73525  0.23410  0.26979  Biso   1.000  H
  H43      1.0000 0.76475  0.73410  0.23021  Biso   1.000  H
  H44      1.0000 0.23525  0.73410  0.26979  Biso   1.000  H
  H45      1.0000 0.73525  0.76590  0.76979  Biso   1.000  H
  H46      1.0000 0.26475  0.76590  0.73021  Biso   1.000  H
  H47      1.0000 0.23525  0.26590  0.76979  Biso   1.000  H
  H48      1.0000 0.76475  0.26590  0.73021  Biso   1.000  H
  C73      1.0000 0.21061  0.30330  0.16040  Biso   1.000  C
  C74      1.0000 0.78939  0.30330  0.33960  Biso   1.000  C
  C75      1.0000 0.71061  0.80330  0.16040  Biso   1.000  C
  C76      1.0000 0.28939  0.80330  0.33960  Biso   1.000  C
  C77      1.0000 0.78939  0.69670  0.83960  Biso   1.000  C
  C78      1.0000 0.21061  0.69670  0.66040  Biso   1.000  C
  C79      1.0000 0.28939  0.19670  0.83960  Biso   1.000  C
  C80      1.0000 0.71061  0.19670  0.66040  Biso   1.000  C
  H49      1.0000 0.20375  0.23840  0.13240  Biso   1.000  H
  H50      1.0000 0.79625  0.23840  0.36760  Biso   1.000  H
  H51      1.0000 0.70375  0.73840  0.13240  Biso   1.000  H
  H52      1.0000 0.29625  0.73840  0.36760  Biso   1.000  H
  H53      1.0000 0.79625  0.76160  0.86760  Biso   1.000  H
  H54      1.0000 0.20375  0.76160  0.63240  Biso   1.000  H
  H55      1.0000 0.29625  0.26160  0.86760  Biso   1.000  H
  H56      1.0000 0.70375  0.26160  0.63240  Biso   1.000  H
  C81      1.0000 0.18577  0.40220  0.14328  Biso   1.000  C
  C82      1.0000 0.81423  0.40220  0.35672  Biso   1.000  C
  C83      1.0000 0.68577  0.90220  0.14328  Biso   1.000  C
  C84      1.0000 0.31423  0.90220  0.35672  Biso   1.000  C
  C85      1.0000 0.81423  0.59780  0.85672  Biso   1.000  C
  C86      1.0000 0.18577  0.59780  0.64328  Biso   1.000  C
  C87      1.0000 0.31423  0.09780  0.85672  Biso   1.000  C
  C88      1.0000 0.68577  0.09780  0.64328  Biso   1.000  C
  C89      1.0000 0.19450  0.49520  0.18479  Biso   1.000  C
  C90      1.0000 0.80550  0.49520  0.31521  Biso   1.000  C
  C91      1.0000 0.69450  0.99520  0.18479  Biso   1.000  C
  C92      1.0000 0.30550  0.99520  0.31521  Biso   1.000  C
  C93      1.0000 0.80550  0.50480  0.81521  Biso   1.000  C
  C94      1.0000 0.19450  0.50480  0.68479  Biso   1.000  C
  C95      1.0000 0.30550  0.00480  0.81521  Biso   1.000  C
  C96      1.0000 0.69450  0.00480  0.68479  Biso   1.000  C
  H57      1.0000 0.17774  0.56360  0.17190  Biso   1.000  H
  H58      1.0000 0.82226  0.56360  0.32810  Biso   1.000  H
  H59      1.0000 0.67774  0.06360  0.17190  Biso   1.000  H
  H60      1.0000 0.32226  0.06360  0.32810  Biso   1.000  H
  H61      1.0000 0.82226  0.43640  0.82810  Biso   1.000  H
  H62      1.0000 0.17774  0.43640  0.67190  Biso   1.000  H
  H63      1.0000 0.32226  0.93640  0.82810  Biso   1.000  H
  H64      1.0000 0.67774  0.93640  0.67190  Biso   1.000  H
  C97      1.0000 0.22808  0.48860  0.24592  Biso   1.000  C
  C98      1.0000 0.77192  0.48860  0.25408  Biso   1.000  C
  C99      1.0000 0.72808  0.98860  0.24592  Biso   1.000  C
  C100     1.0000 0.27192  0.98860  0.25408  Biso   1.000  C
  C101     1.0000 0.77192  0.51140  0.75408  Biso   1.000  C
  C102     1.0000 0.22808  0.51140  0.74592  Biso   1.000  C
  C103     1.0000 0.27192  0.01140  0.75408  Biso   1.000  C
  C104     1.0000 0.72808  0.01140  0.74592  Biso   1.000  C
  H65      1.0000 0.23304  0.55149  0.27590  Biso   1.000  H
  H66      1.0000 0.76696  0.55149  0.22410  Biso   1.000  H
  H67      1.0000 0.73304  0.05149  0.27590  Biso   1.000  H
  H68      1.0000 0.26696  0.05149  0.22410  Biso   1.000  H
  H69      1.0000 0.76696  0.44851  0.72410  Biso   1.000  H
  H70      1.0000 0.23304  0.44851  0.77590  Biso   1.000  H
  H71      1.0000 0.26696  0.94851  0.72410  Biso   1.000  H
  H72      1.0000 0.73304  0.94851  0.77590  Biso   1.000  H
  C105     1.0000 0.11456  0.36600  0.98252  Biso   1.000  C
  C106     1.0000 0.88544  0.36600  0.51748  Biso   1.000  C
  C107     1.0000 0.61456  0.86600  0.98252  Biso   1.000  C
  C108     1.0000 0.38544  0.86600  0.51748  Biso   1.000  C
  C109     1.0000 0.88544  0.63400  0.01748  Biso   1.000  C
  C110     1.0000 0.11456  0.63400  0.48252  Biso   1.000  C
  C111     1.0000 0.38544  0.13400  0.01748  Biso   1.000  C
  C112     1.0000 0.61456  0.13400  0.48252  Biso   1.000  C
  H73      1.0000 0.10557  0.32979  0.93943  Biso   1.000  H
  H74      1.0000 0.89443  0.32979  0.56057  Biso   1.000  H
  H75      1.0000 0.60557  0.82979  0.93943  Biso   1.000  H
  H76      1.0000 0.39443  0.82979  0.56057  Biso   1.000  H
  H77      1.0000 0.89443  0.67021  0.06057  Biso   1.000  H
  H78      1.0000 0.10557  0.67021  0.43943  Biso   1.000  H
  H79      1.0000 0.39443  0.17021  0.06057  Biso   1.000  H
  H80      1.0000 0.60557  0.17021  0.43943  Biso   1.000  H
  C113     1.0000 0.11408  0.48050  0.06364  Biso   1.000  C
  C114     1.0000 0.88592  0.48050  0.43636  Biso   1.000  C
  C115     1.0000 0.61408  0.98050  0.06364  Biso   1.000  C
  C116     1.0000 0.38592  0.98050  0.43636  Biso   1.000  C
  C117     1.0000 0.88592  0.51950  0.93636  Biso   1.000  C
  C118     1.0000 0.11408  0.51950  0.56364  Biso   1.000  C
  C119     1.0000 0.38592  0.01950  0.93636  Biso   1.000  C
  C120     1.0000 0.61408  0.01950  0.56364  Biso   1.000  C
  H81      1.0000 0.10631  0.53960  0.09193  Biso   1.000  H
  H82      1.0000 0.89369  0.53960  0.40807  Biso   1.000  H
  H83      1.0000 0.60631  0.03960  0.09193  Biso   1.000  H
  H84      1.0000 0.39369  0.03960  0.40807  Biso   1.000  H
  H85      1.0000 0.89369  0.46040  0.90807  Biso   1.000  H
  H86      1.0000 0.10631  0.46040  0.59193  Biso   1.000  H
  H87      1.0000 0.39369  0.96040  0.90807  Biso   1.000  H
  H88      1.0000 0.60631  0.96040  0.59193  Biso   1.000  H
  C121     1.0000 0.28241  0.30050  0.37228  Biso   1.000  C
  C122     1.0000 0.71759  0.30050  0.12772  Biso   1.000  C
  C123     1.0000 0.78241  0.80050  0.37228  Biso   1.000  C
  C124     1.0000 0.21759  0.80050  0.12772  Biso   1.000  C
  C125     1.0000 0.71759  0.69950  0.62772  Biso   1.000  C
  C126     1.0000 0.28241  0.69950  0.87228  Biso   1.000  C
  C127     1.0000 0.21759  0.19950  0.62772  Biso   1.000  C
  C128     1.0000 0.78241  0.19950  0.87228  Biso   1.000  C
  C129     1.0000 0.23618  0.25280  0.36960  Biso   1.000  C
  C130     1.0000 0.76382  0.25280  0.13040  Biso   1.000  C
  C131     1.0000 0.73618  0.75280  0.36960  Biso   1.000  C
  C132     1.0000 0.26382  0.75280  0.13040  Biso   1.000  C
  C133     1.0000 0.76382  0.74720  0.63040  Biso   1.000  C
  C134     1.0000 0.23618  0.74720  0.86960  Biso   1.000  C
  C135     1.0000 0.26382  0.24720  0.63040  Biso   1.000  C
  C136     1.0000 0.73618  0.24720  0.86960  Biso   1.000  C
  H89      1.0000 0.20930  0.28192  0.33816  Biso   1.000  H
  H90      1.0000 0.79070  0.28192  0.16184  Biso   1.000  H
  H91      1.0000 0.70930  0.78192  0.33816  Biso   1.000  H
  H92      1.0000 0.29070  0.78192  0.16184  Biso   1.000  H
  H93      1.0000 0.79070  0.71808  0.66184  Biso   1.000  H
  H94      1.0000 0.20930  0.71808  0.83816  Biso   1.000  H
  H95      1.0000 0.29070  0.21808  0.66184  Biso   1.000  H
  H96      1.0000 0.70930  0.21808  0.83816  Biso   1.000  H
  C137     1.0000 0.22912  0.16460  0.41170  Biso   1.000  C
  C138     1.0000 0.77088  0.16460  0.08830  Biso   1.000  C
  C139     1.0000 0.72912  0.66460  0.41170  Biso   1.000  C
  C140     1.0000 0.27088  0.66460  0.08830  Biso   1.000  C
  C141     1.0000 0.77088  0.83540  0.58830  Biso   1.000  C
  C142     1.0000 0.22912  0.83540  0.91170  Biso   1.000  C
  C143     1.0000 0.27088  0.33540  0.58830  Biso   1.000  C
  C144     1.0000 0.72912  0.33540  0.91170  Biso   1.000  C
  H97      1.0000 0.19775  0.13235  0.40854  Biso   1.000  H
  H98      1.0000 0.80225  0.13235  0.09146  Biso   1.000  H
  H99      1.0000 0.69775  0.63235  0.40854  Biso   1.000  H
  H100     1.0000 0.30225  0.63235  0.09146  Biso   1.000  H
  H101     1.0000 0.80225  0.86765  0.59146  Biso   1.000  H
  H102     1.0000 0.19775  0.86765  0.90854  Biso   1.000  H
  H103     1.0000 0.30225  0.36765  0.59146  Biso   1.000  H
  H104     1.0000 0.69775  0.36765  0.90854  Biso   1.000  H
  C145     1.0000 0.26806  0.12300  0.45868  Biso   1.000  C
  C146     1.0000 0.73194  0.12300  0.04132  Biso   1.000  C
  C147     1.0000 0.76806  0.62300  0.45868  Biso   1.000  C
  C148     1.0000 0.23194  0.62300  0.04132  Biso   1.000  C
  C149     1.0000 0.73194  0.87700  0.54132  Biso   1.000  C
  C150     1.0000 0.26806  0.87700  0.95868  Biso   1.000  C
  C151     1.0000 0.23194  0.37700  0.54132  Biso   1.000  C
  C152     1.0000 0.76806  0.37700  0.95868  Biso   1.000  C
  C153     1.0000 0.31335  0.17250  0.46480  Biso   1.000  C
  C154     1.0000 0.68665  0.17250  0.03520  Biso   1.000  C
  C155     1.0000 0.81335  0.67250  0.46480  Biso   1.000  C
  C156     1.0000 0.18665  0.67250  0.03520  Biso   1.000  C
  C157     1.0000 0.68665  0.82750  0.53520  Biso   1.000  C
  C158     1.0000 0.31335  0.82750  0.96480  Biso   1.000  C
  C159     1.0000 0.18665  0.32750  0.53520  Biso   1.000  C
  C160     1.0000 0.81335  0.32750  0.96480  Biso   1.000  C
  H105     1.0000 0.33946  0.14671  0.49878  Biso   1.000  H
  H106     1.0000 0.66054  0.14671  0.00122  Biso   1.000  H
  H107     1.0000 0.83946  0.64671  0.49878  Biso   1.000  H
  H108     1.0000 0.16054  0.64671  0.00122  Biso   1.000  H
  H109     1.0000 0.66054  0.85329  0.50122  Biso   1.000  H
  H110     1.0000 0.33946  0.85329  0.99878  Biso   1.000  H
  H111     1.0000 0.16054  0.35329  0.50122  Biso   1.000  H
  H112     1.0000 0.83946  0.35329  0.99878  Biso   1.000  H
  C161     1.0000 0.32082  0.25990  0.42145  Biso   1.000  C
  C162     1.0000 0.67918  0.25990  0.07855  Biso   1.000  C
  C163     1.0000 0.82082  0.75990  0.42145  Biso   1.000  C
  C164     1.0000 0.17918  0.75990  0.07855  Biso   1.000  C
  C165     1.0000 0.67918  0.74010  0.57855  Biso   1.000  C
  C166     1.0000 0.32082  0.74010  0.92145  Biso   1.000  C
  C167     1.0000 0.17918  0.24010  0.57855  Biso   1.000  C
  C168     1.0000 0.82082  0.24010  0.92145  Biso   1.000  C
  H113     1.0000 0.35222  0.29220  0.42524  Biso   1.000  H
  H114     1.0000 0.64778  0.29220  0.07476  Biso   1.000  H
  H115     1.0000 0.85222  0.79220  0.42524  Biso   1.000  H
  H116     1.0000 0.14778  0.79220  0.07476  Biso   1.000  H
  H117     1.0000 0.64778  0.70780  0.57476  Biso   1.000  H
  H118     1.0000 0.35222  0.70780  0.92524  Biso   1.000  H
  H119     1.0000 0.14778  0.20780  0.57476  Biso   1.000  H
  H120     1.0000 0.85222  0.20780  0.92524  Biso   1.000  H
  C169     1.0000 0.28456  0.99840  0.56120  Biso   1.000  C
  C170     1.0000 0.71544  0.99840  0.93880  Biso   1.000  C
  C171     1.0000 0.78456  0.49840  0.56120  Biso   1.000  C
  C172     1.0000 0.21544  0.49840  0.93880  Biso   1.000  C
  C173     1.0000 0.71544  0.00160  0.43880  Biso   1.000  C
  C174     1.0000 0.28456  0.00160  0.06120  Biso   1.000  C
  C175     1.0000 0.21544  0.50160  0.43880  Biso   1.000  C
  C176     1.0000 0.78456  0.50160  0.06120  Biso   1.000  C
  H121     1.0000 0.30942  0.04226  0.58791  Biso   1.000  H
  H122     1.0000 0.69058  0.04226  0.91209  Biso   1.000  H
  H123     1.0000 0.80942  0.54226  0.58791  Biso   1.000  H
  H124     1.0000 0.19058  0.54226  0.91209  Biso   1.000  H
  H125     1.0000 0.69058  0.95774  0.41209  Biso   1.000  H
  H126     1.0000 0.30942  0.95774  0.08791  Biso   1.000  H
  H127     1.0000 0.19058  0.45774  0.41209  Biso   1.000  H
  H128     1.0000 0.80942  0.45774  0.08791  Biso   1.000  H
  C177     1.0000 0.23374  0.87370  0.52540  Biso   1.000  C
  C178     1.0000 0.76626  0.87370  0.97460  Biso   1.000  C
  C179     1.0000 0.73374  0.37370  0.52540  Biso   1.000  C
  C180     1.0000 0.26626  0.37370  0.97460  Biso   1.000  C
  C181     1.0000 0.76626  0.12630  0.47460  Biso   1.000  C
  C182     1.0000 0.23374  0.12630  0.02540  Biso   1.000  C
  C183     1.0000 0.26626  0.62630  0.47460  Biso   1.000  C
  C184     1.0000 0.73374  0.62630  0.02540  Biso   1.000  C
  H129     1.0000 0.21501  0.80680  0.52344  Biso   1.000  H
  H130     1.0000 0.78499  0.80680  0.97656  Biso   1.000  H
  H131     1.0000 0.71501  0.30680  0.52344  Biso   1.000  H
  H132     1.0000 0.28499  0.30680  0.97656  Biso   1.000  H
  H133     1.0000 0.78499  0.19320  0.47656  Biso   1.000  H
  H134     1.0000 0.21501  0.19320  0.02344  Biso   1.000  H
  H135     1.0000 0.28499  0.69320  0.47656  Biso   1.000  H
  H136     1.0000 0.71501  0.69320  0.02344  Biso   1.000  H
  C185     1.0000 0.46457  0.19680  0.44546  Biso   1.000  C
  C186     1.0000 0.53543  0.19680  0.05454  Biso   1.000  C
  C187     1.0000 0.96457  0.69680  0.44546  Biso   1.000  C
  C188     1.0000 0.03543  0.69680  0.05454  Biso   1.000  C
  C189     1.0000 0.53543  0.80320  0.55454  Biso   1.000  C
  C190     1.0000 0.46457  0.80320  0.94546  Biso   1.000  C
  C191     1.0000 0.03543  0.30320  0.55454  Biso   1.000  C
  C192     1.0000 0.96457  0.30320  0.94546  Biso   1.000  C
  C193     1.0000 0.48353  0.24690  0.38560  Biso   1.000  C
  C194     1.0000 0.51647  0.24690  0.11440  Biso   1.000  C
  C195     1.0000 0.98353  0.74690  0.38560  Biso   1.000  C
  C196     1.0000 0.01647  0.74690  0.11440  Biso   1.000  C
  C197     1.0000 0.51647  0.75310  0.61440  Biso   1.000  C
  C198     1.0000 0.48353  0.75310  0.88560  Biso   1.000  C
  C199     1.0000 0.01647  0.25310  0.61440  Biso   1.000  C
  C200     1.0000 0.98353  0.25310  0.88560  Biso   1.000  C
  H137     1.0000 0.49795  0.18609  0.36182  Biso   1.000  H
  H138     1.0000 0.50205  0.18609  0.13818  Biso   1.000  H
  H139     1.0000 0.99795  0.68609  0.36182  Biso   1.000  H
  H140     1.0000 0.00205  0.68609  0.13818  Biso   1.000  H
  H141     1.0000 0.50205  0.81391  0.63818  Biso   1.000  H
  H142     1.0000 0.49795  0.81391  0.86182  Biso   1.000  H
  H143     1.0000 0.00205  0.31391  0.63818  Biso   1.000  H
  H144     1.0000 0.99795  0.31391  0.86182  Biso   1.000  H
  H145     1.0000 0.50968  0.30113  0.40323  Biso   1.000  H
  H146     1.0000 0.49032  0.30113  0.09677  Biso   1.000  H
  H147     1.0000 0.00968  0.80113  0.40323  Biso   1.000  H
  H148     1.0000 0.99032  0.80113  0.09677  Biso   1.000  H
  H149     1.0000 0.49032  0.69887  0.59677  Biso   1.000  H
  H150     1.0000 0.50968  0.69887  0.90323  Biso   1.000  H
  H151     1.0000 0.99032  0.19887  0.59677  Biso   1.000  H
  H152     1.0000 0.00968  0.19887  0.90323  Biso   1.000  H
  C201     1.0000 0.44454  0.30690  0.33390  Biso   1.000  C
  C202     1.0000 0.55546  0.30690  0.16610  Biso   1.000  C
  C203     1.0000 0.94454  0.80690  0.33390  Biso   1.000  C
  C204     1.0000 0.05546  0.80690  0.16610  Biso   1.000  C
  C205     1.0000 0.55546  0.69310  0.66610  Biso   1.000  C
  C206     1.0000 0.44454  0.69310  0.83390  Biso   1.000  C
  C207     1.0000 0.05546  0.19310  0.66610  Biso   1.000  C
  C208     1.0000 0.94454  0.19310  0.83390  Biso   1.000  C
  H153     1.0000 0.46043  0.35006  0.30166  Biso   1.000  H
  H154     1.0000 0.53957  0.35006  0.19834  Biso   1.000  H
  H155     1.0000 0.96043  0.85006  0.30166  Biso   1.000  H
  H156     1.0000 0.03957  0.85006  0.19834  Biso   1.000  H
  H157     1.0000 0.53957  0.64994  0.69834  Biso   1.000  H
  H158     1.0000 0.46043  0.64994  0.80166  Biso   1.000  H
  H159     1.0000 0.03957  0.14994  0.69834  Biso   1.000  H
  H160     1.0000 0.96043  0.14994  0.80166  Biso   1.000  H
  H161     1.0000 0.42714  0.36095  0.35856  Biso   1.000  H
  H162     1.0000 0.57286  0.36095  0.14144  Biso   1.000  H
  H163     1.0000 0.92714  0.86095  0.35856  Biso   1.000  H
  H164     1.0000 0.07286  0.86095  0.14144  Biso   1.000  H
  H165     1.0000 0.57286  0.63905  0.64144  Biso   1.000  H
  H166     1.0000 0.42714  0.63905  0.85856  Biso   1.000  H
  H167     1.0000 0.07286  0.13905  0.64144  Biso   1.000  H
  H168     1.0000 0.92714  0.13905  0.85856  Biso   1.000  H
  C209     1.0000 0.40770  0.22530  0.29329  Biso   1.000  C
  C210     1.0000 0.59230  0.22530  0.20671  Biso   1.000  C
  C211     1.0000 0.90770  0.72530  0.29329  Biso   1.000  C
  C212     1.0000 0.09230  0.72530  0.20671  Biso   1.000  C
  C213     1.0000 0.59230  0.77470  0.70671  Biso   1.000  C
  C214     1.0000 0.40770  0.77470  0.79329  Biso   1.000  C
  C215     1.0000 0.09230  0.27470  0.70671  Biso   1.000  C
  C216     1.0000 0.90770  0.27470  0.79329  Biso   1.000  C
  H169     1.0000 0.39523  0.17510  0.32578  Biso   1.000  H
  H170     1.0000 0.60477  0.17510  0.17422  Biso   1.000  H
  H171     1.0000 0.89523  0.67510  0.32578  Biso   1.000  H
  H172     1.0000 0.10477  0.67510  0.17422  Biso   1.000  H
  H173     1.0000 0.60477  0.82490  0.67422  Biso   1.000  H
  H174     1.0000 0.39523  0.82490  0.82578  Biso   1.000  H
  H175     1.0000 0.10477  0.32490  0.67422  Biso   1.000  H
  H176     1.0000 0.89523  0.32490  0.82578  Biso   1.000  H
  H177     1.0000 0.37989  0.26907  0.26833  Biso   1.000  H
  H178     1.0000 0.62011  0.26907  0.23167  Biso   1.000  H
  H179     1.0000 0.87989  0.76907  0.26833  Biso   1.000  H
  H180     1.0000 0.12011  0.76907  0.23167  Biso   1.000  H
  H181     1.0000 0.62011  0.73093  0.73167  Biso   1.000  H
  H182     1.0000 0.37989  0.73093  0.76833  Biso   1.000  H
  H183     1.0000 0.12011  0.23093  0.73167  Biso   1.000  H
  H184     1.0000 0.87989  0.23093  0.76833  Biso   1.000  H
  C217     1.0000 0.42843  0.15360  0.24230  Biso   1.000  C
  C218     1.0000 0.57157  0.15360  0.25770  Biso   1.000  C
  C219     1.0000 0.92843  0.65360  0.24230  Biso   1.000  C
  C220     1.0000 0.07157  0.65360  0.25770  Biso   1.000  C
  C221     1.0000 0.57157  0.84640  0.75770  Biso   1.000  C
  C222     1.0000 0.42843  0.84640  0.74230  Biso   1.000  C
  C223     1.0000 0.07157  0.34640  0.75770  Biso   1.000  C
  C224     1.0000 0.92843  0.34640  0.74230  Biso   1.000  C
  H185     1.0000 0.43697  0.20309  0.20622  Biso   1.000  H
  H186     1.0000 0.56303  0.20309  0.29378  Biso   1.000  H
  H187     1.0000 0.93697  0.70309  0.20622  Biso   1.000  H
  H188     1.0000 0.06303  0.70309  0.29378  Biso   1.000  H
  H189     1.0000 0.56303  0.79691  0.79378  Biso   1.000  H
  H190     1.0000 0.43697  0.79691  0.70622  Biso   1.000  H
  H191     1.0000 0.06303  0.29691  0.79378  Biso   1.000  H
  H192     1.0000 0.93697  0.29691  0.70622  Biso   1.000  H
  H193     1.0000 0.45870  0.11738  0.26609  Biso   1.000  H
  H194     1.0000 0.54130  0.11738  0.23391  Biso   1.000  H
  H195     1.0000 0.95870  0.61738  0.26609  Biso   1.000  H
  H196     1.0000 0.04130  0.61738  0.23391  Biso   1.000  H
  H197     1.0000 0.54130  0.88262  0.73391  Biso   1.000  H
  H198     1.0000 0.45870  0.88262  0.76609  Biso   1.000  H
  H199     1.0000 0.04130  0.38262  0.73391  Biso   1.000  H
  H200     1.0000 0.95870  0.38262  0.76609  Biso   1.000  H
  C225     1.0000 0.39376  0.06340  0.20878  Biso   1.000  C
  C226     1.0000 0.60624  0.06340  0.29122  Biso   1.000  C
  C227     1.0000 0.89376  0.56340  0.20878  Biso   1.000  C
  C228     1.0000 0.10624  0.56340  0.29122  Biso   1.000  C
  C229     1.0000 0.60624  0.93660  0.79122  Biso   1.000  C
  C230     1.0000 0.39376  0.93660  0.70878  Biso   1.000  C
  C231     1.0000 0.10624  0.43660  0.79122  Biso   1.000  C
  C232     1.0000 0.89376  0.43660  0.70878  Biso   1.000  C
  H201     1.0000 0.36317  0.10046  0.18686  Biso   1.000  H
  H202     1.0000 0.63683  0.10046  0.31314  Biso   1.000  H
  H203     1.0000 0.86317  0.60046  0.18686  Biso   1.000  H
  H204     1.0000 0.13683  0.60046  0.31314  Biso   1.000  H
  H205     1.0000 0.63683  0.89954  0.81314  Biso   1.000  H
  H206     1.0000 0.36317  0.89954  0.68686  Biso   1.000  H
  H207     1.0000 0.13683  0.39954  0.81314  Biso   1.000  H
  H208     1.0000 0.86317  0.39954  0.68686  Biso   1.000  H
  H209     1.0000 0.38596  0.01388  0.24530  Biso   1.000  H
  H210     1.0000 0.61404  0.01388  0.25470  Biso   1.000  H
  H211     1.0000 0.88596  0.51388  0.24530  Biso   1.000  H
  H212     1.0000 0.11404  0.51388  0.25470  Biso   1.000  H
  H213     1.0000 0.61404  0.98612  0.75470  Biso   1.000  H
  H214     1.0000 0.38596  0.98612  0.74530  Biso   1.000  H
  H215     1.0000 0.11404  0.48612  0.75470  Biso   1.000  H
  H216     1.0000 0.88596  0.48612  0.74530  Biso   1.000  H
  C233     1.0000 0.41087  0.98950  0.15544  Biso   1.000  C
  C234     1.0000 0.58913  0.98950  0.34456  Biso   1.000  C
  C235     1.0000 0.91087  0.48950  0.15544  Biso   1.000  C
  C236     1.0000 0.08913  0.48950  0.34456  Biso   1.000  C
  C237     1.0000 0.58913  0.01050  0.84456  Biso   1.000  C
  C238     1.0000 0.41087  0.01050  0.65544  Biso   1.000  C
  C239     1.0000 0.08913  0.51050  0.84456  Biso   1.000  C
  C240     1.0000 0.91087  0.51050  0.65544  Biso   1.000  C
  N73      1.0000 0.42760  0.80340  0.30370  Biso   1.000  N
  N74      1.0000 0.57240  0.80340  0.19630  Biso   1.000  N
  N75      1.0000 0.92760  0.30340  0.30370  Biso   1.000  N
  N76      1.0000 0.07240  0.30340  0.19630  Biso   1.000  N
  N77      1.0000 0.57240  0.19660  0.69630  Biso   1.000  N
  N78      1.0000 0.42760  0.19660  0.80370  Biso   1.000  N
  N79      1.0000 0.07240  0.69660  0.69630  Biso   1.000  N
  N80      1.0000 0.92760  0.69660  0.80370  Biso   1.000  N
  C241     1.0000 0.46240  0.87430  0.32820  Biso   1.000  C
  C242     1.0000 0.53760  0.87430  0.17180  Biso   1.000  C
  C243     1.0000 0.96240  0.37430  0.32820  Biso   1.000  C
  C244     1.0000 0.03760  0.37430  0.17180  Biso   1.000  C
  C245     1.0000 0.53760  0.12570  0.67180  Biso   1.000  C
  C246     1.0000 0.46240  0.12570  0.82820  Biso   1.000  C
  C247     1.0000 0.03760  0.62570  0.67180  Biso   1.000  C
  C248     1.0000 0.96240  0.62570  0.82820  Biso   1.000  C
  H217     1.0000 0.47000  0.93794  0.30335  Biso   1.000  H
  H218     1.0000 0.53000  0.93794  0.19665  Biso   1.000  H
  H219     1.0000 0.97000  0.43794  0.30335  Biso   1.000  H
  H220     1.0000 0.03000  0.43794  0.19665  Biso   1.000  H
  H221     1.0000 0.53000  0.06206  0.69665  Biso   1.000  H
  H222     1.0000 0.47000  0.06206  0.80335  Biso   1.000  H
  H223     1.0000 0.03000  0.56206  0.69665  Biso   1.000  H
  H224     1.0000 0.97000  0.56206  0.80335  Biso   1.000  H
  N81      1.0000 0.44670  0.76600  0.29440  Biso   1.000  N
  N82      1.0000 0.55330  0.76600  0.20560  Biso   1.000  N
  N83      1.0000 0.94670  0.26600  0.29440  Biso   1.000  N
  N84      1.0000 0.05330  0.26600  0.20560  Biso   1.000  N
  N85      1.0000 0.55330  0.23400  0.70560  Biso   1.000  N
  N86      1.0000 0.44670  0.23400  0.79440  Biso   1.000  N
  N87      1.0000 0.05330  0.73400  0.70560  Biso   1.000  N
  N88      1.0000 0.94670  0.73400  0.79440  Biso   1.000  N
  C249     1.0000 0.47970  0.84000  0.31970  Biso   1.000  C
  C250     1.0000 0.52030  0.84000  0.18030  Biso   1.000  C
  C251     1.0000 0.97970  0.34000  0.31970  Biso   1.000  C
  C252     1.0000 0.02030  0.34000  0.18030  Biso   1.000  C
  C253     1.0000 0.52030  0.16000  0.68030  Biso   1.000  C
  C254     1.0000 0.47970  0.16000  0.81970  Biso   1.000  C
  C255     1.0000 0.02030  0.66000  0.68030  Biso   1.000  C
  C256     1.0000 0.97970  0.66000  0.81970  Biso   1.000  C
  H225     1.0000 0.49716  0.88420  0.29236  Biso   1.000  H
  H226     1.0000 0.50284  0.88420  0.20764  Biso   1.000  H
  H227     1.0000 0.99716  0.38420  0.29236  Biso   1.000  H
  H228     1.0000 0.00284  0.38420  0.20764  Biso   1.000  H
  H229     1.0000 0.50284  0.11580  0.70764  Biso   1.000  H
  H230     1.0000 0.49716  0.11580  0.79236  Biso   1.000  H
  H231     1.0000 0.00284  0.61580  0.70764  Biso   1.000  H
  H232     1.0000 0.99716  0.61580  0.79236  Biso   1.000  H
