data_image0
_cell_length_a       7.755
_cell_length_b       14.68
_cell_length_c       15.81
_cell_angle_alpha    90
_cell_angle_beta     102.81
_cell_angle_gamma    90

_symmetry_space_group_name_H-M    "P 1"
_symmetry_int_tables_number       1

loop_
  _symmetry_equiv_pos_as_xyz
  'x, y, z'

loop_
  _atom_site_label
  _atom_site_occupancy
  _atom_site_fract_x
  _atom_site_fract_y
  _atom_site_fract_z
  _atom_site_thermal_displace_type
  _atom_site_B_iso_or_equiv
  _atom_site_type_symbol
  Cu1      1.0000 0.00000  0.00000  0.00000  Biso   1.000  Cu
  Cu2      1.0000 0.50000  0.50000  0.50000  Biso   1.000  Cu
  N1       1.0000 0.16000  0.95970  0.92490  Biso   1.000  N
  N2       1.0000 0.34000  0.45970  0.57510  Biso   1.000  N
  N3       1.0000 0.84000  0.04030  0.07510  Biso   1.000  N
  N4       1.0000 0.66000  0.54030  0.42490  Biso   1.000  N
  N5       1.0000 0.12130  0.90940  0.86230  Biso   1.000  N
  N6       1.0000 0.37870  0.40940  0.63770  Biso   1.000  N
  N7       1.0000 0.87870  0.09060  0.13770  Biso   1.000  N
  N8       1.0000 0.62130  0.59060  0.36230  Biso   1.000  N
  N9       1.0000 0.08950  0.86030  0.80480  Biso   1.000  N
  N10      1.0000 0.41050  0.36030  0.69520  Biso   1.000  N
  N11      1.0000 0.91050  0.13970  0.19520  Biso   1.000  N
  N12      1.0000 0.58950  0.63970  0.30480  Biso   1.000  N
  N13      1.0000 0.13990  0.11530  0.99940  Biso   1.000  N
  N14      1.0000 0.36010  0.61530  0.50060  Biso   1.000  N
  N15      1.0000 0.86010  0.88470  0.00060  Biso   1.000  N
  N16      1.0000 0.63990  0.38470  0.49940  Biso   1.000  N
  N17      1.0000 0.06500  0.18790  0.98460  Biso   1.000  N
  N18      1.0000 0.43500  0.68790  0.51540  Biso   1.000  N
  N19      1.0000 0.93500  0.81210  0.01540  Biso   1.000  N
  N20      1.0000 0.56500  0.31210  0.48460  Biso   1.000  N
  N21      1.0000 0.99890  0.25770  0.97260  Biso   1.000  N
  N22      1.0000 0.50110  0.75770  0.52740  Biso   1.000  N
  N23      1.0000 0.00110  0.74230  0.02740  Biso   1.000  N
  N24      1.0000 0.49890  0.24230  0.47260  Biso   1.000  N
  O1       1.0000 0.14940  0.13980  0.80080  Biso   1.000  O
  O2       1.0000 0.35060  0.63980  0.69920  Biso   1.000  O
  O3       1.0000 0.85060  0.86020  0.19920  Biso   1.000  O
  O4       1.0000 0.64940  0.36020  0.30080  Biso   1.000  O
  C1       1.0000 0.00380  0.12360  0.75460  Biso   1.000  C
  C2       1.0000 0.49620  0.62360  0.74540  Biso   1.000  C
  C3       1.0000 0.99620  0.87640  0.24540  Biso   1.000  C
  C4       1.0000 0.50380  0.37640  0.25460  Biso   1.000  C
  H1       1.0000 0.97380  0.06850  0.74000  Biso   1.000  H
  H2       1.0000 0.52620  0.56850  0.76000  Biso   1.000  H
  H3       1.0000 0.02620  0.93150  0.26000  Biso   1.000  H
  H4       1.0000 0.47380  0.43150  0.24000  Biso   1.000  H
  N25      1.0000 0.88150  0.18420  0.72440  Biso   1.000  N
  N26      1.0000 0.61850  0.68420  0.77560  Biso   1.000  N
  N27      1.0000 0.11850  0.81580  0.27560  Biso   1.000  N
  N28      1.0000 0.38150  0.31580  0.22440  Biso   1.000  N
  C5       1.0000 0.70940  0.15820  0.67510  Biso   1.000  C
  C6       1.0000 0.79060  0.65820  0.82490  Biso   1.000  C
  C7       1.0000 0.29060  0.84180  0.32490  Biso   1.000  C
  C8       1.0000 0.20940  0.34180  0.17510  Biso   1.000  C
  H5       1.0000 0.68210  0.19240  0.62200  Biso   1.000  H
  H6       1.0000 0.81790  0.69240  0.87800  Biso   1.000  H
  H7       1.0000 0.31790  0.80760  0.37800  Biso   1.000  H
  H8       1.0000 0.18210  0.30760  0.12200  Biso   1.000  H
  H9       1.0000 0.62230  0.17070  0.70820  Biso   1.000  H
  H10      1.0000 0.87770  0.67070  0.79180  Biso   1.000  H
  H11      1.0000 0.37770  0.82930  0.29180  Biso   1.000  H
  H12      1.0000 0.12230  0.32930  0.20820  Biso   1.000  H
  H13      1.0000 0.70900  0.09430  0.66210  Biso   1.000  H
  H14      1.0000 0.79100  0.59430  0.83790  Biso   1.000  H
  H15      1.0000 0.29100  0.90570  0.33790  Biso   1.000  H
  H16      1.0000 0.20900  0.40570  0.16210  Biso   1.000  H
  C9       1.0000 0.90820  0.27950  0.74860  Biso   1.000  C
  C10      1.0000 0.59180  0.77950  0.75140  Biso   1.000  C
  C11      1.0000 0.09180  0.72050  0.25140  Biso   1.000  C
  C12      1.0000 0.40820  0.22050  0.24860  Biso   1.000  C
  H17      1.0000 0.85070  0.29280  0.79510  Biso   1.000  H
  H18      1.0000 0.64930  0.79280  0.70490  Biso   1.000  H
  H19      1.0000 0.14930  0.70720  0.20490  Biso   1.000  H
  H20      1.0000 0.35070  0.20720  0.29510  Biso   1.000  H
  H21      1.0000 0.85910  0.31710  0.69950  Biso   1.000  H
  H22      1.0000 0.64090  0.81710  0.80050  Biso   1.000  H
  H23      1.0000 0.14090  0.68290  0.30050  Biso   1.000  H
  H24      1.0000 0.35910  0.18290  0.19950  Biso   1.000  H
  H25      1.0000 0.03250  0.29160  0.76720  Biso   1.000  H
  H26      1.0000 0.46750  0.79160  0.73280  Biso   1.000  H
  H27      1.0000 0.96750  0.70840  0.23280  Biso   1.000  H
  H28      1.0000 0.53250  0.20840  0.26720  Biso   1.000  H
  N29      1.0000 0.48520  0.00320  0.87990  Biso   1.000  N
  N30      1.0000 0.01480  0.50320  0.62010  Biso   1.000  N
  N31      1.0000 0.51480  0.99680  0.12010  Biso   1.000  N
  N32      1.0000 0.98520  0.49680  0.37990  Biso   1.000  N
  N33      1.0000 0.62700  0.03060  0.87500  Biso   1.000  N
  N34      1.0000 0.87300  0.53060  0.62500  Biso   1.000  N
  N35      1.0000 0.37300  0.96940  0.12500  Biso   1.000  N
  N36      1.0000 0.12700  0.46940  0.37500  Biso   1.000  N
  N37      1.0000 0.76610  0.05340  0.86990  Biso   1.000  N
  N38      1.0000 0.73390  0.55340  0.63010  Biso   1.000  N
  N39      1.0000 0.23390  0.94660  0.13010  Biso   1.000  N
  N40      1.0000 0.26610  0.44660  0.36990  Biso   1.000  N
  Cu3      1.0000 0.30990  0.07231  0.92567  Biso   1.000  Cu
  Cu4      1.0000 0.19010  0.57231  0.57433  Biso   1.000  Cu
  Cu5      1.0000 0.69010  0.92769  0.07433  Biso   1.000  Cu
  Cu6      1.0000 0.80990  0.42769  0.42567  Biso   1.000  Cu
  N41      1.0000 0.45380  0.18640  0.95180  Biso   1.000  N
  N42      1.0000 0.04620  0.68640  0.54820  Biso   1.000  N
  N43      1.0000 0.54620  0.81360  0.04820  Biso   1.000  N
  N44      1.0000 0.95380  0.31360  0.45180  Biso   1.000  N
  C13      1.0000 0.46980  0.24710  0.89120  Biso   1.000  C
  C14      1.0000 0.03020  0.74710  0.60880  Biso   1.000  C
  C15      1.0000 0.53020  0.75290  0.10880  Biso   1.000  C
  C16      1.0000 0.96980  0.25290  0.39120  Biso   1.000  C
  H29      1.0000 0.42100  0.23370  0.83330  Biso   1.000  H
  H30      1.0000 0.07900  0.73370  0.66670  Biso   1.000  H
  H31      1.0000 0.57900  0.76630  0.16670  Biso   1.000  H
  H32      1.0000 0.92100  0.26630  0.33330  Biso   1.000  H
  C17      1.0000 0.55570  0.32880  0.91130  Biso   1.000  C
  C18      1.0000 0.94430  0.82880  0.58870  Biso   1.000  C
  C19      1.0000 0.44430  0.67120  0.08870  Biso   1.000  C
  C20      1.0000 0.05570  0.17120  0.41130  Biso   1.000  C
  H33      1.0000 0.56410  0.36980  0.86750  Biso   1.000  H
  H34      1.0000 0.93590  0.86980  0.63250  Biso   1.000  H
  H35      1.0000 0.43590  0.63020  0.13250  Biso   1.000  H
  H36      1.0000 0.06410  0.13020  0.36750  Biso   1.000  H
  C21      1.0000 0.62950  0.34960  0.99660  Biso   1.000  C
  C22      1.0000 0.87050  0.84960  0.50340  Biso   1.000  C
  C23      1.0000 0.37050  0.65040  0.00340  Biso   1.000  C
  C24      1.0000 0.12950  0.15040  0.49660  Biso   1.000  C
  C25      1.0000 0.61940  0.28570  0.05870  Biso   1.000  C
  C26      1.0000 0.88060  0.78570  0.44130  Biso   1.000  C
  C27      1.0000 0.38060  0.71430  0.94130  Biso   1.000  C
  C28      1.0000 0.11940  0.21430  0.55870  Biso   1.000  C
  H37      1.0000 0.67180  0.29640  0.11660  Biso   1.000  H
  H38      1.0000 0.82820  0.79640  0.38340  Biso   1.000  H
  H39      1.0000 0.32820  0.70360  0.88340  Biso   1.000  H
  H40      1.0000 0.17180  0.20360  0.61660  Biso   1.000  H
  C29      1.0000 0.53080  0.20570  0.03400  Biso   1.000  C
  C30      1.0000 0.96920  0.70570  0.46600  Biso   1.000  C
  C31      1.0000 0.46920  0.79430  0.96600  Biso   1.000  C
  C32      1.0000 0.03080  0.29430  0.53400  Biso   1.000  C
  H41      1.0000 0.52420  0.16290  0.07660  Biso   1.000  H
  H42      1.0000 0.97580  0.66290  0.42340  Biso   1.000  H
  H43      1.0000 0.47580  0.83710  0.92340  Biso   1.000  H
  H44      1.0000 0.02420  0.33710  0.57660  Biso   1.000  H
  C33      1.0000 0.71750  0.44050  0.01820  Biso   1.000  C
  C34      1.0000 0.78250  0.94050  0.48180  Biso   1.000  C
  C35      1.0000 0.28250  0.55950  0.98180  Biso   1.000  C
  C36      1.0000 0.21750  0.05950  0.51820  Biso   1.000  C
  O5       1.0000 0.71980  0.49840  0.96560  Biso   1.000  O
  O6       1.0000 0.78020  0.99840  0.53440  Biso   1.000  O
  O7       1.0000 0.28020  0.50160  0.03440  Biso   1.000  O
  O8       1.0000 0.21980  0.00160  0.46560  Biso   1.000  O
  O9       1.0000 0.78850  0.44820  0.10180  Biso   1.000  O
  O10      1.0000 0.71150  0.94820  0.39820  Biso   1.000  O
  O11      1.0000 0.21150  0.55180  0.89820  Biso   1.000  O
  O12      1.0000 0.28850  0.05180  0.60180  Biso   1.000  O
  C37      1.0000 0.87480  0.53440  0.13230  Biso   1.000  C
  C38      1.0000 0.62520  0.03440  0.36770  Biso   1.000  C
  C39      1.0000 0.12520  0.46560  0.86770  Biso   1.000  C
  C40      1.0000 0.37480  0.96560  0.63230  Biso   1.000  C
  H45      1.0000 0.97930  0.54150  0.10980  Biso   1.000  H
  H46      1.0000 0.52070  0.04150  0.39020  Biso   1.000  H
  H47      1.0000 0.02070  0.45850  0.89020  Biso   1.000  H
  H48      1.0000 0.47930  0.95850  0.60980  Biso   1.000  H
  H49      1.0000 0.90670  0.53450  0.19460  Biso   1.000  H
  H50      1.0000 0.59330  0.03450  0.30540  Biso   1.000  H
  H51      1.0000 0.09330  0.46550  0.80540  Biso   1.000  H
  H52      1.0000 0.40670  0.96550  0.69460  Biso   1.000  H
  H53      1.0000 0.79510  0.58390  0.11260  Biso   1.000  H
  H54      1.0000 0.70490  0.08390  0.38740  Biso   1.000  H
  H55      1.0000 0.20490  0.41610  0.88740  Biso   1.000  H
  H56      1.0000 0.29510  0.91610  0.61260  Biso   1.000  H
