data_image0
_cell_length_a       11
_cell_length_b       10.66
_cell_length_c       9.77
_cell_angle_alpha    90
_cell_angle_beta     90
_cell_angle_gamma    90

_symmetry_space_group_name_H-M    "P 1"
_symmetry_int_tables_number       1

loop_
  _symmetry_equiv_pos_as_xyz
  'x, y, z'

loop_
  _atom_site_label
  _atom_site_occupancy
  _atom_site_fract_x
  _atom_site_fract_y
  _atom_site_fract_z
  _atom_site_thermal_displace_type
  _atom_site_B_iso_or_equiv
  _atom_site_type_symbol
  Cu1      1.0000 0.81920  0.45680  0.37950  Biso   1.000  Cu
  Cu2      1.0000 0.31920  0.04320  0.62050  Biso   1.000  Cu
  Cu3      1.0000 0.18080  0.95680  0.12050  Biso   1.000  Cu
  Cu4      1.0000 0.68080  0.54320  0.87950  Biso   1.000  Cu
  C1       1.0000 0.82700  0.20000  0.29900  Biso   1.000  C
  C2       1.0000 0.32700  0.30000  0.70100  Biso   1.000  C
  C3       1.0000 0.17300  0.70000  0.20100  Biso   1.000  C
  C4       1.0000 0.67300  0.80000  0.79900  Biso   1.000  C
  C5       1.0000 0.69300  0.23800  0.32500  Biso   1.000  C
  C6       1.0000 0.19300  0.26200  0.67500  Biso   1.000  C
  C7       1.0000 0.30700  0.73800  0.17500  Biso   1.000  C
  C8       1.0000 0.80700  0.76200  0.82500  Biso   1.000  C
  C9       1.0000 0.91700  0.34300  0.13400  Biso   1.000  C
  C10      1.0000 0.41700  0.15700  0.86600  Biso   1.000  C
  C11      1.0000 0.08300  0.84300  0.36600  Biso   1.000  C
  C12      1.0000 0.58300  0.65700  0.63400  Biso   1.000  C
  C13      1.0000 0.82000  0.43000  0.07600  Biso   1.000  C
  C14      1.0000 0.32000  0.07000  0.92400  Biso   1.000  C
  C15      1.0000 0.18000  0.93000  0.42400  Biso   1.000  C
  C16      1.0000 0.68000  0.57000  0.57600  Biso   1.000  C
  C17      1.0000 0.02500  0.28900  0.33900  Biso   1.000  C
  C18      1.0000 0.52500  0.21100  0.66100  Biso   1.000  C
  C19      1.0000 0.97500  0.78900  0.16100  Biso   1.000  C
  C20      1.0000 0.47500  0.71100  0.83900  Biso   1.000  C
  C21      1.0000 0.06300  0.42100  0.39600  Biso   1.000  C
  C22      1.0000 0.56300  0.07900  0.60400  Biso   1.000  C
  C23      1.0000 0.93700  0.92100  0.10400  Biso   1.000  C
  C24      1.0000 0.43700  0.57900  0.89600  Biso   1.000  C
  Li1      1.0000 0.68300  0.87300  0.19200  Biso   1.000  Li
  Li2      1.0000 0.18300  0.62700  0.80800  Biso   1.000  Li
  Li3      1.0000 0.31700  0.37300  0.30800  Biso   1.000  Li
  Li4      1.0000 0.81700  0.12700  0.69200  Biso   1.000  Li
  N1       1.0000 0.90500  0.30800  0.27900  Biso   1.000  N
  N2       1.0000 0.40500  0.19200  0.72100  Biso   1.000  N
  N3       1.0000 0.09500  0.80800  0.22100  Biso   1.000  N
  N4       1.0000 0.59500  0.69200  0.77900  Biso   1.000  N
  O1       1.0000 0.66900  0.35100  0.36600  Biso   1.000  O
  O2       1.0000 0.16900  0.14900  0.63400  Biso   1.000  O
  O3       1.0000 0.33100  0.85100  0.13400  Biso   1.000  O
  O4       1.0000 0.83100  0.64900  0.86600  Biso   1.000  O
  O5       1.0000 0.60000  0.17400  0.28600  Biso   1.000  O
  O6       1.0000 0.10000  0.32600  0.71400  Biso   1.000  O
  O7       1.0000 0.40000  0.67400  0.21400  Biso   1.000  O
  O8       1.0000 0.90000  0.82600  0.78600  Biso   1.000  O
  O9       1.0000 0.76800  0.40800  0.96500  Biso   1.000  O
  O10      1.0000 0.26800  0.09200  0.03500  Biso   1.000  O
  O11      1.0000 0.23200  0.90800  0.53500  Biso   1.000  O
  O12      1.0000 0.73200  0.59200  0.46500  Biso   1.000  O
  O13      1.0000 0.78900  0.51200  0.15900  Biso   1.000  O
  O14      1.0000 0.28900  0.98800  0.84100  Biso   1.000  O
  O15      1.0000 0.21100  0.01200  0.34100  Biso   1.000  O
  O16      1.0000 0.71100  0.48800  0.65900  Biso   1.000  O
  O17      1.0000 0.98500  0.51600  0.41900  Biso   1.000  O
  O18      1.0000 0.48500  0.98400  0.58100  Biso   1.000  O
  O19      1.0000 0.01500  0.01600  0.08100  Biso   1.000  O
  O20      1.0000 0.51500  0.48400  0.91900  Biso   1.000  O
  O21      1.0000 0.17600  0.44500  0.42200  Biso   1.000  O
  O22      1.0000 0.67600  0.05500  0.57800  Biso   1.000  O
  O23      1.0000 0.82400  0.94500  0.07800  Biso   1.000  O
  O24      1.0000 0.32400  0.55500  0.92200  Biso   1.000  O
  O25      1.0000 0.62900  0.70800  0.12000  Biso   1.000  O
  O26      1.0000 0.12900  0.79200  0.88000  Biso   1.000  O
  O27      1.0000 0.37100  0.20800  0.38000  Biso   1.000  O
  O28      1.0000 0.87100  0.29200  0.62000  Biso   1.000  O
  O29      1.0000 0.72800  0.86400  0.37500  Biso   1.000  O
  O30      1.0000 0.22800  0.63600  0.62500  Biso   1.000  O
  O31      1.0000 0.27200  0.36400  0.12500  Biso   1.000  O
  O32      1.0000 0.77200  0.13600  0.87500  Biso   1.000  O
  O33      1.0000 0.55200  0.98100  0.12000  Biso   1.000  O
  O34      1.0000 0.05200  0.51900  0.88000  Biso   1.000  O
  O35      1.0000 0.44800  0.48100  0.38000  Biso   1.000  O
  O36      1.0000 0.94800  0.01900  0.62000  Biso   1.000  O
