data_image0
_cell_length_a       15.1727
_cell_length_b       8.3275
_cell_length_c       15.2603
_cell_angle_alpha    90
_cell_angle_beta     116.037
_cell_angle_gamma    90

_symmetry_space_group_name_H-M    "P 1"
_symmetry_int_tables_number       1

loop_
  _symmetry_equiv_pos_as_xyz
  'x, y, z'

loop_
  _atom_site_label
  _atom_site_occupancy
  _atom_site_fract_x
  _atom_site_fract_y
  _atom_site_fract_z
  _atom_site_thermal_displace_type
  _atom_site_B_iso_or_equiv
  _atom_site_type_symbol
  Cu1      1.0000 0.13246  0.33833  0.40614  Biso   1.000  Cu
  Cu2      1.0000 0.63246  0.83833  0.40614  Biso   1.000  Cu
  Cu3      1.0000 0.13246  0.66167  0.90614  Biso   1.000  Cu
  Cu4      1.0000 0.63246  0.16167  0.90614  Biso   1.000  Cu
  Cu5      1.0000 0.86754  0.66167  0.59386  Biso   1.000  Cu
  Cu6      1.0000 0.36754  0.16167  0.59386  Biso   1.000  Cu
  Cu7      1.0000 0.86754  0.33833  0.09386  Biso   1.000  Cu
  Cu8      1.0000 0.36754  0.83833  0.09386  Biso   1.000  Cu
  Cl1      1.0000 0.17989  0.45666  0.30130  Biso   1.000  Cl
  Cl2      1.0000 0.67989  0.95666  0.30130  Biso   1.000  Cl
  Cl3      1.0000 0.17989  0.54334  0.80130  Biso   1.000  Cl
  Cl4      1.0000 0.67989  0.04334  0.80130  Biso   1.000  Cl
  Cl5      1.0000 0.82011  0.54334  0.69870  Biso   1.000  Cl
  Cl6      1.0000 0.32011  0.04334  0.69870  Biso   1.000  Cl
  Cl7      1.0000 0.82011  0.45666  0.19870  Biso   1.000  Cl
  Cl8      1.0000 0.32011  0.95666  0.19870  Biso   1.000  Cl
  Cl9      1.0000 0.26098  0.44773  0.53798  Biso   1.000  Cl
  Cl10     1.0000 0.76098  0.94773  0.53798  Biso   1.000  Cl
  Cl11     1.0000 0.26098  0.55227  0.03798  Biso   1.000  Cl
  Cl12     1.0000 0.76098  0.05227  0.03798  Biso   1.000  Cl
  Cl13     1.0000 0.73902  0.55227  0.46202  Biso   1.000  Cl
  Cl14     1.0000 0.23902  0.05227  0.46202  Biso   1.000  Cl
  Cl15     1.0000 0.73902  0.44773  0.96202  Biso   1.000  Cl
  Cl16     1.0000 0.23902  0.94773  0.96202  Biso   1.000  Cl
  N1       1.0000 0.05552  0.28739  0.48179  Biso   1.000  N
  N2       1.0000 0.55552  0.78739  0.48179  Biso   1.000  N
  N3       1.0000 0.05552  0.71261  0.98179  Biso   1.000  N
  N4       1.0000 0.55552  0.21261  0.98179  Biso   1.000  N
  N5       1.0000 0.94448  0.71261  0.51821  Biso   1.000  N
  N6       1.0000 0.44448  0.21261  0.51821  Biso   1.000  N
  N7       1.0000 0.94448  0.28739  0.01821  Biso   1.000  N
  N8       1.0000 0.44448  0.78739  0.01821  Biso   1.000  N
  N9       1.0000 0.87418  0.07763  0.27424  Biso   1.000  N
  N10      1.0000 0.37418  0.57763  0.27424  Biso   1.000  N
  N11      1.0000 0.87418  0.92237  0.77424  Biso   1.000  N
  N12      1.0000 0.37418  0.42237  0.77424  Biso   1.000  N
  N13      1.0000 0.12582  0.92237  0.72576  Biso   1.000  N
  N14      1.0000 0.62582  0.42237  0.72576  Biso   1.000  N
  N15      1.0000 0.12582  0.07763  0.22576  Biso   1.000  N
  N16      1.0000 0.62582  0.57763  0.22576  Biso   1.000  N
  N17      1.0000 0.01463  0.22900  0.30078  Biso   1.000  N
  N18      1.0000 0.51463  0.72900  0.30078  Biso   1.000  N
  N19      1.0000 0.01463  0.77100  0.80078  Biso   1.000  N
  N20      1.0000 0.51463  0.27100  0.80078  Biso   1.000  N
  N21      1.0000 0.98537  0.77100  0.69922  Biso   1.000  N
  N22      1.0000 0.48537  0.27100  0.69922  Biso   1.000  N
  N23      1.0000 0.98537  0.22900  0.19922  Biso   1.000  N
  N24      1.0000 0.48537  0.72900  0.19922  Biso   1.000  N
  H1       1.0000 0.83740  0.05400  0.29790  Biso   1.000  H
  H2       1.0000 0.33740  0.55400  0.29790  Biso   1.000  H
  H3       1.0000 0.83740  0.94600  0.79790  Biso   1.000  H
  H4       1.0000 0.33740  0.44600  0.79790  Biso   1.000  H
  H5       1.0000 0.16260  0.94600  0.70210  Biso   1.000  H
  H6       1.0000 0.66260  0.44600  0.70210  Biso   1.000  H
  H7       1.0000 0.16260  0.05400  0.20210  Biso   1.000  H
  H8       1.0000 0.66260  0.55400  0.20210  Biso   1.000  H
  H9       1.0000 0.85950  0.06700  0.21480  Biso   1.000  H
  H10      1.0000 0.35950  0.56700  0.21480  Biso   1.000  H
  H11      1.0000 0.85950  0.93300  0.71480  Biso   1.000  H
  H12      1.0000 0.35950  0.43300  0.71480  Biso   1.000  H
  H13      1.0000 0.14050  0.93300  0.78520  Biso   1.000  H
  H14      1.0000 0.64050  0.43300  0.78520  Biso   1.000  H
  H15      1.0000 0.14050  0.06700  0.28520  Biso   1.000  H
  H16      1.0000 0.64050  0.56700  0.28520  Biso   1.000  H
  C1       1.0000 0.07725  0.33504  0.57295  Biso   1.000  C
  C2       1.0000 0.57725  0.83504  0.57295  Biso   1.000  C
  C3       1.0000 0.07725  0.66496  0.07295  Biso   1.000  C
  C4       1.0000 0.57725  0.16496  0.07295  Biso   1.000  C
  C5       1.0000 0.92275  0.66496  0.42705  Biso   1.000  C
  C6       1.0000 0.42275  0.16496  0.42705  Biso   1.000  C
  C7       1.0000 0.92275  0.33504  0.92705  Biso   1.000  C
  C8       1.0000 0.42275  0.83504  0.92705  Biso   1.000  C
  H17      1.0000 0.13520  0.39000  0.60610  Biso   1.000  H
  H18      1.0000 0.63520  0.89000  0.60610  Biso   1.000  H
  H19      1.0000 0.13520  0.61000  0.10610  Biso   1.000  H
  H20      1.0000 0.63520  0.11000  0.10610  Biso   1.000  H
  H21      1.0000 0.86480  0.61000  0.39390  Biso   1.000  H
  H22      1.0000 0.36480  0.11000  0.39390  Biso   1.000  H
  H23      1.0000 0.86480  0.39000  0.89390  Biso   1.000  H
  H24      1.0000 0.36480  0.89000  0.89390  Biso   1.000  H
  C9       1.0000 0.01371  0.30890  0.61538  Biso   1.000  C
  C10      1.0000 0.51371  0.80890  0.61538  Biso   1.000  C
  C11      1.0000 0.01371  0.69110  0.11538  Biso   1.000  C
  C12      1.0000 0.51371  0.19110  0.11538  Biso   1.000  C
  C13      1.0000 0.98629  0.69110  0.38462  Biso   1.000  C
  C14      1.0000 0.48629  0.19110  0.38462  Biso   1.000  C
  C15      1.0000 0.98629  0.30890  0.88462  Biso   1.000  C
  C16      1.0000 0.48629  0.80890  0.88462  Biso   1.000  C
  H25      1.0000 0.03170  0.35500  0.67920  Biso   1.000  H
  H26      1.0000 0.53170  0.85500  0.67920  Biso   1.000  H
  H27      1.0000 0.03170  0.64500  0.17920  Biso   1.000  H
  H28      1.0000 0.53170  0.14500  0.17920  Biso   1.000  H
  H29      1.0000 0.96830  0.64500  0.32080  Biso   1.000  H
  H30      1.0000 0.46830  0.14500  0.32080  Biso   1.000  H
  H31      1.0000 0.96830  0.35500  0.82080  Biso   1.000  H
  H32      1.0000 0.46830  0.85500  0.82080  Biso   1.000  H
  C17      1.0000 0.92607  0.23027  0.56262  Biso   1.000  C
  C18      1.0000 0.42607  0.73027  0.56262  Biso   1.000  C
  C19      1.0000 0.92607  0.76973  0.06262  Biso   1.000  C
  C20      1.0000 0.42607  0.26973  0.06262  Biso   1.000  C
  C21      1.0000 0.07393  0.76973  0.43738  Biso   1.000  C
  C22      1.0000 0.57393  0.26973  0.43738  Biso   1.000  C
  C23      1.0000 0.07393  0.23027  0.93738  Biso   1.000  C
  C24      1.0000 0.57393  0.73027  0.93738  Biso   1.000  C
  H33      1.0000 0.88190  0.21500  0.59030  Biso   1.000  H
  H34      1.0000 0.38190  0.71500  0.59030  Biso   1.000  H
  H35      1.0000 0.88190  0.78500  0.09030  Biso   1.000  H
  H36      1.0000 0.38190  0.28500  0.09030  Biso   1.000  H
  H37      1.0000 0.11810  0.78500  0.40970  Biso   1.000  H
  H38      1.0000 0.61810  0.28500  0.40970  Biso   1.000  H
  H39      1.0000 0.11810  0.21500  0.90970  Biso   1.000  H
  H40      1.0000 0.61810  0.71500  0.90970  Biso   1.000  H
  C25      1.0000 0.90424  0.17558  0.46873  Biso   1.000  C
  C26      1.0000 0.40424  0.67558  0.46873  Biso   1.000  C
  C27      1.0000 0.90424  0.82442  0.96873  Biso   1.000  C
  C28      1.0000 0.40424  0.32442  0.96873  Biso   1.000  C
  C29      1.0000 0.09576  0.82442  0.53127  Biso   1.000  C
  C30      1.0000 0.59576  0.32442  0.53127  Biso   1.000  C
  C31      1.0000 0.09576  0.17558  0.03127  Biso   1.000  C
  C32      1.0000 0.59576  0.67558  0.03127  Biso   1.000  C
  H41      1.0000 0.84850  0.11900  0.43390  Biso   1.000  H
  H42      1.0000 0.34850  0.61900  0.43390  Biso   1.000  H
  H43      1.0000 0.84850  0.88100  0.93390  Biso   1.000  H
  H44      1.0000 0.34850  0.38100  0.93390  Biso   1.000  H
  H45      1.0000 0.15150  0.88100  0.56610  Biso   1.000  H
  H46      1.0000 0.65150  0.38100  0.56610  Biso   1.000  H
  H47      1.0000 0.15150  0.11900  0.06610  Biso   1.000  H
  H48      1.0000 0.65150  0.61900  0.06610  Biso   1.000  H
  C33      1.0000 0.97051  0.20723  0.43084  Biso   1.000  C
  C34      1.0000 0.47051  0.70723  0.43084  Biso   1.000  C
  C35      1.0000 0.97051  0.79277  0.93084  Biso   1.000  C
  C36      1.0000 0.47051  0.29277  0.93084  Biso   1.000  C
  C37      1.0000 0.02949  0.79277  0.56916  Biso   1.000  C
  C38      1.0000 0.52949  0.29277  0.56916  Biso   1.000  C
  C39      1.0000 0.02949  0.20723  0.06916  Biso   1.000  C
  C40      1.0000 0.52949  0.70723  0.06916  Biso   1.000  C
  C41      1.0000 0.95105  0.16735  0.32883  Biso   1.000  C
  C42      1.0000 0.45105  0.66735  0.32883  Biso   1.000  C
  C43      1.0000 0.95105  0.83265  0.82883  Biso   1.000  C
  C44      1.0000 0.45105  0.33265  0.82883  Biso   1.000  C
  C45      1.0000 0.04895  0.83265  0.67117  Biso   1.000  C
  C46      1.0000 0.54895  0.33265  0.67117  Biso   1.000  C
  C47      1.0000 0.04895  0.16735  0.17117  Biso   1.000  C
  C48      1.0000 0.54895  0.66735  0.17117  Biso   1.000  C
