data_image0
_cell_length_a       7.979
_cell_length_b       11.787
_cell_length_c       12.308
_cell_angle_alpha    87.398
_cell_angle_beta     79.351
_cell_angle_gamma    81.094

_symmetry_space_group_name_H-M    "P 1"
_symmetry_int_tables_number       1

loop_
  _symmetry_equiv_pos_as_xyz
  'x, y, z'

loop_
  _atom_site_label
  _atom_site_occupancy
  _atom_site_fract_x
  _atom_site_fract_y
  _atom_site_fract_z
  _atom_site_thermal_displace_type
  _atom_site_B_iso_or_equiv
  _atom_site_type_symbol
  Cu1      1.0000 0.50000  0.50000  0.50000  Biso   1.000  Cu
  Cu2      1.0000 0.50000  0.00000  0.00000  Biso   1.000  Cu
  O1       1.0000 0.46180  0.17013  0.98427  Biso   1.000  O
  O2       1.0000 0.53820  0.82987  0.01573  Biso   1.000  O
  O3       1.0000 0.56510  0.38760  0.37960  Biso   1.000  O
  O4       1.0000 0.43490  0.61240  0.62040  Biso   1.000  O
  O5       1.0000 0.29300  0.13470  0.14140  Biso   1.000  O
  O6       1.0000 0.70700  0.86530  0.85860  Biso   1.000  O
  O7       1.0000 0.41730  0.52650  0.29450  Biso   1.000  O
  O8       1.0000 0.58270  0.47350  0.70550  Biso   1.000  O
  N1       1.0000 0.71670  0.56480  0.45120  Biso   1.000  N
  N2       1.0000 0.28330  0.43520  0.54880  Biso   1.000  N
  N3       1.0000 0.69260  0.01000  0.07690  Biso   1.000  N
  N4       1.0000 0.30740  0.99000  0.92310  Biso   1.000  N
  N5       1.0000 0.87520  0.96490  0.18950  Biso   1.000  N
  N6       1.0000 0.12480  0.03510  0.81050  Biso   1.000  N
  N7       1.0000 0.91860  0.67310  0.44570  Biso   1.000  N
  N8       1.0000 0.08140  0.32690  0.55430  Biso   1.000  N
  C1       1.0000 0.35060  0.20310  0.07070  Biso   1.000  C
  C2       1.0000 0.64940  0.79690  0.92930  Biso   1.000  C
  C3       1.0000 0.75670  0.65770  0.49010  Biso   1.000  C
  C4       1.0000 0.24330  0.34230  0.50990  Biso   1.000  C
  H1       1.0000 0.68260  0.70600  0.54160  Biso   1.000  H
  H2       1.0000 0.31740  0.29400  0.45840  Biso   1.000  H
  C5       1.0000 0.49930  0.42890  0.29730  Biso   1.000  C
  C6       1.0000 0.50070  0.57110  0.70270  Biso   1.000  C
  C7       1.0000 0.85810  0.94540  0.39290  Biso   1.000  C
  C8       1.0000 0.14190  0.05460  0.60710  Biso   1.000  C
  C9       1.0000 0.00850  0.76570  0.47370  Biso   1.000  C
  C10      1.0000 0.99150  0.23430  0.52630  Biso   1.000  C
  H3       1.0000 0.10760  0.77260  0.41620  Biso   1.000  H
  H4       1.0000 0.89240  0.22740  0.58380  Biso   1.000  H
  H5       1.0000 0.04970  0.74610  0.54250  Biso   1.000  H
  H6       1.0000 0.95030  0.25390  0.45750  Biso   1.000  H
  C11      1.0000 0.88970  0.87870  0.48510  Biso   1.000  C
  C12      1.0000 0.11030  0.12130  0.51490  Biso   1.000  C
  C13      1.0000 0.74080  0.93560  0.15160  Biso   1.000  C
  C14      1.0000 0.25920  0.06440  0.84840  Biso   1.000  C
  H7       1.0000 0.68900  0.87110  0.17510  Biso   1.000  H
  H8       1.0000 0.31100  0.12890  0.82490  Biso   1.000  H
  C15      1.0000 0.80020  0.09100  0.06660  Biso   1.000  C
  C16      1.0000 0.19980  0.90900  0.93340  Biso   1.000  C
  H9       1.0000 0.79560  0.15480  0.01920  Biso   1.000  H
  H10      1.0000 0.20440  0.84520  0.98080  Biso   1.000  H
  C17      1.0000 0.91440  0.06420  0.13590  Biso   1.000  C
  C18      1.0000 0.08560  0.93580  0.86410  Biso   1.000  C
  H11      1.0000 0.00160  0.10500  0.14520  Biso   1.000  H
  H12      1.0000 0.99840  0.89500  0.85480  Biso   1.000  H
  C19      1.0000 0.86040  0.51890  0.37840  Biso   1.000  C
  C20      1.0000 0.13960  0.48110  0.62160  Biso   1.000  C
  H13      1.0000 0.86990  0.45290  0.33770  Biso   1.000  H
  H14      1.0000 0.13010  0.54710  0.66230  Biso   1.000  H
  C21      1.0000 0.74430  0.04770  0.40760  Biso   1.000  C
  C22      1.0000 0.25570  0.95230  0.59240  Biso   1.000  C
  H15      1.0000 0.72200  0.09270  0.34640  Biso   1.000  H
  H16      1.0000 0.27800  0.90730  0.65360  Biso   1.000  H
  C23      1.0000 0.98620  0.58460  0.37510  Biso   1.000  C
  C24      1.0000 0.01380  0.41540  0.62490  Biso   1.000  C
  H17      1.0000 0.09680  0.57200  0.33320  Biso   1.000  H
  H18      1.0000 0.90320  0.42800  0.66680  Biso   1.000  H
  C25      1.0000 0.95140  0.90540  0.27940  Biso   1.000  C
  C26      1.0000 0.04860  0.09460  0.72060  Biso   1.000  C
  H19      1.0000 0.07070  0.91750  0.27030  Biso   1.000  H
  H20      1.0000 0.92930  0.08250  0.72970  Biso   1.000  H
  H21      1.0000 0.95030  0.82370  0.27450  Biso   1.000  H
  H22      1.0000 0.04970  0.17630  0.72550  Biso   1.000  H
  C27      1.0000 0.29400  0.33260  0.08210  Biso   1.000  C
  C28      1.0000 0.70600  0.66740  0.91790  Biso   1.000  C
  C29      1.0000 0.80680  0.91520  0.58920  Biso   1.000  C
  C30      1.0000 0.19320  0.08480  0.41080  Biso   1.000  C
  H23      1.0000 0.82770  0.87050  0.65080  Biso   1.000  H
  H24      1.0000 0.17230  0.12950  0.34920  Biso   1.000  H
  C31      1.0000 0.69370  0.01660  0.60310  Biso   1.000  C
  C32      1.0000 0.30630  0.98340  0.39690  Biso   1.000  C
  H25      1.0000 0.63800  0.03960  0.67360  Biso   1.000  H
  H26      1.0000 0.36200  0.96040  0.32640  Biso   1.000  H
  C33      1.0000 0.66380  0.08360  0.51260  Biso   1.000  C
  C34      1.0000 0.33620  0.91640  0.48740  Biso   1.000  C
  H27      1.0000 0.58960  0.15290  0.52160  Biso   1.000  H
  H28      1.0000 0.41040  0.84710  0.47840  Biso   1.000  H
  C35      1.0000 0.53090  0.34750  0.20060  Biso   1.000  C
  C36      1.0000 0.46910  0.65250  0.79940  Biso   1.000  C
  H29      1.0000 0.65470  0.32800  0.17740  Biso   1.000  H
  H30      1.0000 0.34530  0.67200  0.82260  Biso   1.000  H
  H31      1.0000 0.48730  0.27720  0.22790  Biso   1.000  H
  H32      1.0000 0.51270  0.72280  0.77210  Biso   1.000  H
  C37      1.0000 0.45530  0.38690  0.10000  Biso   1.000  C
  C38      1.0000 0.54470  0.61310  0.90000  Biso   1.000  C
  H33      1.0000 0.54510  0.37090  0.03550  Biso   1.000  H
  H34      1.0000 0.45490  0.62910  0.96450  Biso   1.000  H
  H35      1.0000 0.42260  0.46960  0.10340  Biso   1.000  H
  H36      1.0000 0.57740  0.53040  0.89660  Biso   1.000  H
  C39      1.0000 0.24700  0.38390  0.97550  Biso   1.000  C
  C40      1.0000 0.75300  0.61610  0.02450  Biso   1.000  C
  H37      1.0000 0.34370  0.36690  0.91640  Biso   1.000  H
  H38      1.0000 0.65630  0.63310  0.08360  Biso   1.000  H
  H39      1.0000 0.21660  0.46570  0.98230  Biso   1.000  H
  H40      1.0000 0.78340  0.53430  0.01770  Biso   1.000  H
  H41      1.0000 0.15070  0.35200  0.95970  Biso   1.000  H
  H42      1.0000 0.84930  0.64800  0.04030  Biso   1.000  H
  C41      1.0000 0.15290  0.35940  0.17960  Biso   1.000  C
  C42      1.0000 0.84710  0.64060  0.82040  Biso   1.000  C
  H43      1.0000 0.05110  0.33170  0.16730  Biso   1.000  H
  H44      1.0000 0.94890  0.66830  0.83270  Biso   1.000  H
  H45      1.0000 0.12850  0.44100  0.18950  Biso   1.000  H
  H46      1.0000 0.87150  0.55900  0.81050  Biso   1.000  H
  H47      1.0000 0.18840  0.32270  0.24460  Biso   1.000  H
  H48      1.0000 0.81160  0.67730  0.75540  Biso   1.000  H
  O9       1.0000 0.32870  0.74510  0.20640  Biso   1.000  O
  O10      1.0000 0.67130  0.25490  0.79360  Biso   1.000  O
  H49      1.0000 0.41420  0.71860  0.23690  Biso   1.000  H
  H50      1.0000 0.58580  0.28140  0.76310  Biso   1.000  H
  H51      1.0000 0.36300  0.75360  0.13730  Biso   1.000  H
  H52      1.0000 0.63700  0.24640  0.86270  Biso   1.000  H
