data_image0
_cell_length_a       15.158
_cell_length_b       14.8108
_cell_length_c       7.4512
_cell_angle_alpha    90
_cell_angle_beta     111.892
_cell_angle_gamma    90

_symmetry_space_group_name_H-M    "P 1"
_symmetry_int_tables_number       1

loop_
  _symmetry_equiv_pos_as_xyz
  'x, y, z'

loop_
  _atom_site_label
  _atom_site_occupancy
  _atom_site_fract_x
  _atom_site_fract_y
  _atom_site_fract_z
  _atom_site_thermal_displace_type
  _atom_site_B_iso_or_equiv
  _atom_site_type_symbol
  Cu1      1.0000 0.25000  0.25000  0.00000  Biso   1.000  Cu
  Cu2      1.0000 0.75000  0.75000  0.00000  Biso   1.000  Cu
  Cu3      1.0000 0.75000  0.25000  0.50000  Biso   1.000  Cu
  Cu4      1.0000 0.25000  0.75000  0.50000  Biso   1.000  Cu
  Ni1      1.0000 0.50000  0.48517  0.25000  Biso   1.000  Ni
  Ni2      1.0000 0.00000  0.98517  0.25000  Biso   1.000  Ni
  Ni3      1.0000 0.50000  0.51483  0.75000  Biso   1.000  Ni
  Ni4      1.0000 0.00000  0.01483  0.75000  Biso   1.000  Ni
  O1       1.0000 0.19674  0.29463  0.25540  Biso   1.000  O
  O2       1.0000 0.69674  0.79463  0.25540  Biso   1.000  O
  O3       1.0000 0.80326  0.29463  0.24460  Biso   1.000  O
  O4       1.0000 0.30326  0.79463  0.24460  Biso   1.000  O
  O5       1.0000 0.80326  0.70537  0.74460  Biso   1.000  O
  O6       1.0000 0.30326  0.20537  0.74460  Biso   1.000  O
  O7       1.0000 0.19674  0.70537  0.75540  Biso   1.000  O
  O8       1.0000 0.69674  0.20537  0.75540  Biso   1.000  O
  N1       1.0000 0.33744  0.15805  0.19210  Biso   1.000  N
  N2       1.0000 0.83744  0.65805  0.19210  Biso   1.000  N
  N3       1.0000 0.66256  0.15805  0.30790  Biso   1.000  N
  N4       1.0000 0.16256  0.65805  0.30790  Biso   1.000  N
  N5       1.0000 0.66256  0.84195  0.80790  Biso   1.000  N
  N6       1.0000 0.16256  0.34195  0.80790  Biso   1.000  N
  N7       1.0000 0.33744  0.84195  0.69210  Biso   1.000  N
  N8       1.0000 0.83744  0.34195  0.69210  Biso   1.000  N
  N9       1.0000 0.35317  0.34047  0.08310  Biso   1.000  N
  N10      1.0000 0.85317  0.84047  0.08310  Biso   1.000  N
  N11      1.0000 0.64683  0.34047  0.41690  Biso   1.000  N
  N12      1.0000 0.14683  0.84047  0.41690  Biso   1.000  N
  N13      1.0000 0.64683  0.65953  0.91690  Biso   1.000  N
  N14      1.0000 0.14683  0.15953  0.91690  Biso   1.000  N
  N15      1.0000 0.35317  0.65953  0.58310  Biso   1.000  N
  N16      1.0000 0.85317  0.15953  0.58310  Biso   1.000  N
  N17      1.0000 0.34939  0.62688  0.07780  Biso   1.000  N
  N18      1.0000 0.84939  0.12688  0.07780  Biso   1.000  N
  N19      1.0000 0.65061  0.62688  0.42220  Biso   1.000  N
  N20      1.0000 0.15061  0.12688  0.42220  Biso   1.000  N
  N21      1.0000 0.65061  0.37312  0.92220  Biso   1.000  N
  N22      1.0000 0.15061  0.87312  0.92220  Biso   1.000  N
  N23      1.0000 0.34939  0.37312  0.57780  Biso   1.000  N
  N24      1.0000 0.84939  0.87312  0.57780  Biso   1.000  N
  C1       1.0000 0.32545  0.06920  0.16320  Biso   1.000  C
  C2       1.0000 0.82545  0.56920  0.16320  Biso   1.000  C
  C3       1.0000 0.67455  0.06920  0.33680  Biso   1.000  C
  C4       1.0000 0.17455  0.56920  0.33680  Biso   1.000  C
  C5       1.0000 0.67455  0.93080  0.83680  Biso   1.000  C
  C6       1.0000 0.17455  0.43080  0.83680  Biso   1.000  C
  C7       1.0000 0.32545  0.93080  0.66320  Biso   1.000  C
  C8       1.0000 0.82545  0.43080  0.66320  Biso   1.000  C
  C9       1.0000 0.38581  0.00581  0.28110  Biso   1.000  C
  C10      1.0000 0.88581  0.50581  0.28110  Biso   1.000  C
  C11      1.0000 0.61419  0.00581  0.21890  Biso   1.000  C
  C12      1.0000 0.11419  0.50581  0.21890  Biso   1.000  C
  C13      1.0000 0.61419  0.99419  0.71890  Biso   1.000  C
  C14      1.0000 0.11419  0.49419  0.71890  Biso   1.000  C
  C15      1.0000 0.38581  0.99419  0.78110  Biso   1.000  C
  C16      1.0000 0.88581  0.49419  0.78110  Biso   1.000  C
  C17      1.0000 0.46528  0.03304  0.43760  Biso   1.000  C
  C18      1.0000 0.96528  0.53304  0.43760  Biso   1.000  C
  C19      1.0000 0.53472  0.03304  0.06240  Biso   1.000  C
  C20      1.0000 0.03472  0.53304  0.06240  Biso   1.000  C
  C21      1.0000 0.53472  0.96696  0.56240  Biso   1.000  C
  C22      1.0000 0.03472  0.46696  0.56240  Biso   1.000  C
  C23      1.0000 0.46528  0.96696  0.93760  Biso   1.000  C
  C24      1.0000 0.96528  0.46696  0.93760  Biso   1.000  C
  C25      1.0000 0.47620  0.12552  0.47180  Biso   1.000  C
  C26      1.0000 0.97620  0.62552  0.47180  Biso   1.000  C
  C27      1.0000 0.52380  0.12552  0.02820  Biso   1.000  C
  C28      1.0000 0.02380  0.62552  0.02820  Biso   1.000  C
  C29      1.0000 0.52380  0.87448  0.52820  Biso   1.000  C
  C30      1.0000 0.02380  0.37448  0.52820  Biso   1.000  C
  C31      1.0000 0.47620  0.87448  0.97180  Biso   1.000  C
  C32      1.0000 0.97620  0.37448  0.97180  Biso   1.000  C
  C33      1.0000 0.41181  0.18454  0.34920  Biso   1.000  C
  C34      1.0000 0.91181  0.68454  0.34920  Biso   1.000  C
  C35      1.0000 0.58819  0.18454  0.15080  Biso   1.000  C
  C36      1.0000 0.08819  0.68454  0.15080  Biso   1.000  C
  C37      1.0000 0.58819  0.81546  0.65080  Biso   1.000  C
  C38      1.0000 0.08819  0.31546  0.65080  Biso   1.000  C
  C39      1.0000 0.41181  0.81546  0.84920  Biso   1.000  C
  C40      1.0000 0.91181  0.31546  0.84920  Biso   1.000  C
  C41      1.0000 0.40931  0.39594  0.14390  Biso   1.000  C
  C42      1.0000 0.90931  0.89594  0.14390  Biso   1.000  C
  C43      1.0000 0.59069  0.39594  0.35610  Biso   1.000  C
  C44      1.0000 0.09069  0.89594  0.35610  Biso   1.000  C
  C45      1.0000 0.59069  0.60406  0.85610  Biso   1.000  C
  C46      1.0000 0.09069  0.10406  0.85610  Biso   1.000  C
  C47      1.0000 0.40931  0.60406  0.64390  Biso   1.000  C
  C48      1.0000 0.90931  0.10406  0.64390  Biso   1.000  C
  C49      1.0000 0.40768  0.57362  0.14330  Biso   1.000  C
  C50      1.0000 0.90768  0.07362  0.14330  Biso   1.000  C
  C51      1.0000 0.59232  0.57362  0.35670  Biso   1.000  C
  C52      1.0000 0.09232  0.07362  0.35670  Biso   1.000  C
  C53      1.0000 0.59232  0.42638  0.85670  Biso   1.000  C
  C54      1.0000 0.09232  0.92638  0.85670  Biso   1.000  C
  C55      1.0000 0.40768  0.42638  0.64330  Biso   1.000  C
  C56      1.0000 0.90768  0.92638  0.64330  Biso   1.000  C
  H1       1.0000 0.24050  0.31730  0.35300  Biso   1.000  H
  H2       1.0000 0.74050  0.81730  0.35300  Biso   1.000  H
  H3       1.0000 0.75950  0.31730  0.14700  Biso   1.000  H
  H4       1.0000 0.25950  0.81730  0.14700  Biso   1.000  H
  H5       1.0000 0.75950  0.68270  0.64700  Biso   1.000  H
  H6       1.0000 0.25950  0.18270  0.64700  Biso   1.000  H
  H7       1.0000 0.24050  0.68270  0.85300  Biso   1.000  H
  H8       1.0000 0.74050  0.18270  0.85300  Biso   1.000  H
  H9       1.0000 0.17800  0.24580  0.28700  Biso   1.000  H
  H10      1.0000 0.67800  0.74580  0.28700  Biso   1.000  H
  H11      1.0000 0.82200  0.24580  0.21300  Biso   1.000  H
  H12      1.0000 0.32200  0.74580  0.21300  Biso   1.000  H
  H13      1.0000 0.82200  0.75420  0.71300  Biso   1.000  H
  H14      1.0000 0.32200  0.25420  0.71300  Biso   1.000  H
  H15      1.0000 0.17800  0.75420  0.78700  Biso   1.000  H
  H16      1.0000 0.67800  0.25420  0.78700  Biso   1.000  H
  H17      1.0000 0.27240  0.04870  0.05550  Biso   1.000  H
  H18      1.0000 0.77240  0.54870  0.05550  Biso   1.000  H
  H19      1.0000 0.72760  0.04870  0.44450  Biso   1.000  H
  H20      1.0000 0.22760  0.54870  0.44450  Biso   1.000  H
  H21      1.0000 0.72760  0.95130  0.94450  Biso   1.000  H
  H22      1.0000 0.22760  0.45130  0.94450  Biso   1.000  H
  H23      1.0000 0.27240  0.95130  0.55550  Biso   1.000  H
  H24      1.0000 0.77240  0.45130  0.55550  Biso   1.000  H
  H25      1.0000 0.37310  0.94330  0.25530  Biso   1.000  H
  H26      1.0000 0.87310  0.44330  0.25530  Biso   1.000  H
  H27      1.0000 0.62690  0.94330  0.24470  Biso   1.000  H
  H28      1.0000 0.12690  0.44330  0.24470  Biso   1.000  H
  H29      1.0000 0.62690  0.05670  0.74470  Biso   1.000  H
  H30      1.0000 0.12690  0.55670  0.74470  Biso   1.000  H
  H31      1.0000 0.37310  0.05670  0.75530  Biso   1.000  H
  H32      1.0000 0.87310  0.55670  0.75530  Biso   1.000  H
  H33      1.0000 0.52810  0.14780  0.57980  Biso   1.000  H
  H34      1.0000 0.02810  0.64780  0.57980  Biso   1.000  H
  H35      1.0000 0.47190  0.14780  0.92020  Biso   1.000  H
  H36      1.0000 0.97190  0.64780  0.92020  Biso   1.000  H
  H37      1.0000 0.47190  0.85220  0.42020  Biso   1.000  H
  H38      1.0000 0.97190  0.35220  0.42020  Biso   1.000  H
  H39      1.0000 0.52810  0.85220  0.07980  Biso   1.000  H
  H40      1.0000 0.02810  0.35220  0.07980  Biso   1.000  H
  H41      1.0000 0.42020  0.24730  0.37670  Biso   1.000  H
  H42      1.0000 0.92020  0.74730  0.37670  Biso   1.000  H
  H43      1.0000 0.57980  0.24730  0.12330  Biso   1.000  H
  H44      1.0000 0.07980  0.74730  0.12330  Biso   1.000  H
  H45      1.0000 0.57980  0.75270  0.62330  Biso   1.000  H
  H46      1.0000 0.07980  0.25270  0.62330  Biso   1.000  H
  H47      1.0000 0.42020  0.75270  0.87670  Biso   1.000  H
  H48      1.0000 0.92020  0.25270  0.87670  Biso   1.000  H
