data_image0
_cell_length_a       18.317
_cell_length_b       17.092
_cell_length_c       20.587
_cell_angle_alpha    90
_cell_angle_beta     90
_cell_angle_gamma    90

_symmetry_space_group_name_H-M    "P 1"
_symmetry_int_tables_number       1

loop_
  _symmetry_equiv_pos_as_xyz
  'x, y, z'

loop_
  _atom_site_label
  _atom_site_occupancy
  _atom_site_fract_x
  _atom_site_fract_y
  _atom_site_fract_z
  _atom_site_thermal_displace_type
  _atom_site_B_iso_or_equiv
  _atom_site_type_symbol
  Mo1      1.0000 0.02907  0.69223  0.05679  Biso   1.000  Mo
  Mo2      1.0000 0.47093  0.30777  0.55679  Biso   1.000  Mo
  Mo3      1.0000 0.97093  0.19223  0.44321  Biso   1.000  Mo
  Mo4      1.0000 0.52907  0.80777  0.94321  Biso   1.000  Mo
  Mo5      1.0000 0.97093  0.30777  0.94321  Biso   1.000  Mo
  Mo6      1.0000 0.52907  0.69223  0.44321  Biso   1.000  Mo
  Mo7      1.0000 0.02907  0.80777  0.55679  Biso   1.000  Mo
  Mo8      1.0000 0.47093  0.19223  0.05679  Biso   1.000  Mo
  Mo9      1.0000 0.03707  0.53402  0.16799  Biso   1.000  Mo
  Mo10     1.0000 0.46293  0.46598  0.66799  Biso   1.000  Mo
  Mo11     1.0000 0.96293  0.03402  0.33201  Biso   1.000  Mo
  Mo12     1.0000 0.53707  0.96598  0.83201  Biso   1.000  Mo
  Mo13     1.0000 0.96293  0.46598  0.83201  Biso   1.000  Mo
  Mo14     1.0000 0.53707  0.53402  0.33201  Biso   1.000  Mo
  Mo15     1.0000 0.03707  0.96598  0.66799  Biso   1.000  Mo
  Mo16     1.0000 0.46293  0.03402  0.16799  Biso   1.000  Mo
  Mo17     1.0000 0.86725  0.58950  0.10004  Biso   1.000  Mo
  Mo18     1.0000 0.63275  0.41050  0.60004  Biso   1.000  Mo
  Mo19     1.0000 0.13275  0.08950  0.39996  Biso   1.000  Mo
  Mo20     1.0000 0.36725  0.91050  0.89996  Biso   1.000  Mo
  Mo21     1.0000 0.13275  0.41050  0.89996  Biso   1.000  Mo
  Mo22     1.0000 0.36725  0.58950  0.39996  Biso   1.000  Mo
  Mo23     1.0000 0.86725  0.91050  0.60004  Biso   1.000  Mo
  Mo24     1.0000 0.63275  0.08950  0.10004  Biso   1.000  Mo
  Mo25     1.0000 0.98092  0.66021  0.88954  Biso   1.000  Mo
  Mo26     1.0000 0.51908  0.33979  0.38954  Biso   1.000  Mo
  Mo27     1.0000 0.01908  0.16021  0.61046  Biso   1.000  Mo
  Mo28     1.0000 0.48092  0.83979  0.11046  Biso   1.000  Mo
  Mo29     1.0000 0.01908  0.33979  0.11046  Biso   1.000  Mo
  Mo30     1.0000 0.48092  0.66021  0.61046  Biso   1.000  Mo
  Mo31     1.0000 0.98092  0.83979  0.38954  Biso   1.000  Mo
  Mo32     1.0000 0.51908  0.16021  0.88954  Biso   1.000  Mo
  Mo33     1.0000 0.17528  0.45713  0.06538  Biso   1.000  Mo
  Mo34     1.0000 0.32472  0.54287  0.56538  Biso   1.000  Mo
  Mo35     1.0000 0.82472  0.95713  0.43462  Biso   1.000  Mo
  Mo36     1.0000 0.67528  0.04287  0.93462  Biso   1.000  Mo
  Mo37     1.0000 0.82472  0.54287  0.93462  Biso   1.000  Mo
  Mo38     1.0000 0.67528  0.45713  0.43462  Biso   1.000  Mo
  Mo39     1.0000 0.17528  0.04287  0.56538  Biso   1.000  Mo
  Mo40     1.0000 0.32472  0.95713  0.06538  Biso   1.000  Mo
  Mo41     1.0000 0.15677  0.60799  0.94690  Biso   1.000  Mo
  Mo42     1.0000 0.34323  0.39201  0.44690  Biso   1.000  Mo
  Mo43     1.0000 0.84323  0.10799  0.55310  Biso   1.000  Mo
  Mo44     1.0000 0.65677  0.89201  0.05310  Biso   1.000  Mo
  Mo45     1.0000 0.84323  0.39201  0.05310  Biso   1.000  Mo
  Mo46     1.0000 0.65677  0.60799  0.55310  Biso   1.000  Mo
  Mo47     1.0000 0.15677  0.89201  0.44690  Biso   1.000  Mo
  Mo48     1.0000 0.34323  0.10799  0.94690  Biso   1.000  Mo
  Cu1      1.0000 0.70645  0.55887  0.21162  Biso   1.000  Cu
  Cu2      1.0000 0.79355  0.44113  0.71162  Biso   1.000  Cu
  Cu3      1.0000 0.29355  0.05887  0.28838  Biso   1.000  Cu
  Cu4      1.0000 0.20645  0.94113  0.78838  Biso   1.000  Cu
  Cu5      1.0000 0.29355  0.44113  0.78838  Biso   1.000  Cu
  Cu6      1.0000 0.20645  0.55887  0.28838  Biso   1.000  Cu
  Cu7      1.0000 0.70645  0.94113  0.71162  Biso   1.000  Cu
  Cu8      1.0000 0.79355  0.05887  0.21162  Biso   1.000  Cu
  P1       1.0000 0.00000  0.50000  0.00000  Biso   1.000  P
  P2       1.0000 0.50000  0.50000  0.50000  Biso   1.000  P
  P3       1.0000 0.00000  0.00000  0.50000  Biso   1.000  P
  P4       1.0000 0.50000  0.00000  0.00000  Biso   1.000  P
  C1       1.0000 0.63820  0.43440  0.14790  Biso   1.000  C
  C2       1.0000 0.86180  0.56560  0.64790  Biso   1.000  C
  C3       1.0000 0.36180  0.93440  0.35210  Biso   1.000  C
  C4       1.0000 0.13820  0.06560  0.85210  Biso   1.000  C
  C5       1.0000 0.36180  0.56560  0.85210  Biso   1.000  C
  C6       1.0000 0.13820  0.43440  0.35210  Biso   1.000  C
  C7       1.0000 0.63820  0.06560  0.64790  Biso   1.000  C
  C8       1.0000 0.86180  0.93440  0.14790  Biso   1.000  C
  C9       1.0000 0.63560  0.71170  0.24320  Biso   1.000  C
  C10      1.0000 0.86440  0.28830  0.74320  Biso   1.000  C
  C11      1.0000 0.36440  0.21170  0.25680  Biso   1.000  C
  C12      1.0000 0.13560  0.78830  0.75680  Biso   1.000  C
  C13      1.0000 0.36440  0.28830  0.75680  Biso   1.000  C
  C14      1.0000 0.13560  0.71170  0.25680  Biso   1.000  C
  C15      1.0000 0.63560  0.78830  0.74320  Biso   1.000  C
  C16      1.0000 0.86440  0.21170  0.24320  Biso   1.000  C
  H1       1.0000 0.60490  0.70210  0.20810  Biso   1.000  H
  H2       1.0000 0.89510  0.29790  0.70810  Biso   1.000  H
  H3       1.0000 0.39510  0.20210  0.29190  Biso   1.000  H
  H4       1.0000 0.10490  0.79790  0.79190  Biso   1.000  H
  H5       1.0000 0.39510  0.29790  0.79190  Biso   1.000  H
  H6       1.0000 0.10490  0.70210  0.29190  Biso   1.000  H
  H7       1.0000 0.60490  0.79790  0.70810  Biso   1.000  H
  H8       1.0000 0.89510  0.20210  0.20810  Biso   1.000  H
  C17      1.0000 0.68660  0.39090  0.24500  Biso   1.000  C
  C18      1.0000 0.81340  0.60910  0.74500  Biso   1.000  C
  C19      1.0000 0.31340  0.89090  0.25500  Biso   1.000  C
  C20      1.0000 0.18660  0.10910  0.75500  Biso   1.000  C
  C21      1.0000 0.31340  0.60910  0.75500  Biso   1.000  C
  C22      1.0000 0.18660  0.39090  0.25500  Biso   1.000  C
  C23      1.0000 0.68660  0.10910  0.74500  Biso   1.000  C
  C24      1.0000 0.81340  0.89090  0.24500  Biso   1.000  C
  H9       1.0000 0.71560  0.40000  0.28130  Biso   1.000  H
  H10      1.0000 0.78440  0.60000  0.78130  Biso   1.000  H
  H11      1.0000 0.28440  0.90000  0.21870  Biso   1.000  H
  H12      1.0000 0.21560  0.10000  0.71870  Biso   1.000  H
  H13      1.0000 0.28440  0.60000  0.71870  Biso   1.000  H
  H14      1.0000 0.21560  0.40000  0.21870  Biso   1.000  H
  H15      1.0000 0.71560  0.10000  0.78130  Biso   1.000  H
  H16      1.0000 0.78440  0.90000  0.28130  Biso   1.000  H
  C25      1.0000 0.79040  0.61330  0.31550  Biso   1.000  C
  C26      1.0000 0.70960  0.38670  0.81550  Biso   1.000  C
  C27      1.0000 0.20960  0.11330  0.18450  Biso   1.000  C
  C28      1.0000 0.29040  0.88670  0.68450  Biso   1.000  C
  C29      1.0000 0.20960  0.38670  0.68450  Biso   1.000  C
  C30      1.0000 0.29040  0.61330  0.18450  Biso   1.000  C
  C31      1.0000 0.79040  0.88670  0.81550  Biso   1.000  C
  C32      1.0000 0.70960  0.11330  0.31550  Biso   1.000  C
  N1       1.0000 0.65710  0.56910  0.12720  Biso   1.000  N
  N2       1.0000 0.84290  0.43090  0.62720  Biso   1.000  N
  N3       1.0000 0.34290  0.06910  0.37280  Biso   1.000  N
  N4       1.0000 0.15710  0.93090  0.87280  Biso   1.000  N
  N5       1.0000 0.34290  0.43090  0.87280  Biso   1.000  N
  N6       1.0000 0.15710  0.56910  0.37280  Biso   1.000  N
  N7       1.0000 0.65710  0.93090  0.62720  Biso   1.000  N
  N8       1.0000 0.84290  0.06910  0.12720  Biso   1.000  N
  N9       1.0000 0.78740  0.55140  0.27430  Biso   1.000  N
  N10      1.0000 0.71260  0.44860  0.77430  Biso   1.000  N
  N11      1.0000 0.21260  0.05140  0.22570  Biso   1.000  N
  N12      1.0000 0.28740  0.94860  0.72570  Biso   1.000  N
  N13      1.0000 0.21260  0.44860  0.72570  Biso   1.000  N
  N14      1.0000 0.28740  0.55140  0.22570  Biso   1.000  N
  N15      1.0000 0.78740  0.94860  0.77430  Biso   1.000  N
  N16      1.0000 0.71260  0.05140  0.27430  Biso   1.000  N
  N17      1.0000 0.68060  0.44770  0.19990  Biso   1.000  N
  N18      1.0000 0.81940  0.55230  0.69990  Biso   1.000  N
  N19      1.0000 0.31940  0.94770  0.30010  Biso   1.000  N
  N20      1.0000 0.18060  0.05230  0.80010  Biso   1.000  N
  N21      1.0000 0.31940  0.55230  0.80010  Biso   1.000  N
  N22      1.0000 0.18060  0.44770  0.30010  Biso   1.000  N
  N23      1.0000 0.68060  0.05230  0.69990  Biso   1.000  N
  N24      1.0000 0.81940  0.94770  0.19990  Biso   1.000  N
  N25      1.0000 0.68860  0.66060  0.25550  Biso   1.000  N
  N26      1.0000 0.81140  0.33940  0.75550  Biso   1.000  N
  N27      1.0000 0.31140  0.16060  0.24450  Biso   1.000  N
  N28      1.0000 0.18860  0.83940  0.74450  Biso   1.000  N
  N29      1.0000 0.31140  0.33940  0.74450  Biso   1.000  N
  N30      1.0000 0.18860  0.66060  0.24450  Biso   1.000  N
  N31      1.0000 0.68860  0.83940  0.75550  Biso   1.000  N
  N32      1.0000 0.81140  0.16060  0.25550  Biso   1.000  N
  C33      1.0000 0.63270  0.50160  0.10340  Biso   1.000  C
  C34      1.0000 0.86730  0.49840  0.60340  Biso   1.000  C
  C35      1.0000 0.36730  0.00160  0.39660  Biso   1.000  C
  C36      1.0000 0.13270  0.99840  0.89660  Biso   1.000  C
  C37      1.0000 0.36730  0.49840  0.89660  Biso   1.000  C
  C38      1.0000 0.13270  0.50160  0.39660  Biso   1.000  C
  C39      1.0000 0.63270  0.99840  0.60340  Biso   1.000  C
  C40      1.0000 0.86730  0.00160  0.10340  Biso   1.000  C
  C41      1.0000 0.65200  0.32080  0.23960  Biso   1.000  C
  C42      1.0000 0.84800  0.67920  0.73960  Biso   1.000  C
  C43      1.0000 0.34800  0.82080  0.26040  Biso   1.000  C
  C44      1.0000 0.15200  0.17920  0.76040  Biso   1.000  C
  C45      1.0000 0.34800  0.67920  0.76040  Biso   1.000  C
  C46      1.0000 0.15200  0.32080  0.26040  Biso   1.000  C
  C47      1.0000 0.65200  0.17920  0.73960  Biso   1.000  C
  C48      1.0000 0.84800  0.82080  0.23960  Biso   1.000  C
  H17      1.0000 0.65770  0.28280  0.27150  Biso   1.000  H
  H18      1.0000 0.84230  0.71720  0.77150  Biso   1.000  H
  H19      1.0000 0.34230  0.78280  0.22850  Biso   1.000  H
  H20      1.0000 0.15770  0.21720  0.72850  Biso   1.000  H
  H21      1.0000 0.34230  0.71720  0.72850  Biso   1.000  H
  H22      1.0000 0.15770  0.28280  0.22850  Biso   1.000  H
  H23      1.0000 0.65770  0.21720  0.77150  Biso   1.000  H
  H24      1.0000 0.84230  0.78280  0.27150  Biso   1.000  H
  C49      1.0000 0.84140  0.49970  0.27290  Biso   1.000  C
  C50      1.0000 0.65860  0.50030  0.77290  Biso   1.000  C
  C51      1.0000 0.15860  0.99970  0.22710  Biso   1.000  C
  C52      1.0000 0.34140  0.00030  0.72710  Biso   1.000  C
  C53      1.0000 0.15860  0.50030  0.72710  Biso   1.000  C
  C54      1.0000 0.34140  0.49970  0.22710  Biso   1.000  C
  C55      1.0000 0.84140  0.00030  0.77290  Biso   1.000  C
  C56      1.0000 0.65860  0.99970  0.27290  Biso   1.000  C
  H25      1.0000 0.83850  0.45790  0.24410  Biso   1.000  H
  H26      1.0000 0.66150  0.54210  0.74410  Biso   1.000  H
  H27      1.0000 0.16150  0.95790  0.25590  Biso   1.000  H
  H28      1.0000 0.33850  0.04210  0.75590  Biso   1.000  H
  H29      1.0000 0.16150  0.54210  0.75590  Biso   1.000  H
  H30      1.0000 0.33850  0.45790  0.25590  Biso   1.000  H
  H31      1.0000 0.83850  0.04210  0.74410  Biso   1.000  H
  H32      1.0000 0.66150  0.95790  0.24410  Biso   1.000  H
  C57      1.0000 0.65630  0.63420  0.09050  Biso   1.000  C
  C58      1.0000 0.84370  0.36580  0.59050  Biso   1.000  C
  C59      1.0000 0.34370  0.13420  0.40950  Biso   1.000  C
  C60      1.0000 0.15630  0.86580  0.90950  Biso   1.000  C
  C61      1.0000 0.34370  0.36580  0.90950  Biso   1.000  C
  C62      1.0000 0.15630  0.63420  0.40950  Biso   1.000  C
  C63      1.0000 0.65630  0.86580  0.59050  Biso   1.000  C
  C64      1.0000 0.84370  0.13420  0.09050  Biso   1.000  C
  H33      1.0000 0.67290  0.68120  0.10780  Biso   1.000  H
  H34      1.0000 0.82710  0.31880  0.60780  Biso   1.000  H
  H35      1.0000 0.32710  0.18120  0.39220  Biso   1.000  H
  H36      1.0000 0.17290  0.81880  0.89220  Biso   1.000  H
  H37      1.0000 0.32710  0.31880  0.89220  Biso   1.000  H
  H38      1.0000 0.17290  0.68120  0.39220  Biso   1.000  H
  H39      1.0000 0.67290  0.81880  0.60780  Biso   1.000  H
  H40      1.0000 0.82710  0.18120  0.10780  Biso   1.000  H
  C65      1.0000 0.73200  0.67150  0.30760  Biso   1.000  C
  C66      1.0000 0.76800  0.32850  0.80760  Biso   1.000  C
  C67      1.0000 0.26800  0.17150  0.19240  Biso   1.000  C
  C68      1.0000 0.23200  0.82850  0.69240  Biso   1.000  C
  C69      1.0000 0.26800  0.32850  0.69240  Biso   1.000  C
  C70      1.0000 0.23200  0.67150  0.19240  Biso   1.000  C
  C71      1.0000 0.73200  0.82850  0.80760  Biso   1.000  C
  C72      1.0000 0.76800  0.17150  0.30760  Biso   1.000  C
  C73      1.0000 0.60170  0.36430  0.13940  Biso   1.000  C
  C74      1.0000 0.89830  0.63570  0.63940  Biso   1.000  C
  C75      1.0000 0.39830  0.86430  0.36060  Biso   1.000  C
  C76      1.0000 0.10170  0.13570  0.86060  Biso   1.000  C
  C77      1.0000 0.39830  0.63570  0.86060  Biso   1.000  C
  C78      1.0000 0.10170  0.36430  0.36060  Biso   1.000  C
  C79      1.0000 0.60170  0.13570  0.63940  Biso   1.000  C
  C80      1.0000 0.89830  0.86430  0.13940  Biso   1.000  C
  H41      1.0000 0.57290  0.35590  0.10280  Biso   1.000  H
  H42      1.0000 0.92710  0.64410  0.60280  Biso   1.000  H
  H43      1.0000 0.42710  0.85590  0.39720  Biso   1.000  H
  H44      1.0000 0.07290  0.14410  0.89720  Biso   1.000  H
  H45      1.0000 0.42710  0.64410  0.89720  Biso   1.000  H
  H46      1.0000 0.07290  0.35590  0.39720  Biso   1.000  H
  H47      1.0000 0.57290  0.14410  0.60280  Biso   1.000  H
  H48      1.0000 0.92710  0.85590  0.10280  Biso   1.000  H
  C81      1.0000 0.60600  0.49740  0.04030  Biso   1.000  C
  C82      1.0000 0.89400  0.50260  0.54030  Biso   1.000  C
  C83      1.0000 0.39400  0.99740  0.45970  Biso   1.000  C
  C84      1.0000 0.10600  0.00260  0.95970  Biso   1.000  C
  C85      1.0000 0.39400  0.50260  0.95970  Biso   1.000  C
  C86      1.0000 0.10600  0.49740  0.45970  Biso   1.000  C
  C87      1.0000 0.60600  0.00260  0.54030  Biso   1.000  C
  C88      1.0000 0.89400  0.99740  0.04030  Biso   1.000  C
  H49      1.0000 0.58860  0.45030  0.02370  Biso   1.000  H
  H50      1.0000 0.91140  0.54970  0.52370  Biso   1.000  H
  H51      1.0000 0.41140  0.95030  0.47630  Biso   1.000  H
  H52      1.0000 0.08860  0.04970  0.97630  Biso   1.000  H
  H53      1.0000 0.41140  0.54970  0.97630  Biso   1.000  H
  H54      1.0000 0.08860  0.45030  0.47630  Biso   1.000  H
  H55      1.0000 0.58860  0.04970  0.52370  Biso   1.000  H
  H56      1.0000 0.91140  0.95030  0.02370  Biso   1.000  H
  C89      1.0000 0.62370  0.77790  0.27960  Biso   1.000  C
  C90      1.0000 0.87630  0.22210  0.77960  Biso   1.000  C
  C91      1.0000 0.37630  0.27790  0.22040  Biso   1.000  C
  C92      1.0000 0.12370  0.72210  0.72040  Biso   1.000  C
  C93      1.0000 0.37630  0.22210  0.72040  Biso   1.000  C
  C94      1.0000 0.12370  0.77790  0.22040  Biso   1.000  C
  C95      1.0000 0.62370  0.72210  0.77960  Biso   1.000  C
  C96      1.0000 0.87630  0.27790  0.27960  Biso   1.000  C
  H57      1.0000 0.58740  0.81360  0.26870  Biso   1.000  H
  H58      1.0000 0.91260  0.18640  0.76870  Biso   1.000  H
  H59      1.0000 0.41260  0.31360  0.23130  Biso   1.000  H
  H60      1.0000 0.08740  0.68640  0.73130  Biso   1.000  H
  H61      1.0000 0.41260  0.18640  0.73130  Biso   1.000  H
  H62      1.0000 0.08740  0.81360  0.23130  Biso   1.000  H
  H63      1.0000 0.58740  0.68640  0.76870  Biso   1.000  H
  H64      1.0000 0.91260  0.31360  0.26870  Biso   1.000  H
  C97      1.0000 0.66760  0.78900  0.33300  Biso   1.000  C
  C98      1.0000 0.83240  0.21100  0.83300  Biso   1.000  C
  C99      1.0000 0.33240  0.28900  0.16700  Biso   1.000  C
  C100     1.0000 0.16760  0.71100  0.66700  Biso   1.000  C
  C101     1.0000 0.33240  0.21100  0.66700  Biso   1.000  C
  C102     1.0000 0.16760  0.78900  0.16700  Biso   1.000  C
  C103     1.0000 0.66760  0.71100  0.83300  Biso   1.000  C
  C104     1.0000 0.83240  0.28900  0.33300  Biso   1.000  C
  H65      1.0000 0.66090  0.83280  0.35900  Biso   1.000  H
  H66      1.0000 0.83910  0.16720  0.85900  Biso   1.000  H
  H67      1.0000 0.33910  0.33280  0.14100  Biso   1.000  H
  H68      1.0000 0.16090  0.66720  0.64100  Biso   1.000  H
  H69      1.0000 0.33910  0.16720  0.64100  Biso   1.000  H
  H70      1.0000 0.16090  0.83280  0.14100  Biso   1.000  H
  H71      1.0000 0.66090  0.66720  0.85900  Biso   1.000  H
  H72      1.0000 0.83910  0.33280  0.35900  Biso   1.000  H
  C105     1.0000 0.90160  0.50610  0.31270  Biso   1.000  C
  C106     1.0000 0.59840  0.49390  0.81270  Biso   1.000  C
  C107     1.0000 0.09840  0.00610  0.18730  Biso   1.000  C
  C108     1.0000 0.40160  0.99390  0.68730  Biso   1.000  C
  C109     1.0000 0.09840  0.49390  0.68730  Biso   1.000  C
  C110     1.0000 0.40160  0.50610  0.18730  Biso   1.000  C
  C111     1.0000 0.90160  0.99390  0.81270  Biso   1.000  C
  C112     1.0000 0.59840  0.00610  0.31270  Biso   1.000  C
  H73      1.0000 0.93860  0.46880  0.31110  Biso   1.000  H
  H74      1.0000 0.56140  0.53120  0.81110  Biso   1.000  H
  H75      1.0000 0.06140  0.96880  0.18890  Biso   1.000  H
  H76      1.0000 0.43860  0.03120  0.68890  Biso   1.000  H
  H77      1.0000 0.06140  0.53120  0.68890  Biso   1.000  H
  H78      1.0000 0.43860  0.46880  0.18890  Biso   1.000  H
  H79      1.0000 0.93860  0.03120  0.81110  Biso   1.000  H
  H80      1.0000 0.56140  0.96880  0.31110  Biso   1.000  H
  C113     1.0000 0.63100  0.63200  0.02710  Biso   1.000  C
  C114     1.0000 0.86900  0.36800  0.52710  Biso   1.000  C
  C115     1.0000 0.36900  0.13200  0.47290  Biso   1.000  C
  C116     1.0000 0.13100  0.86800  0.97290  Biso   1.000  C
  C117     1.0000 0.36900  0.36800  0.97290  Biso   1.000  C
  C118     1.0000 0.13100  0.63200  0.47290  Biso   1.000  C
  C119     1.0000 0.63100  0.86800  0.52710  Biso   1.000  C
  C120     1.0000 0.86900  0.13200  0.02710  Biso   1.000  C
  H81      1.0000 0.63130  0.67670  0.00140  Biso   1.000  H
  H82      1.0000 0.86870  0.32330  0.50140  Biso   1.000  H
  H83      1.0000 0.36870  0.17670  0.49860  Biso   1.000  H
  H84      1.0000 0.13130  0.82330  0.99860  Biso   1.000  H
  H85      1.0000 0.36870  0.32330  0.99860  Biso   1.000  H
  H86      1.0000 0.13130  0.67670  0.49860  Biso   1.000  H
  H87      1.0000 0.63130  0.82330  0.50140  Biso   1.000  H
  H88      1.0000 0.86870  0.17670  0.00140  Biso   1.000  H
  C121     1.0000 0.85060  0.62160  0.35600  Biso   1.000  C
  C122     1.0000 0.64940  0.37840  0.85600  Biso   1.000  C
  C123     1.0000 0.14940  0.12160  0.14400  Biso   1.000  C
  C124     1.0000 0.35060  0.87840  0.64400  Biso   1.000  C
  C125     1.0000 0.14940  0.37840  0.64400  Biso   1.000  C
  C126     1.0000 0.35060  0.62160  0.14400  Biso   1.000  C
  C127     1.0000 0.85060  0.87840  0.85600  Biso   1.000  C
  C128     1.0000 0.64940  0.12160  0.35600  Biso   1.000  C
  H89      1.0000 0.85340  0.66380  0.38440  Biso   1.000  H
  H90      1.0000 0.64660  0.33620  0.88440  Biso   1.000  H
  H91      1.0000 0.14660  0.16380  0.11560  Biso   1.000  H
  H92      1.0000 0.35340  0.83620  0.61560  Biso   1.000  H
  H93      1.0000 0.14660  0.33620  0.61560  Biso   1.000  H
  H94      1.0000 0.35340  0.66380  0.11560  Biso   1.000  H
  H95      1.0000 0.85340  0.83620  0.88440  Biso   1.000  H
  H96      1.0000 0.64660  0.16380  0.38440  Biso   1.000  H
  C129     1.0000 0.72070  0.73690  0.34800  Biso   1.000  C
  C130     1.0000 0.77930  0.26310  0.84800  Biso   1.000  C
  C131     1.0000 0.27930  0.23690  0.15200  Biso   1.000  C
  C132     1.0000 0.22070  0.76310  0.65200  Biso   1.000  C
  C133     1.0000 0.27930  0.26310  0.65200  Biso   1.000  C
  C134     1.0000 0.22070  0.73690  0.15200  Biso   1.000  C
  C135     1.0000 0.72070  0.76310  0.84800  Biso   1.000  C
  C136     1.0000 0.77930  0.23690  0.34800  Biso   1.000  C
  H97      1.0000 0.74950  0.74420  0.38480  Biso   1.000  H
  H98      1.0000 0.75050  0.25580  0.88480  Biso   1.000  H
  H99      1.0000 0.25050  0.24420  0.11520  Biso   1.000  H
  H100     1.0000 0.24950  0.75580  0.61520  Biso   1.000  H
  H101     1.0000 0.25050  0.25580  0.61520  Biso   1.000  H
  H102     1.0000 0.24950  0.74420  0.11520  Biso   1.000  H
  H103     1.0000 0.74950  0.75580  0.88480  Biso   1.000  H
  H104     1.0000 0.75050  0.24420  0.38480  Biso   1.000  H
  C137     1.0000 0.60870  0.30700  0.18640  Biso   1.000  C
  C138     1.0000 0.89130  0.69300  0.68640  Biso   1.000  C
  C139     1.0000 0.39130  0.80700  0.31360  Biso   1.000  C
  C140     1.0000 0.10870  0.19300  0.81360  Biso   1.000  C
  C141     1.0000 0.39130  0.69300  0.81360  Biso   1.000  C
  C142     1.0000 0.10870  0.30700  0.31360  Biso   1.000  C
  C143     1.0000 0.60870  0.19300  0.68640  Biso   1.000  C
  C144     1.0000 0.89130  0.80700  0.18640  Biso   1.000  C
  H105     1.0000 0.58430  0.25960  0.18210  Biso   1.000  H
  H106     1.0000 0.91570  0.74040  0.68210  Biso   1.000  H
  H107     1.0000 0.41570  0.75960  0.31790  Biso   1.000  H
  H108     1.0000 0.08430  0.24040  0.81790  Biso   1.000  H
  H109     1.0000 0.41570  0.74040  0.81790  Biso   1.000  H
  H110     1.0000 0.08430  0.25960  0.31790  Biso   1.000  H
  H111     1.0000 0.58430  0.24040  0.68210  Biso   1.000  H
  H112     1.0000 0.91570  0.75960  0.18210  Biso   1.000  H
  C145     1.0000 0.90620  0.56740  0.35410  Biso   1.000  C
  C146     1.0000 0.59380  0.43260  0.85410  Biso   1.000  C
  C147     1.0000 0.09380  0.06740  0.14590  Biso   1.000  C
  C148     1.0000 0.40620  0.93260  0.64590  Biso   1.000  C
  C149     1.0000 0.09380  0.43260  0.64590  Biso   1.000  C
  C150     1.0000 0.40620  0.56740  0.14590  Biso   1.000  C
  C151     1.0000 0.90620  0.93260  0.85410  Biso   1.000  C
  C152     1.0000 0.59380  0.06740  0.35410  Biso   1.000  C
  H113     1.0000 0.94650  0.57280  0.38110  Biso   1.000  H
  H114     1.0000 0.55350  0.42720  0.88110  Biso   1.000  H
  H115     1.0000 0.05350  0.07280  0.11890  Biso   1.000  H
  H116     1.0000 0.44650  0.92720  0.61890  Biso   1.000  H
  H117     1.0000 0.05350  0.42720  0.61890  Biso   1.000  H
  H118     1.0000 0.44650  0.57280  0.11890  Biso   1.000  H
  H119     1.0000 0.94650  0.92720  0.88110  Biso   1.000  H
  H120     1.0000 0.55350  0.07280  0.38110  Biso   1.000  H
  C153     1.0000 0.60590  0.56330  0.00330  Biso   1.000  C
  C154     1.0000 0.89410  0.43670  0.50330  Biso   1.000  C
  C155     1.0000 0.39410  0.06330  0.49670  Biso   1.000  C
  C156     1.0000 0.10590  0.93670  0.99670  Biso   1.000  C
  C157     1.0000 0.39410  0.43670  0.99670  Biso   1.000  C
  C158     1.0000 0.10590  0.56330  0.49670  Biso   1.000  C
  C159     1.0000 0.60590  0.93670  0.50330  Biso   1.000  C
  C160     1.0000 0.89410  0.06330  0.00330  Biso   1.000  C
  H121     1.0000 0.58830  0.56110  0.96090  Biso   1.000  H
  H122     1.0000 0.91170  0.43890  0.46090  Biso   1.000  H
  H123     1.0000 0.41170  0.06110  0.53910  Biso   1.000  H
  H124     1.0000 0.08830  0.93890  0.03910  Biso   1.000  H
  H125     1.0000 0.41170  0.43890  0.03910  Biso   1.000  H
  H126     1.0000 0.08830  0.56110  0.53910  Biso   1.000  H
  H127     1.0000 0.58830  0.93890  0.46090  Biso   1.000  H
  H128     1.0000 0.91170  0.06110  0.96090  Biso   1.000  H
  O1       1.0000 0.05500  0.63680  0.12960  Biso   1.000  O
  O2       1.0000 0.44500  0.36320  0.62960  Biso   1.000  O
  O3       1.0000 0.94500  0.13680  0.37040  Biso   1.000  O
  O4       1.0000 0.55500  0.86320  0.87040  Biso   1.000  O
  O5       1.0000 0.94500  0.36320  0.87040  Biso   1.000  O
  O6       1.0000 0.55500  0.63680  0.37040  Biso   1.000  O
  O7       1.0000 0.05500  0.86320  0.62960  Biso   1.000  O
  O8       1.0000 0.44500  0.13680  0.12960  Biso   1.000  O
  O9       1.0000 0.84050  0.78280  0.98960  Biso   1.000  O
  O10      1.0000 0.65950  0.21720  0.48960  Biso   1.000  O
  O11      1.0000 0.15950  0.28280  0.51040  Biso   1.000  O
  O12      1.0000 0.34050  0.71720  0.01040  Biso   1.000  O
  O13      1.0000 0.15950  0.21720  0.01040  Biso   1.000  O
  O14      1.0000 0.34050  0.78280  0.51040  Biso   1.000  O
  O15      1.0000 0.84050  0.71720  0.48960  Biso   1.000  O
  O16      1.0000 0.65950  0.28280  0.98960  Biso   1.000  O
  O17      1.0000 0.92720  0.67520  0.07830  Biso   1.000  O
  O18      1.0000 0.57280  0.32480  0.57830  Biso   1.000  O
  O19      1.0000 0.07280  0.17520  0.42170  Biso   1.000  O
  O20      1.0000 0.42720  0.82480  0.92170  Biso   1.000  O
  O21      1.0000 0.07280  0.32480  0.92170  Biso   1.000  O
  O22      1.0000 0.42720  0.67520  0.42170  Biso   1.000  O
  O23      1.0000 0.92720  0.82480  0.57830  Biso   1.000  O
  O24      1.0000 0.57280  0.17520  0.07830  Biso   1.000  O
  O25      1.0000 0.88110  0.69890  0.99120  Biso   1.000  O
  O26      1.0000 0.61890  0.30110  0.49120  Biso   1.000  O
  O27      1.0000 0.11890  0.19890  0.50880  Biso   1.000  O
  O28      1.0000 0.38110  0.80110  0.00880  Biso   1.000  O
  O29      1.0000 0.11890  0.30110  0.00880  Biso   1.000  O
  O30      1.0000 0.38110  0.69890  0.50880  Biso   1.000  O
  O31      1.0000 0.88110  0.80110  0.49120  Biso   1.000  O
  O32      1.0000 0.61890  0.19890  0.99120  Biso   1.000  O
  O33      1.0000 0.98680  0.71130  0.96970  Biso   1.000  O
  O34      1.0000 0.51320  0.28870  0.46970  Biso   1.000  O
  O35      1.0000 0.01320  0.21130  0.53030  Biso   1.000  O
  O36      1.0000 0.48680  0.78870  0.03030  Biso   1.000  O
  O37      1.0000 0.01320  0.28870  0.03030  Biso   1.000  O
  O38      1.0000 0.48680  0.71130  0.53030  Biso   1.000  O
  O39      1.0000 0.98680  0.78870  0.46970  Biso   1.000  O
  O40      1.0000 0.51320  0.21130  0.96970  Biso   1.000  O
  O41      1.0000 0.08540  0.64700  0.89240  Biso   1.000  O
  O42      1.0000 0.41460  0.35300  0.39240  Biso   1.000  O
  O43      1.0000 0.91460  0.14700  0.60760  Biso   1.000  O
  O44      1.0000 0.58540  0.85300  0.10760  Biso   1.000  O
  O45      1.0000 0.91460  0.35300  0.10760  Biso   1.000  O
  O46      1.0000 0.58540  0.64700  0.60760  Biso   1.000  O
  O47      1.0000 0.08540  0.85300  0.39240  Biso   1.000  O
  O48      1.0000 0.41460  0.14700  0.89240  Biso   1.000  O
  O49      1.0000 0.04190  0.47000  0.06230  Biso   1.000  O
  O50      1.0000 0.45810  0.53000  0.56230  Biso   1.000  O
  O51      1.0000 0.95810  0.97000  0.43770  Biso   1.000  O
  O52      1.0000 0.54190  0.03000  0.93770  Biso   1.000  O
  O53      1.0000 0.95810  0.53000  0.93770  Biso   1.000  O
  O54      1.0000 0.54190  0.47000  0.43770  Biso   1.000  O
  O55      1.0000 0.04190  0.03000  0.56230  Biso   1.000  O
  O56      1.0000 0.45810  0.97000  0.06230  Biso   1.000  O
  O57      1.0000 0.88310  0.63540  0.90740  Biso   1.000  O
  O58      1.0000 0.61690  0.36460  0.40740  Biso   1.000  O
  O59      1.0000 0.11690  0.13540  0.59260  Biso   1.000  O
  O60      1.0000 0.38310  0.86460  0.09260  Biso   1.000  O
  O61      1.0000 0.11690  0.36460  0.09260  Biso   1.000  O
  O62      1.0000 0.38310  0.63540  0.59260  Biso   1.000  O
  O63      1.0000 0.88310  0.86460  0.40740  Biso   1.000  O
  O64      1.0000 0.61690  0.13540  0.90740  Biso   1.000  O
  O65      1.0000 0.08100  0.49560  0.98230  Biso   1.000  O
  O66      1.0000 0.41900  0.50440  0.48230  Biso   1.000  O
  O67      1.0000 0.91900  0.99560  0.51770  Biso   1.000  O
  O68      1.0000 0.58100  0.00440  0.01770  Biso   1.000  O
  O69      1.0000 0.91900  0.50440  0.01770  Biso   1.000  O
  O70      1.0000 0.58100  0.49560  0.51770  Biso   1.000  O
  O71      1.0000 0.08100  0.00440  0.48230  Biso   1.000  O
  O72      1.0000 0.41900  0.99560  0.98230  Biso   1.000  O
  O73      1.0000 0.03810  0.78440  0.08090  Biso   1.000  O
  O74      1.0000 0.46190  0.21560  0.58090  Biso   1.000  O
  O75      1.0000 0.96190  0.28440  0.41910  Biso   1.000  O
  O76      1.0000 0.53810  0.71560  0.91910  Biso   1.000  O
  O77      1.0000 0.96190  0.21560  0.91910  Biso   1.000  O
  O78      1.0000 0.53810  0.78440  0.41910  Biso   1.000  O
  O79      1.0000 0.03810  0.71560  0.58090  Biso   1.000  O
  O80      1.0000 0.46190  0.28440  0.08090  Biso   1.000  O
  O81      1.0000 0.19500  0.54790  0.02070  Biso   1.000  O
  O82      1.0000 0.30500  0.45210  0.52070  Biso   1.000  O
  O83      1.0000 0.80500  0.04790  0.47930  Biso   1.000  O
  O84      1.0000 0.69500  0.95210  0.97930  Biso   1.000  O
  O85      1.0000 0.80500  0.45210  0.97930  Biso   1.000  O
  O86      1.0000 0.69500  0.54790  0.47930  Biso   1.000  O
  O87      1.0000 0.19500  0.95210  0.52070  Biso   1.000  O
  O88      1.0000 0.30500  0.04790  0.02070  Biso   1.000  O
  O89      1.0000 0.98690  0.55660  0.05440  Biso   1.000  O
  O90      1.0000 0.51310  0.44340  0.55440  Biso   1.000  O
  O91      1.0000 0.01310  0.05660  0.44560  Biso   1.000  O
  O92      1.0000 0.48690  0.94340  0.94560  Biso   1.000  O
  O93      1.0000 0.01310  0.44340  0.94560  Biso   1.000  O
  O94      1.0000 0.48690  0.55660  0.44560  Biso   1.000  O
  O95      1.0000 0.98690  0.94340  0.55440  Biso   1.000  O
  O96      1.0000 0.51310  0.05660  0.05440  Biso   1.000  O
  O97      1.0000 0.11710  0.67440  0.01420  Biso   1.000  O
  O98      1.0000 0.38290  0.32560  0.51420  Biso   1.000  O
  O99      1.0000 0.88290  0.17440  0.48580  Biso   1.000  O
  O100     1.0000 0.61710  0.82560  0.98580  Biso   1.000  O
  O101     1.0000 0.88290  0.32560  0.98580  Biso   1.000  O
  O102     1.0000 0.61710  0.67440  0.48580  Biso   1.000  O
  O103     1.0000 0.11710  0.82560  0.51420  Biso   1.000  O
  O104     1.0000 0.38290  0.17440  0.01420  Biso   1.000  O
  O105     1.0000 0.03050  0.58020  0.98470  Biso   1.000  O
  O106     1.0000 0.46950  0.41980  0.48470  Biso   1.000  O
  O107     1.0000 0.96950  0.08020  0.51530  Biso   1.000  O
  O108     1.0000 0.53050  0.91980  0.01530  Biso   1.000  O
  O109     1.0000 0.96950  0.41980  0.01530  Biso   1.000  O
  O110     1.0000 0.53050  0.58020  0.51530  Biso   1.000  O
  O111     1.0000 0.03050  0.91980  0.48470  Biso   1.000  O
  O112     1.0000 0.46950  0.08020  0.98470  Biso   1.000  O
  O113     1.0000 0.22930  0.65870  0.92440  Biso   1.000  O
  O114     1.0000 0.27070  0.34130  0.42440  Biso   1.000  O
  O115     1.0000 0.77070  0.15870  0.57560  Biso   1.000  O
  O116     1.0000 0.72930  0.84130  0.07560  Biso   1.000  O
  O117     1.0000 0.77070  0.34130  0.07560  Biso   1.000  O
  O118     1.0000 0.72930  0.65870  0.57560  Biso   1.000  O
  O119     1.0000 0.22930  0.84130  0.42440  Biso   1.000  O
  O120     1.0000 0.27070  0.15870  0.92440  Biso   1.000  O
  O121     1.0000 0.97390  0.73420  0.83830  Biso   1.000  O
  O122     1.0000 0.52610  0.26580  0.33830  Biso   1.000  O
  O123     1.0000 0.02610  0.23420  0.66170  Biso   1.000  O
  O124     1.0000 0.47390  0.76580  0.16170  Biso   1.000  O
  O125     1.0000 0.02610  0.26580  0.16170  Biso   1.000  O
  O126     1.0000 0.47390  0.73420  0.66170  Biso   1.000  O
  O127     1.0000 0.97390  0.76580  0.33830  Biso   1.000  O
  O128     1.0000 0.52610  0.23420  0.83830  Biso   1.000  O
  O129     1.0000 0.25670  0.43340  0.09590  Biso   1.000  O
  O130     1.0000 0.24330  0.56660  0.59590  Biso   1.000  O
  O131     1.0000 0.74330  0.93340  0.40410  Biso   1.000  O
  O132     1.0000 0.75670  0.06660  0.90410  Biso   1.000  O
  O133     1.0000 0.74330  0.56660  0.90410  Biso   1.000  O
  O134     1.0000 0.75670  0.43340  0.40410  Biso   1.000  O
  O135     1.0000 0.25670  0.06660  0.59590  Biso   1.000  O
  O136     1.0000 0.24330  0.93340  0.09590  Biso   1.000  O
  O137     1.0000 0.80630  0.63070  0.14880  Biso   1.000  O
  O138     1.0000 0.69370  0.36930  0.64880  Biso   1.000  O
  O139     1.0000 0.19370  0.13070  0.35120  Biso   1.000  O
  O140     1.0000 0.30630  0.86930  0.85120  Biso   1.000  O
  O141     1.0000 0.19370  0.36930  0.85120  Biso   1.000  O
  O142     1.0000 0.30630  0.63070  0.35120  Biso   1.000  O
  O143     1.0000 0.80630  0.86930  0.64880  Biso   1.000  O
  O144     1.0000 0.69370  0.13070  0.14880  Biso   1.000  O
  O145     1.0000 0.13310  0.50970  0.13410  Biso   1.000  O
  O146     1.0000 0.36690  0.49030  0.63410  Biso   1.000  O
  O147     1.0000 0.86690  0.00970  0.36590  Biso   1.000  O
  O148     1.0000 0.63310  0.99030  0.86590  Biso   1.000  O
  O149     1.0000 0.86690  0.49030  0.86590  Biso   1.000  O
  O150     1.0000 0.63310  0.50970  0.36590  Biso   1.000  O
  O151     1.0000 0.13310  0.99030  0.63410  Biso   1.000  O
  O152     1.0000 0.36690  0.00970  0.13410  Biso   1.000  O
  O153     1.0000 0.83430  0.48320  0.10200  Biso   1.000  O
  O154     1.0000 0.66570  0.51680  0.60200  Biso   1.000  O
  O155     1.0000 0.16570  0.98320  0.39800  Biso   1.000  O
  O156     1.0000 0.33430  0.01680  0.89800  Biso   1.000  O
  O157     1.0000 0.16570  0.51680  0.89800  Biso   1.000  O
  O158     1.0000 0.33430  0.48320  0.39800  Biso   1.000  O
  O159     1.0000 0.83430  0.01680  0.60200  Biso   1.000  O
  O160     1.0000 0.66570  0.98320  0.10200  Biso   1.000  O
  O161     1.0000 0.82290  0.59890  0.01670  Biso   1.000  O
  O162     1.0000 0.67710  0.40110  0.51670  Biso   1.000  O
  O163     1.0000 0.17710  0.09890  0.48330  Biso   1.000  O
  O164     1.0000 0.32290  0.90110  0.98330  Biso   1.000  O
  O165     1.0000 0.17710  0.40110  0.98330  Biso   1.000  O
  O166     1.0000 0.32290  0.59890  0.48330  Biso   1.000  O
  O167     1.0000 0.82290  0.90110  0.51670  Biso   1.000  O
  O168     1.0000 0.67710  0.09890  0.01670  Biso   1.000  O
  O169     1.0000 0.01770  0.42740  0.16880  Biso   1.000  O
  O170     1.0000 0.48230  0.57260  0.66880  Biso   1.000  O
  O171     1.0000 0.98230  0.92740  0.33120  Biso   1.000  O
  O172     1.0000 0.51770  0.07260  0.83120  Biso   1.000  O
  O173     1.0000 0.98230  0.57260  0.83120  Biso   1.000  O
  O174     1.0000 0.51770  0.42740  0.33120  Biso   1.000  O
  O175     1.0000 0.01770  0.07260  0.66880  Biso   1.000  O
  O176     1.0000 0.48230  0.92740  0.16880  Biso   1.000  O
  O177     1.0000 0.05640  0.55140  0.24500  Biso   1.000  O
  O178     1.0000 0.44360  0.44860  0.74500  Biso   1.000  O
  O179     1.0000 0.94360  0.05140  0.25500  Biso   1.000  O
  O180     1.0000 0.55640  0.94860  0.75500  Biso   1.000  O
  O181     1.0000 0.94360  0.44860  0.75500  Biso   1.000  O
  O182     1.0000 0.55640  0.55140  0.25500  Biso   1.000  O
  O183     1.0000 0.05640  0.94860  0.74500  Biso   1.000  O
  O184     1.0000 0.44360  0.05140  0.24500  Biso   1.000  O
  O185     1.0000 0.93850  0.55850  0.16270  Biso   1.000  O
  O186     1.0000 0.56150  0.44150  0.66270  Biso   1.000  O
  O187     1.0000 0.06150  0.05850  0.33730  Biso   1.000  O
  O188     1.0000 0.43850  0.94150  0.83730  Biso   1.000  O
  O189     1.0000 0.06150  0.44150  0.83730  Biso   1.000  O
  O190     1.0000 0.43850  0.55850  0.33730  Biso   1.000  O
  O191     1.0000 0.93850  0.94150  0.66270  Biso   1.000  O
  O192     1.0000 0.56150  0.05850  0.16270  Biso   1.000  O
