data_image0
_cell_length_a       7.797
_cell_length_b       22.328
_cell_length_c       8.699
_cell_angle_alpha    90
_cell_angle_beta     101.77
_cell_angle_gamma    90

_symmetry_space_group_name_H-M    "P 1"
_symmetry_int_tables_number       1

loop_
  _symmetry_equiv_pos_as_xyz
  'x, y, z'

loop_
  _atom_site_label
  _atom_site_occupancy
  _atom_site_fract_x
  _atom_site_fract_y
  _atom_site_fract_z
  _atom_site_thermal_displace_type
  _atom_site_B_iso_or_equiv
  _atom_site_type_symbol
  Cu1      1.0000 0.98620  0.41763  0.05050  Biso   1.000  Cu
  Cu2      1.0000 0.98620  0.08237  0.55050  Biso   1.000  Cu
  Cu3      1.0000 0.01380  0.58237  0.94950  Biso   1.000  Cu
  Cu4      1.0000 0.01380  0.91763  0.44950  Biso   1.000  Cu
  Cl1      1.0000 0.17240  0.35585  0.21470  Biso   1.000  Cl
  Cl2      1.0000 0.17240  0.14415  0.71470  Biso   1.000  Cl
  Cl3      1.0000 0.82760  0.64415  0.78530  Biso   1.000  Cl
  Cl4      1.0000 0.82760  0.85585  0.28530  Biso   1.000  Cl
  Cl5      1.0000 0.80160  0.48186  0.88260  Biso   1.000  Cl
  Cl6      1.0000 0.80160  0.01814  0.38260  Biso   1.000  Cl
  Cl7      1.0000 0.19840  0.51814  0.11740  Biso   1.000  Cl
  Cl8      1.0000 0.19840  0.98186  0.61740  Biso   1.000  Cl
  N1       1.0000 0.66870  0.41560  0.19790  Biso   1.000  N
  N2       1.0000 0.66870  0.08440  0.69790  Biso   1.000  N
  N3       1.0000 0.33130  0.58440  0.80210  Biso   1.000  N
  N4       1.0000 0.33130  0.91560  0.30210  Biso   1.000  N
  N5       1.0000 0.84060  0.42580  0.21430  Biso   1.000  N
  N6       1.0000 0.84060  0.07420  0.71430  Biso   1.000  N
  N7       1.0000 0.15940  0.57420  0.78570  Biso   1.000  N
  N8       1.0000 0.15940  0.92580  0.28570  Biso   1.000  N
  N9       1.0000 0.08350  0.11130  0.36990  Biso   1.000  N
  N10      1.0000 0.08350  0.38870  0.86990  Biso   1.000  N
  N11      1.0000 0.91650  0.88870  0.63010  Biso   1.000  N
  N12      1.0000 0.91650  0.61130  0.13010  Biso   1.000  N
  N13      1.0000 0.05550  0.16560  0.30030  Biso   1.000  N
  N14      1.0000 0.05550  0.33440  0.80030  Biso   1.000  N
  N15      1.0000 0.94450  0.83440  0.69970  Biso   1.000  N
  N16      1.0000 0.94450  0.66560  0.19970  Biso   1.000  N
  C1       1.0000 0.75420  0.29140  0.21060  Biso   1.000  C
  C2       1.0000 0.75420  0.20860  0.71060  Biso   1.000  C
  C3       1.0000 0.24580  0.70860  0.78940  Biso   1.000  C
  C4       1.0000 0.24580  0.79140  0.28940  Biso   1.000  C
  C5       1.0000 0.79200  0.23060  0.22660  Biso   1.000  C
  C6       1.0000 0.79200  0.26940  0.72660  Biso   1.000  C
  C7       1.0000 0.20800  0.76940  0.77340  Biso   1.000  C
  C8       1.0000 0.20800  0.73060  0.27340  Biso   1.000  C
  C9       1.0000 0.68400  0.19040  0.13300  Biso   1.000  C
  C10      1.0000 0.68400  0.30960  0.63300  Biso   1.000  C
  C11      1.0000 0.31600  0.80960  0.86700  Biso   1.000  C
  C12      1.0000 0.31600  0.69040  0.36700  Biso   1.000  C
  C13      1.0000 0.54400  0.21060  0.02400  Biso   1.000  C
  C14      1.0000 0.54400  0.28940  0.52400  Biso   1.000  C
  C15      1.0000 0.45600  0.78940  0.97600  Biso   1.000  C
  C16      1.0000 0.45600  0.71060  0.47600  Biso   1.000  C
  C17      1.0000 0.51100  0.27030  0.00730  Biso   1.000  C
  C18      1.0000 0.51100  0.22970  0.50730  Biso   1.000  C
  C19      1.0000 0.48900  0.72970  0.99270  Biso   1.000  C
  C20      1.0000 0.48900  0.77030  0.49270  Biso   1.000  C
  C21      1.0000 0.61400  0.31180  0.09940  Biso   1.000  C
  C22      1.0000 0.61400  0.18820  0.59940  Biso   1.000  C
  C23      1.0000 0.38600  0.68820  0.90060  Biso   1.000  C
  C24      1.0000 0.38600  0.81180  0.40060  Biso   1.000  C
  C25      1.0000 0.57500  0.37790  0.07340  Biso   1.000  C
  C26      1.0000 0.57500  0.12210  0.57340  Biso   1.000  C
  C27      1.0000 0.42500  0.62210  0.92660  Biso   1.000  C
  C28      1.0000 0.42500  0.87790  0.42660  Biso   1.000  C
  C29      1.0000 0.61100  0.43070  0.32650  Biso   1.000  C
  C30      1.0000 0.61100  0.06930  0.82650  Biso   1.000  C
  C31      1.0000 0.38900  0.56930  0.67350  Biso   1.000  C
  C32      1.0000 0.38900  0.93070  0.17350  Biso   1.000  C
  C33      1.0000 0.74900  0.45220  0.43040  Biso   1.000  C
  C34      1.0000 0.74900  0.04780  0.93040  Biso   1.000  C
  C35      1.0000 0.25100  0.54780  0.56960  Biso   1.000  C
  C36      1.0000 0.25100  0.95220  0.06960  Biso   1.000  C
  C37      1.0000 0.89000  0.44850  0.35620  Biso   1.000  C
  C38      1.0000 0.89000  0.05150  0.85620  Biso   1.000  C
  C39      1.0000 0.11000  0.55150  0.64380  Biso   1.000  C
  C40      1.0000 0.11000  0.94850  0.14380  Biso   1.000  C
  C41      1.0000 0.19200  0.08300  0.29570  Biso   1.000  C
  C42      1.0000 0.19200  0.41700  0.79570  Biso   1.000  C
  C43      1.0000 0.80800  0.91700  0.70430  Biso   1.000  C
  C44      1.0000 0.80800  0.58300  0.20430  Biso   1.000  C
  C45      1.0000 0.23300  0.11840  0.17950  Biso   1.000  C
  C46      1.0000 0.23300  0.38160  0.67950  Biso   1.000  C
  C47      1.0000 0.76700  0.88160  0.82050  Biso   1.000  C
  C48      1.0000 0.76700  0.61840  0.32050  Biso   1.000  C
  C49      1.0000 0.14400  0.17060  0.18640  Biso   1.000  C
  C50      1.0000 0.14400  0.32940  0.68640  Biso   1.000  C
  C51      1.0000 0.85600  0.82940  0.81360  Biso   1.000  C
  C52      1.0000 0.85600  0.67060  0.31360  Biso   1.000  C
  C53      1.0000 0.95000  0.21210  0.35230  Biso   1.000  C
  C54      1.0000 0.95000  0.28790  0.85230  Biso   1.000  C
  C55      1.0000 0.05000  0.78790  0.64770  Biso   1.000  C
  C56      1.0000 0.05000  0.71210  0.14770  Biso   1.000  C
  H1       1.0000 0.82765  0.32072  0.27874  Biso   1.000  H
  H2       1.0000 0.82765  0.17928  0.77874  Biso   1.000  H
  H3       1.0000 0.17235  0.67928  0.72126  Biso   1.000  H
  H4       1.0000 0.17235  0.82072  0.22126  Biso   1.000  H
  H5       1.0000 0.70882  0.14740  0.14678  Biso   1.000  H
  H6       1.0000 0.70882  0.35260  0.64678  Biso   1.000  H
  H7       1.0000 0.29118  0.85260  0.85322  Biso   1.000  H
  H8       1.0000 0.29118  0.64740  0.35322  Biso   1.000  H
  H9       1.0000 0.46996  0.18120  0.95792  Biso   1.000  H
  H10      1.0000 0.46996  0.31880  0.45792  Biso   1.000  H
  H11      1.0000 0.53004  0.81880  0.04208  Biso   1.000  H
  H12      1.0000 0.53004  0.68120  0.54208  Biso   1.000  H
  H13      1.0000 0.40806  0.28367  0.92619  Biso   1.000  H
  H14      1.0000 0.40806  0.21633  0.42619  Biso   1.000  H
  H15      1.0000 0.59194  0.71633  0.07381  Biso   1.000  H
  H16      1.0000 0.59194  0.78367  0.57381  Biso   1.000  H
  H17      1.0000 0.49005  0.42730  0.34504  Biso   1.000  H
  H18      1.0000 0.49005  0.07270  0.84504  Biso   1.000  H
  H19      1.0000 0.50995  0.57270  0.65496  Biso   1.000  H
  H20      1.0000 0.50995  0.92730  0.15496  Biso   1.000  H
  H21      1.0000 0.01122  0.46176  0.40462  Biso   1.000  H
  H22      1.0000 0.01122  0.03824  0.90462  Biso   1.000  H
  H23      1.0000 0.98878  0.53824  0.59538  Biso   1.000  H
  H24      1.0000 0.98878  0.96176  0.09538  Biso   1.000  H
  H25      1.0000 0.75100  0.46797  0.53677  Biso   1.000  H
  H26      1.0000 0.75100  0.03203  0.03677  Biso   1.000  H
  H27      1.0000 0.24900  0.53203  0.46323  Biso   1.000  H
  H28      1.0000 0.24900  0.96797  0.96323  Biso   1.000  H
  H29      1.0000 0.30791  0.10837  0.10463  Biso   1.000  H
  H30      1.0000 0.30791  0.39163  0.60463  Biso   1.000  H
  H31      1.0000 0.69209  0.89163  0.89537  Biso   1.000  H
  H32      1.0000 0.69209  0.60837  0.39537  Biso   1.000  H
  H33      1.0000 0.23813  0.04149  0.32079  Biso   1.000  H
  H34      1.0000 0.23813  0.45851  0.82079  Biso   1.000  H
  H35      1.0000 0.76187  0.95851  0.67921  Biso   1.000  H
  H36      1.0000 0.76187  0.54149  0.17921  Biso   1.000  H
  H37      1.0000 0.14439  0.20538  0.11503  Biso   1.000  H
  H38      1.0000 0.14439  0.29462  0.61503  Biso   1.000  H
  H39      1.0000 0.85561  0.79462  0.88497  Biso   1.000  H
  H40      1.0000 0.85561  0.70538  0.38497  Biso   1.000  H
  H41      1.0000 0.44847  0.38502  0.06039  Biso   1.000  H
  H42      1.0000 0.44847  0.11498  0.56039  Biso   1.000  H
  H43      1.0000 0.55153  0.61498  0.93961  Biso   1.000  H
  H44      1.0000 0.55153  0.88502  0.43961  Biso   1.000  H
  H45      1.0000 0.60333  0.39101  0.97425  Biso   1.000  H
  H46      1.0000 0.60333  0.10899  0.47425  Biso   1.000  H
  H47      1.0000 0.39667  0.60899  0.02575  Biso   1.000  H
  H48      1.0000 0.39667  0.89101  0.52575  Biso   1.000  H
  H49      1.0000 0.99467  0.21802  0.46379  Biso   1.000  H
  H50      1.0000 0.99467  0.28198  0.96379  Biso   1.000  H
  H51      1.0000 0.00533  0.78198  0.53621  Biso   1.000  H
  H52      1.0000 0.00533  0.71802  0.03621  Biso   1.000  H
  H53      1.0000 0.83210  0.19279  0.34888  Biso   1.000  H
  H54      1.0000 0.83210  0.30721  0.84888  Biso   1.000  H
  H55      1.0000 0.16790  0.80721  0.65112  Biso   1.000  H
  H56      1.0000 0.16790  0.69279  0.15112  Biso   1.000  H
