data_image0
_cell_length_a       11.5905
_cell_length_b       9.121
_cell_length_c       13.9207
_cell_angle_alpha    90
_cell_angle_beta     95.148
_cell_angle_gamma    90

_symmetry_space_group_name_H-M    "P 1"
_symmetry_int_tables_number       1

loop_
  _symmetry_equiv_pos_as_xyz
  'x, y, z'

loop_
  _atom_site_label
  _atom_site_occupancy
  _atom_site_fract_x
  _atom_site_fract_y
  _atom_site_fract_z
  _atom_site_thermal_displace_type
  _atom_site_B_iso_or_equiv
  _atom_site_type_symbol
  C1       1.0000 0.18450  0.01320  0.70050  Biso   1.000  C
  C2       1.0000 0.81550  0.51320  0.79950  Biso   1.000  C
  C3       1.0000 0.81550  0.98680  0.29950  Biso   1.000  C
  C4       1.0000 0.18450  0.48680  0.20050  Biso   1.000  C
  H1       1.0000 0.15560  0.91820  0.70210  Biso   1.000  H
  H2       1.0000 0.84440  0.41820  0.79790  Biso   1.000  H
  H3       1.0000 0.84440  0.08180  0.29790  Biso   1.000  H
  H4       1.0000 0.15560  0.58180  0.20210  Biso   1.000  H
  C5       1.0000 0.11180  0.12760  0.71420  Biso   1.000  C
  C6       1.0000 0.88820  0.62760  0.78580  Biso   1.000  C
  C7       1.0000 0.88820  0.87240  0.28580  Biso   1.000  C
  C8       1.0000 0.11180  0.37240  0.21420  Biso   1.000  C
  H5       1.0000 0.03520  0.11040  0.72570  Biso   1.000  H
  H6       1.0000 0.96480  0.61040  0.77430  Biso   1.000  H
  H7       1.0000 0.96480  0.88960  0.27430  Biso   1.000  H
  H8       1.0000 0.03520  0.38960  0.22570  Biso   1.000  H
  C9       1.0000 0.15320  0.26760  0.71070  Biso   1.000  C
  C10      1.0000 0.84680  0.76760  0.78930  Biso   1.000  C
  C11      1.0000 0.84680  0.73240  0.28930  Biso   1.000  C
  C12      1.0000 0.15320  0.23240  0.21070  Biso   1.000  C
  H9       1.0000 0.10440  0.34680  0.71860  Biso   1.000  H
  H10      1.0000 0.89560  0.84680  0.78140  Biso   1.000  H
  H11      1.0000 0.89560  0.65320  0.28140  Biso   1.000  H
  H12      1.0000 0.10440  0.15320  0.21860  Biso   1.000  H
  C13      1.0000 0.26830  0.29090  0.69539  Biso   1.000  C
  C14      1.0000 0.73170  0.79090  0.80461  Biso   1.000  C
  C15      1.0000 0.73170  0.70910  0.30461  Biso   1.000  C
  C16      1.0000 0.26830  0.20910  0.19539  Biso   1.000  C
  H13      1.0000 0.29800  0.38540  0.69290  Biso   1.000  H
  H14      1.0000 0.70200  0.88540  0.80710  Biso   1.000  H
  H15      1.0000 0.70200  0.61460  0.30710  Biso   1.000  H
  H16      1.0000 0.29800  0.11460  0.19290  Biso   1.000  H
  C17      1.0000 0.33780  0.16990  0.68390  Biso   1.000  C
  C18      1.0000 0.66220  0.66990  0.81610  Biso   1.000  C
  C19      1.0000 0.66220  0.83010  0.31610  Biso   1.000  C
  C20      1.0000 0.33780  0.33010  0.18390  Biso   1.000  C
  C21      1.0000 0.46380  0.18360  0.66565  Biso   1.000  C
  C22      1.0000 0.53620  0.68360  0.83435  Biso   1.000  C
  C23      1.0000 0.53620  0.81640  0.33435  Biso   1.000  C
  C24      1.0000 0.46380  0.31640  0.16565  Biso   1.000  C
  C25      1.0000 0.61760  0.03010  0.61395  Biso   1.000  C
  C26      1.0000 0.38240  0.53010  0.88605  Biso   1.000  C
  C27      1.0000 0.38240  0.96990  0.38605  Biso   1.000  C
  C28      1.0000 0.61760  0.46990  0.11395  Biso   1.000  C
  C29      1.0000 0.70570  0.12810  0.60680  Biso   1.000  C
  C30      1.0000 0.29430  0.62810  0.89320  Biso   1.000  C
  C31      1.0000 0.29430  0.87190  0.39320  Biso   1.000  C
  C32      1.0000 0.70570  0.37190  0.10680  Biso   1.000  C
  H17      1.0000 0.69500  0.22640  0.62140  Biso   1.000  H
  H18      1.0000 0.30500  0.72640  0.87860  Biso   1.000  H
  H19      1.0000 0.30500  0.77360  0.37860  Biso   1.000  H
  H20      1.0000 0.69500  0.27360  0.12140  Biso   1.000  H
  C33      1.0000 0.81270  0.08040  0.57750  Biso   1.000  C
  C34      1.0000 0.18730  0.58040  0.92250  Biso   1.000  C
  C35      1.0000 0.18730  0.91960  0.42250  Biso   1.000  C
  C36      1.0000 0.81270  0.41960  0.07750  Biso   1.000  C
  H21      1.0000 0.87180  0.14830  0.57270  Biso   1.000  H
  H22      1.0000 0.12820  0.64830  0.92730  Biso   1.000  H
  H23      1.0000 0.12820  0.85170  0.42730  Biso   1.000  H
  H24      1.0000 0.87180  0.35170  0.07270  Biso   1.000  H
  C37      1.0000 0.83170  0.93690  0.55600  Biso   1.000  C
  C38      1.0000 0.16830  0.43690  0.94400  Biso   1.000  C
  C39      1.0000 0.16830  0.06310  0.44400  Biso   1.000  C
  C40      1.0000 0.83170  0.56310  0.05600  Biso   1.000  C
  H25      1.0000 0.90320  0.90830  0.53710  Biso   1.000  H
  H26      1.0000 0.09680  0.40830  0.96290  Biso   1.000  H
  H27      1.0000 0.09680  0.09170  0.46290  Biso   1.000  H
  H28      1.0000 0.90320  0.59170  0.03710  Biso   1.000  H
  C41      1.0000 0.74390  0.83220  0.56230  Biso   1.000  C
  C42      1.0000 0.25610  0.33220  0.93770  Biso   1.000  C
  C43      1.0000 0.25610  0.16780  0.43770  Biso   1.000  C
  C44      1.0000 0.74390  0.66780  0.06230  Biso   1.000  C
  C45      1.0000 0.63610  0.88020  0.59093  Biso   1.000  C
  C46      1.0000 0.36390  0.38020  0.90907  Biso   1.000  C
  C47      1.0000 0.36390  0.11980  0.40907  Biso   1.000  C
  C48      1.0000 0.63610  0.61980  0.09093  Biso   1.000  C
  C49      1.0000 0.56330  0.64340  0.58550  Biso   1.000  C
  C50      1.0000 0.43670  0.14340  0.91450  Biso   1.000  C
  C51      1.0000 0.43670  0.35660  0.41450  Biso   1.000  C
  C52      1.0000 0.56330  0.85660  0.08550  Biso   1.000  C
  H29      1.0000 0.50340  0.57810  0.59410  Biso   1.000  H
  H30      1.0000 0.49660  0.07810  0.90590  Biso   1.000  H
  H31      1.0000 0.49660  0.42190  0.40590  Biso   1.000  H
  H32      1.0000 0.50340  0.92190  0.09410  Biso   1.000  H
  C53      1.0000 0.66780  0.58910  0.55630  Biso   1.000  C
  C54      1.0000 0.33220  0.08910  0.94370  Biso   1.000  C
  C55      1.0000 0.33220  0.41090  0.44370  Biso   1.000  C
  C56      1.0000 0.66780  0.91090  0.05630  Biso   1.000  C
  H33      1.0000 0.67580  0.48930  0.54500  Biso   1.000  H
  H34      1.0000 0.32420  0.98930  0.95500  Biso   1.000  H
  H35      1.0000 0.32420  0.51070  0.45500  Biso   1.000  H
  H36      1.0000 0.67580  0.01070  0.04500  Biso   1.000  H
  C57      1.0000 0.75560  0.67930  0.54470  Biso   1.000  C
  C58      1.0000 0.24440  0.17930  0.95530  Biso   1.000  C
  C59      1.0000 0.24440  0.32070  0.45530  Biso   1.000  C
  C60      1.0000 0.75560  0.82070  0.04470  Biso   1.000  C
  H37      1.0000 0.82460  0.64250  0.52520  Biso   1.000  H
  H38      1.0000 0.17540  0.14250  0.97480  Biso   1.000  H
  H39      1.0000 0.17540  0.35750  0.47480  Biso   1.000  H
  H40      1.0000 0.82460  0.85750  0.02520  Biso   1.000  H
  C61      1.0000 0.21450  0.67470  0.61470  Biso   1.000  C
  C62      1.0000 0.78550  0.17470  0.88530  Biso   1.000  C
  C63      1.0000 0.78550  0.32530  0.38530  Biso   1.000  C
  C64      1.0000 0.21450  0.82530  0.11470  Biso   1.000  C
  Cu1      1.0000 0.41136  0.88335  0.64970  Biso   1.000  Cu
  Cu2      1.0000 0.58864  0.38335  0.85030  Biso   1.000  Cu
  Cu3      1.0000 0.58864  0.11665  0.35030  Biso   1.000  Cu
  Cu4      1.0000 0.41136  0.61665  0.14970  Biso   1.000  Cu
  N1       1.0000 0.29632  0.03250  0.68477  Biso   1.000  N
  N2       1.0000 0.70368  0.53250  0.81523  Biso   1.000  N
  N3       1.0000 0.70368  0.96750  0.31523  Biso   1.000  N
  N4       1.0000 0.29632  0.46750  0.18477  Biso   1.000  N
  N5       1.0000 0.50657  0.05500  0.64197  Biso   1.000  N
  N6       1.0000 0.49343  0.55500  0.85803  Biso   1.000  N
  N7       1.0000 0.49343  0.94500  0.35803  Biso   1.000  N
  N8       1.0000 0.50657  0.44500  0.14197  Biso   1.000  N
  N9       1.0000 0.54724  0.78490  0.60107  Biso   1.000  N
  N10      1.0000 0.45276  0.28490  0.89893  Biso   1.000  N
  N11      1.0000 0.45276  0.21510  0.39893  Biso   1.000  N
  N12      1.0000 0.54724  0.71510  0.10107  Biso   1.000  N
  N13      1.0000 0.30670  0.71910  0.63692  Biso   1.000  N
  N14      1.0000 0.69330  0.21910  0.86308  Biso   1.000  N
  N15      1.0000 0.69330  0.28090  0.36308  Biso   1.000  N
  N16      1.0000 0.30670  0.78090  0.13692  Biso   1.000  N
  O1       1.0000 0.51178  0.30547  0.67295  Biso   1.000  O
  O2       1.0000 0.48822  0.80547  0.82705  Biso   1.000  O
  O3       1.0000 0.48822  0.69453  0.32705  Biso   1.000  O
  O4       1.0000 0.51178  0.19453  0.17295  Biso   1.000  O
  S1       1.0000 0.08650  0.61233  0.58260  Biso   1.000  S
  S2       1.0000 0.91350  0.11233  0.91740  Biso   1.000  S
  S3       1.0000 0.91350  0.38767  0.41740  Biso   1.000  S
  S4       1.0000 0.08650  0.88767  0.08260  Biso   1.000  S
