data_image0
_cell_length_a       13.0788
_cell_length_b       16.1648
_cell_length_c       16.8279
_cell_angle_alpha    105.663
_cell_angle_beta     94.349
_cell_angle_gamma    112.767

_symmetry_space_group_name_H-M    "P 1"
_symmetry_int_tables_number       1

loop_
  _symmetry_equiv_pos_as_xyz
  'x, y, z'

loop_
  _atom_site_label
  _atom_site_occupancy
  _atom_site_fract_x
  _atom_site_fract_y
  _atom_site_fract_z
  _atom_site_thermal_displace_type
  _atom_site_B_iso_or_equiv
  _atom_site_type_symbol
  Cu1      1.0000 0.83510  0.68719  0.73692  Biso   1.000  Cu
  Cu2      1.0000 0.16490  0.31281  0.26308  Biso   1.000  Cu
  C1       1.0000 0.70500  0.48950  0.73410  Biso   1.000  C
  C2       1.0000 0.29500  0.51050  0.26590  Biso   1.000  C
  H1       1.0000 0.65930  0.51440  0.76180  Biso   1.000  H
  H2       1.0000 0.34070  0.48560  0.23820  Biso   1.000  H
  C3       1.0000 0.67310  0.39350  0.71237  Biso   1.000  C
  C4       1.0000 0.32690  0.60650  0.28763  Biso   1.000  C
  H3       1.0000 0.60650  0.35480  0.72440  Biso   1.000  H
  H4       1.0000 0.39350  0.64520  0.27560  Biso   1.000  H
  C5       1.0000 0.74030  0.35460  0.67248  Biso   1.000  C
  C6       1.0000 0.25970  0.64540  0.32752  Biso   1.000  C
  C7       1.0000 0.83850  0.41570  0.65640  Biso   1.000  C
  C8       1.0000 0.16150  0.58430  0.34360  Biso   1.000  C
  H5       1.0000 0.88660  0.39250  0.63040  Biso   1.000  H
  H6       1.0000 0.11340  0.60750  0.36960  Biso   1.000  H
  C9       1.0000 0.86440  0.51060  0.67900  Biso   1.000  C
  C10      1.0000 0.13560  0.48940  0.32100  Biso   1.000  C
  H7       1.0000 0.93040  0.55060  0.66730  Biso   1.000  H
  H8       1.0000 0.06960  0.44940  0.33270  Biso   1.000  H
  C11      1.0000 0.69830  0.24880  0.64500  Biso   1.000  C
  C12      1.0000 0.30170  0.75120  0.35500  Biso   1.000  C
  C13      1.0000 0.75970  0.11860  0.60054  Biso   1.000  C
  C14      1.0000 0.24030  0.88140  0.39946  Biso   1.000  C
  C15      1.0000 0.65360  0.04260  0.56680  Biso   1.000  C
  C16      1.0000 0.34640  0.95740  0.43320  Biso   1.000  C
  H9       1.0000 0.58860  0.05300  0.56330  Biso   1.000  H
  H10      1.0000 0.41140  0.94700  0.43670  Biso   1.000  H
  C17      1.0000 0.64600  0.95130  0.53850  Biso   1.000  C
  C18      1.0000 0.35400  0.04870  0.46150  Biso   1.000  C
  H11      1.0000 0.57500  0.90070  0.51650  Biso   1.000  H
  H12      1.0000 0.42500  0.09930  0.48350  Biso   1.000  H
  C19      1.0000 0.74080  0.93301  0.54200  Biso   1.000  C
  C20      1.0000 0.25920  0.06699  0.45800  Biso   1.000  C
  C21      1.0000 0.84400  0.00910  0.57648  Biso   1.000  C
  C22      1.0000 0.15600  0.99090  0.42352  Biso   1.000  C
  H13      1.0000 0.90890  0.99860  0.58080  Biso   1.000  H
  H14      1.0000 0.09110  0.00140  0.41920  Biso   1.000  H
  C23      1.0000 0.85400  0.10110  0.60504  Biso   1.000  C
  C24      1.0000 0.14600  0.89890  0.39496  Biso   1.000  C
  H15      1.0000 0.92520  0.15130  0.62740  Biso   1.000  H
  H16      1.0000 0.07480  0.84870  0.37260  Biso   1.000  H
  C25      1.0000 0.73110  0.83310  0.50660  Biso   1.000  C
  C26      1.0000 0.26890  0.16690  0.49340  Biso   1.000  C
  H17      1.0000 0.79080  0.82690  0.53890  Biso   1.000  H
  H18      1.0000 0.20920  0.17310  0.46110  Biso   1.000  H
  H19      1.0000 0.65910  0.78860  0.51230  Biso   1.000  H
  H20      1.0000 0.34090  0.21140  0.48770  Biso   1.000  H
  C27      1.0000 0.73980  0.80848  0.41479  Biso   1.000  C
  C28      1.0000 0.26020  0.19152  0.58521  Biso   1.000  C
  C29      1.0000 0.64600  0.75450  0.35160  Biso   1.000  C
  C30      1.0000 0.35400  0.24550  0.64840  Biso   1.000  C
  H21      1.0000 0.57560  0.72940  0.36570  Biso   1.000  H
  H22      1.0000 0.42440  0.27060  0.63430  Biso   1.000  H
  C31      1.0000 0.65250  0.73610  0.26750  Biso   1.000  C
  C32      1.0000 0.34750  0.26390  0.73250  Biso   1.000  C
  H23      1.0000 0.58700  0.69920  0.22600  Biso   1.000  H
  H24      1.0000 0.41300  0.30080  0.77400  Biso   1.000  H
  C33      1.0000 0.75550  0.77230  0.24531  Biso   1.000  C
  C34      1.0000 0.24450  0.22770  0.75469  Biso   1.000  C
  C35      1.0000 0.84980  0.82440  0.30769  Biso   1.000  C
  C36      1.0000 0.15020  0.17560  0.69231  Biso   1.000  C
  H25      1.0000 0.92040  0.84840  0.29360  Biso   1.000  H
  H26      1.0000 0.07960  0.15160  0.70640  Biso   1.000  H
  C37      1.0000 0.84210  0.84190  0.39119  Biso   1.000  C
  C38      1.0000 0.15790  0.15810  0.60881  Biso   1.000  C
  H27      1.0000 0.90790  0.87730  0.43260  Biso   1.000  H
  H28      1.0000 0.09210  0.12270  0.56740  Biso   1.000  H
  C39      1.0000 0.69070  0.72170  0.09048  Biso   1.000  C
  C40      1.0000 0.30930  0.27830  0.90952  Biso   1.000  C
  C41      1.0000 0.73310  0.71740  0.00909  Biso   1.000  C
  C42      1.0000 0.26690  0.28260  0.99091  Biso   1.000  C
  C43      1.0000 0.66480  0.71640  0.94171  Biso   1.000  C
  C44      1.0000 0.33520  0.28360  0.05829  Biso   1.000  C
  H29      1.0000 0.59690  0.72080  0.94800  Biso   1.000  H
  H30      1.0000 0.40310  0.27920  0.05200  Biso   1.000  H
  C45      1.0000 0.69730  0.70920  0.86613  Biso   1.000  C
  C46      1.0000 0.30270  0.29080  0.13387  Biso   1.000  C
  H31      1.0000 0.65060  0.70930  0.82170  Biso   1.000  H
  H32      1.0000 0.34940  0.29070  0.17830  Biso   1.000  H
  C47      1.0000 0.85850  0.70250  0.91739  Biso   1.000  C
  C48      1.0000 0.14150  0.29750  0.08261  Biso   1.000  C
  H33      1.0000 0.92540  0.69710  0.90920  Biso   1.000  H
  H34      1.0000 0.07460  0.30290  0.09080  Biso   1.000  H
  C49      1.0000 0.83240  0.71080  0.99578  Biso   1.000  C
  C50      1.0000 0.16760  0.28920  0.00422  Biso   1.000  C
  H35      1.0000 0.88160  0.71200  0.03950  Biso   1.000  H
  H36      1.0000 0.11840  0.28800  0.96050  Biso   1.000  H
  C51      1.0000 0.76570  0.59860  0.55224  Biso   1.000  C
  C52      1.0000 0.23430  0.40140  0.44776  Biso   1.000  C
  H37      1.0000 0.70240  0.55770  0.56610  Biso   1.000  H
  H38      1.0000 0.29760  0.44230  0.43390  Biso   1.000  H
  C53      1.0000 0.77130  0.58340  0.46833  Biso   1.000  C
  C54      1.0000 0.22870  0.41660  0.53167  Biso   1.000  C
  H39      1.0000 0.71270  0.53300  0.42710  Biso   1.000  H
  H40      1.0000 0.28730  0.46700  0.57290  Biso   1.000  H
  C55      1.0000 0.86290  0.64236  0.44548  Biso   1.000  C
  C56      1.0000 0.13710  0.35764  0.55452  Biso   1.000  C
  C57      1.0000 0.94700  0.71420  0.50982  Biso   1.000  C
  C58      1.0000 0.05300  0.28580  0.49018  Biso   1.000  C
  H41      1.0000 0.01170  0.75540  0.49780  Biso   1.000  H
  H42      1.0000 0.98830  0.24460  0.50220  Biso   1.000  H
  C59      1.0000 0.93560  0.72530  0.59191  Biso   1.000  C
  C60      1.0000 0.06440  0.27470  0.40809  Biso   1.000  C
  H43      1.0000 0.99350  0.77500  0.63420  Biso   1.000  H
  H44      1.0000 0.00650  0.22500  0.36580  Biso   1.000  H
  C61      1.0000 0.87690  0.62945  0.35556  Biso   1.000  C
  C62      1.0000 0.12310  0.37055  0.64444  Biso   1.000  C
  C63      1.0000 0.77040  0.54894  0.20760  Biso   1.000  C
  C64      1.0000 0.22960  0.45106  0.79240  Biso   1.000  C
  C65      1.0000 0.66360  0.51300  0.15972  Biso   1.000  C
  C66      1.0000 0.33640  0.48700  0.84028  Biso   1.000  C
  H45      1.0000 0.60270  0.50940  0.18610  Biso   1.000  H
  H46      1.0000 0.39730  0.49060  0.81390  Biso   1.000  H
  C67      1.0000 0.64570  0.48200  0.07238  Biso   1.000  C
  C68      1.0000 0.35430  0.51800  0.92762  Biso   1.000  C
  H47      1.0000 0.57260  0.45710  0.04110  Biso   1.000  H
  H48      1.0000 0.42740  0.54290  0.95890  Biso   1.000  H
  C69      1.0000 0.73300  0.48720  0.03141  Biso   1.000  C
  C70      1.0000 0.26700  0.51280  0.96859  Biso   1.000  C
  C71      1.0000 0.83990  0.52500  0.08041  Biso   1.000  C
  C72      1.0000 0.16010  0.47500  0.91959  Biso   1.000  C
  H49      1.0000 0.90070  0.52920  0.05390  Biso   1.000  H
  H50      1.0000 0.09930  0.47080  0.94610  Biso   1.000  H
  C73      1.0000 0.86020  0.55700  0.16764  Biso   1.000  C
  C74      1.0000 0.13980  0.44300  0.83236  Biso   1.000  C
  H51      1.0000 0.93360  0.58370  0.19890  Biso   1.000  H
  H52      1.0000 0.06640  0.41630  0.80110  Biso   1.000  H
  C75      1.0000 0.71330  0.45100  0.93606  Biso   1.000  C
  C76      1.0000 0.28670  0.54900  0.06394  Biso   1.000  C
  H53      1.0000 0.76330  0.50030  0.91660  Biso   1.000  H
  H54      1.0000 0.23670  0.49970  0.08340  Biso   1.000  H
  H55      1.0000 0.63590  0.43650  0.91260  Biso   1.000  H
  H56      1.0000 0.36410  0.56350  0.08740  Biso   1.000  H
  C77      1.0000 0.73410  0.36280  0.90453  Biso   1.000  C
  C78      1.0000 0.26590  0.63720  0.09547  Biso   1.000  C
  C79      1.0000 0.65420  0.27620  0.90120  Biso   1.000  C
  C80      1.0000 0.34580  0.72380  0.09880  Biso   1.000  C
  H57      1.0000 0.58550  0.27130  0.91590  Biso   1.000  H
  H58      1.0000 0.41450  0.72870  0.08410  Biso   1.000  H
  C81      1.0000 0.67400  0.19520  0.87630  Biso   1.000  C
  C82      1.0000 0.32600  0.80480  0.12370  Biso   1.000  C
  H59      1.0000 0.61890  0.13700  0.87480  Biso   1.000  H
  H60      1.0000 0.38110  0.86300  0.12520  Biso   1.000  H
  C83      1.0000 0.77590  0.20110  0.85362  Biso   1.000  C
  C84      1.0000 0.22410  0.79890  0.14638  Biso   1.000  C
  C85      1.0000 0.85530  0.28720  0.85530  Biso   1.000  C
  C86      1.0000 0.14470  0.71280  0.14470  Biso   1.000  C
  H61      1.0000 0.92340  0.29220  0.83940  Biso   1.000  H
  H62      1.0000 0.07660  0.70780  0.16060  Biso   1.000  H
  C87      1.0000 0.83380  0.36710  0.88084  Biso   1.000  C
  C88      1.0000 0.16620  0.63290  0.11916  Biso   1.000  C
  H63      1.0000 0.88870  0.42520  0.88190  Biso   1.000  H
  H64      1.0000 0.11130  0.57480  0.11810  Biso   1.000  H
  C89      1.0000 0.88520  0.10560  0.82062  Biso   1.000  C
  C90      1.0000 0.11480  0.89440  0.17938  Biso   1.000  C
  C91      1.0000 0.87320  0.00590  0.79602  Biso   1.000  C
  C92      1.0000 0.12680  0.99410  0.20398  Biso   1.000  C
  C93      1.0000 0.77720  0.92920  0.74229  Biso   1.000  C
  C94      1.0000 0.22280  0.07080  0.25771  Biso   1.000  C
  H65      1.0000 0.71680  0.93830  0.71960  Biso   1.000  H
  H66      1.0000 0.28320  0.06170  0.28040  Biso   1.000  H
  C95      1.0000 0.77420  0.83980  0.72372  Biso   1.000  C
  C96      1.0000 0.22580  0.16020  0.27628  Biso   1.000  C
  H67      1.0000 0.71070  0.78920  0.68700  Biso   1.000  H
  H68      1.0000 0.28930  0.21080  0.31300  Biso   1.000  H
  C97      1.0000 0.94880  0.89550  0.80400  Biso   1.000  C
  C98      1.0000 0.05120  0.10450  0.19600  Biso   1.000  C
  H69      1.0000 0.00830  0.88450  0.82530  Biso   1.000  H
  H70      1.0000 0.99170  0.11550  0.17470  Biso   1.000  H
  C99      1.0000 0.96020  0.98710  0.82450  Biso   1.000  C
  C100     1.0000 0.03980  0.01290  0.17550  Biso   1.000  C
  H71      1.0000 0.02720  0.03670  0.85790  Biso   1.000  H
  H72      1.0000 0.97280  0.96330  0.14210  Biso   1.000  H
  C101     1.0000 0.10210  0.72060  0.78090  Biso   1.000  C
  C102     1.0000 0.89790  0.27940  0.21910  Biso   1.000  C
  H73      1.0000 0.10770  0.69830  0.72510  Biso   1.000  H
  H74      1.0000 0.89230  0.30170  0.27490  Biso   1.000  H
  C103     1.0000 0.28080  0.70820  0.81030  Biso   1.000  C
  C104     1.0000 0.71920  0.29180  0.18970  Biso   1.000  C
  H75      1.0000 0.34870  0.76440  0.81860  Biso   1.000  H
  H76      1.0000 0.65130  0.23560  0.18140  Biso   1.000  H
  H77      1.0000 0.25910  0.66980  0.75200  Biso   1.000  H
  H78      1.0000 0.74090  0.33020  0.24800  Biso   1.000  H
  H79      1.0000 0.29430  0.67300  0.84430  Biso   1.000  H
  H80      1.0000 0.70570  0.32700  0.15570  Biso   1.000  H
  C105     1.0000 0.16800  0.71800  0.90570  Biso   1.000  C
  C106     1.0000 0.83200  0.28200  0.09430  Biso   1.000  C
  H81      1.0000 0.10770  0.73480  0.92060  Biso   1.000  H
  H82      1.0000 0.89230  0.26520  0.07940  Biso   1.000  H
  H83      1.0000 0.23430  0.75540  0.94990  Biso   1.000  H
  H84      1.0000 0.76570  0.24460  0.05010  Biso   1.000  H
  H85      1.0000 0.14580  0.65190  0.89820  Biso   1.000  H
  H86      1.0000 0.85420  0.34810  0.10180  Biso   1.000  H
  N1       1.0000 0.79850  0.54875  0.71752  Biso   1.000  N
  N2       1.0000 0.20150  0.45125  0.28248  Biso   1.000  N
  N3       1.0000 0.77660  0.21511  0.62920  Biso   1.000  N
  N4       1.0000 0.22340  0.78489  0.37080  Biso   1.000  N
  H87      1.0000 0.84500  0.25690  0.63740  Biso   1.000  H
  H88      1.0000 0.15500  0.74310  0.36260  Biso   1.000  H
  N5       1.0000 0.77050  0.75688  0.16037  Biso   1.000  N
  N6       1.0000 0.22950  0.24312  0.83963  Biso   1.000  N
  H89      1.0000 0.83900  0.77200  0.15320  Biso   1.000  H
  H90      1.0000 0.16100  0.22800  0.84680  Biso   1.000  H
  N7       1.0000 0.79370  0.70183  0.85293  Biso   1.000  N
  N8       1.0000 0.20630  0.29817  0.14707  Biso   1.000  N
  N9       1.0000 0.84700  0.66941  0.61427  Biso   1.000  N
  N10      1.0000 0.15300  0.33059  0.38573  Biso   1.000  N
  N11      1.0000 0.78201  0.57613  0.29677  Biso   1.000  N
  N12      1.0000 0.21799  0.42387  0.70323  Biso   1.000  N
  H91      1.0000 0.72040  0.55580  0.31510  Biso   1.000  H
  H92      1.0000 0.27960  0.44420  0.68490  Biso   1.000  H
  N13      1.0000 0.78940  0.11608  0.82894  Biso   1.000  N
  N14      1.0000 0.21060  0.88392  0.17106  Biso   1.000  N
  H93      1.0000 0.72870  0.06460  0.81790  Biso   1.000  H
  H94      1.0000 0.27130  0.93540  0.18210  Biso   1.000  H
  N15      1.0000 0.85600  0.82151  0.75476  Biso   1.000  N
  N16      1.0000 0.14400  0.17849  0.24524  Biso   1.000  N
  N17      1.0000 0.19130  0.73450  0.83440  Biso   1.000  N
  N18      1.0000 0.80870  0.26550  0.16560  Biso   1.000  N
  O1       1.0000 0.59850  0.19902  0.63690  Biso   1.000  O
  O2       1.0000 0.40150  0.80098  0.36310  Biso   1.000  O
  O3       1.0000 0.58976  0.69420  0.08869  Biso   1.000  O
  O4       1.0000 0.41024  0.30580  0.91131  Biso   1.000  O
  O5       1.0000 0.97113  0.66638  0.34034  Biso   1.000  O
  O6       1.0000 0.02887  0.33362  0.65966  Biso   1.000  O
  O7       1.0000 0.97797  0.17154  0.83199  Biso   1.000  O
  O8       1.0000 0.02203  0.82846  0.16801  Biso   1.000  O
  O9       1.0000 0.02120  0.72899  0.78609  Biso   1.000  O
  O10      1.0000 0.97880  0.27101  0.21391  Biso   1.000  O
  N19      1.0000 0.50430  0.56970  0.67520  Biso   1.000  N
  N20      1.0000 0.49570  0.43030  0.32480  Biso   1.000  N
  O11      1.0000 0.60120  0.61870  0.66977  Biso   1.000  O
  O12      1.0000 0.39880  0.38130  0.33023  Biso   1.000  O
  O13      1.0000 0.46140  0.48950  0.66900  Biso   1.000  O
  O14      1.0000 0.53860  0.51050  0.33100  Biso   1.000  O
  O15      1.0000 0.44240  0.61090  0.70310  Biso   1.000  O
  O16      1.0000 0.55760  0.38910  0.29690  Biso   1.000  O
  N21      1.0000 0.69030  0.00710  0.28930  Biso   1.000  N
  N22      1.0000 0.30970  0.99290  0.71070  Biso   1.000  N
  O17      1.0000 0.59090  0.94610  0.29940  Biso   1.000  O
  O18      1.0000 0.40910  0.05390  0.70060  Biso   1.000  O
  O19      1.0000 0.72860  0.00550  0.20450  Biso   1.000  O
  O20      1.0000 0.27140  0.99450  0.79550  Biso   1.000  O
  O21      1.0000 0.80250  0.03710  0.34470  Biso   1.000  O
  O22      1.0000 0.19750  0.96290  0.65530  Biso   1.000  O
