data_image0
_cell_length_a       25.987
_cell_length_b       19.128
_cell_length_c       15.5
_cell_angle_alpha    90
_cell_angle_beta     121.353
_cell_angle_gamma    90

_symmetry_space_group_name_H-M    "P 1"
_symmetry_int_tables_number       1

loop_
  _symmetry_equiv_pos_as_xyz
  'x, y, z'

loop_
  _atom_site_label
  _atom_site_occupancy
  _atom_site_fract_x
  _atom_site_fract_y
  _atom_site_fract_z
  _atom_site_thermal_displace_type
  _atom_site_B_iso_or_equiv
  _atom_site_type_symbol
  Cu1      1.0000 0.00000  0.10563  0.75000  Biso   1.000  Cu
  Cu2      1.0000 0.50000  0.60563  0.75000  Biso   1.000  Cu
  Cu3      1.0000 0.00000  0.89437  0.25000  Biso   1.000  Cu
  Cu4      1.0000 0.50000  0.39437  0.25000  Biso   1.000  Cu
  Cl1      1.0000 0.05849  0.11164  0.63823  Biso   1.000  Cl
  Cl2      1.0000 0.94151  0.11164  0.86177  Biso   1.000  Cl
  Cl3      1.0000 0.55849  0.61164  0.63823  Biso   1.000  Cl
  Cl4      1.0000 0.44151  0.61164  0.86177  Biso   1.000  Cl
  Cl5      1.0000 0.94151  0.88836  0.36177  Biso   1.000  Cl
  Cl6      1.0000 0.05849  0.88836  0.13823  Biso   1.000  Cl
  Cl7      1.0000 0.44151  0.38836  0.36177  Biso   1.000  Cl
  Cl8      1.0000 0.55849  0.38836  0.13823  Biso   1.000  Cl
  N1       1.0000 0.94196  0.17998  0.65540  Biso   1.000  N
  N2       1.0000 0.05804  0.17998  0.84460  Biso   1.000  N
  N3       1.0000 0.44196  0.67998  0.65540  Biso   1.000  N
  N4       1.0000 0.55804  0.67998  0.84460  Biso   1.000  N
  N5       1.0000 0.05804  0.82002  0.34460  Biso   1.000  N
  N6       1.0000 0.94196  0.82002  0.15540  Biso   1.000  N
  N7       1.0000 0.55804  0.32002  0.34460  Biso   1.000  N
  N8       1.0000 0.44196  0.32002  0.15540  Biso   1.000  N
  N9       1.0000 0.82638  0.36727  0.39220  Biso   1.000  N
  N10      1.0000 0.17362  0.36727  0.10780  Biso   1.000  N
  N11      1.0000 0.32638  0.86727  0.39220  Biso   1.000  N
  N12      1.0000 0.67362  0.86727  0.10780  Biso   1.000  N
  N13      1.0000 0.17362  0.63273  0.60780  Biso   1.000  N
  N14      1.0000 0.82638  0.63273  0.89220  Biso   1.000  N
  N15      1.0000 0.67362  0.13273  0.60780  Biso   1.000  N
  N16      1.0000 0.32638  0.13273  0.89220  Biso   1.000  N
  H1       1.0000 0.84670  0.33850  0.38000  Biso   1.000  H
  H2       1.0000 0.15330  0.33850  0.12000  Biso   1.000  H
  H3       1.0000 0.34670  0.83850  0.38000  Biso   1.000  H
  H4       1.0000 0.65330  0.83850  0.12000  Biso   1.000  H
  H5       1.0000 0.15330  0.66150  0.62000  Biso   1.000  H
  H6       1.0000 0.84670  0.66150  0.88000  Biso   1.000  H
  H7       1.0000 0.65330  0.16150  0.62000  Biso   1.000  H
  H8       1.0000 0.34670  0.16150  0.88000  Biso   1.000  H
  N17      1.0000 0.83033  0.83904  0.40020  Biso   1.000  N
  N18      1.0000 0.16967  0.83904  0.09980  Biso   1.000  N
  N19      1.0000 0.33033  0.33904  0.40020  Biso   1.000  N
  N20      1.0000 0.66967  0.33904  0.09980  Biso   1.000  N
  N21      1.0000 0.16967  0.16096  0.59980  Biso   1.000  N
  N22      1.0000 0.83033  0.16096  0.90020  Biso   1.000  N
  N23      1.0000 0.66967  0.66096  0.59980  Biso   1.000  N
  N24      1.0000 0.33033  0.66096  0.90020  Biso   1.000  N
  H9       1.0000 0.85100  0.86860  0.38300  Biso   1.000  H
  H10      1.0000 0.14900  0.86860  0.11700  Biso   1.000  H
  H11      1.0000 0.35100  0.36860  0.38300  Biso   1.000  H
  H12      1.0000 0.64900  0.36860  0.11700  Biso   1.000  H
  H13      1.0000 0.14900  0.13140  0.61700  Biso   1.000  H
  H14      1.0000 0.85100  0.13140  0.88300  Biso   1.000  H
  H15      1.0000 0.64900  0.63140  0.61700  Biso   1.000  H
  H16      1.0000 0.35100  0.63140  0.88300  Biso   1.000  H
  N25      1.0000 0.94285  0.02907  0.65980  Biso   1.000  N
  N26      1.0000 0.05715  0.02907  0.84020  Biso   1.000  N
  N27      1.0000 0.44285  0.52907  0.65980  Biso   1.000  N
  N28      1.0000 0.55715  0.52907  0.84020  Biso   1.000  N
  N29      1.0000 0.05715  0.97093  0.34020  Biso   1.000  N
  N30      1.0000 0.94285  0.97093  0.15980  Biso   1.000  N
  N31      1.0000 0.55715  0.47093  0.34020  Biso   1.000  N
  N32      1.0000 0.44285  0.47093  0.15980  Biso   1.000  N
  O1       1.0000 0.77855  0.35479  0.47990  Biso   1.000  O
  O2       1.0000 0.22145  0.35479  0.02010  Biso   1.000  O
  O3       1.0000 0.27855  0.85479  0.47990  Biso   1.000  O
  O4       1.0000 0.72145  0.85479  0.02010  Biso   1.000  O
  O5       1.0000 0.22145  0.64521  0.52010  Biso   1.000  O
  O6       1.0000 0.77855  0.64521  0.97990  Biso   1.000  O
  O7       1.0000 0.72145  0.14521  0.52010  Biso   1.000  O
  O8       1.0000 0.27855  0.14521  0.97990  Biso   1.000  O
  O9       1.0000 0.79270  0.83880  0.50310  Biso   1.000  O
  O10      1.0000 0.20730  0.83880  0.99690  Biso   1.000  O
  O11      1.0000 0.29270  0.33880  0.50310  Biso   1.000  O
  O12      1.0000 0.70730  0.33880  0.99690  Biso   1.000  O
  O13      1.0000 0.20730  0.16120  0.49690  Biso   1.000  O
  O14      1.0000 0.79270  0.16120  0.00310  Biso   1.000  O
  O15      1.0000 0.70730  0.66120  0.49690  Biso   1.000  O
  O16      1.0000 0.29270  0.66120  0.00310  Biso   1.000  O
  C1       1.0000 0.96060  0.23230  0.62140  Biso   1.000  C
  C2       1.0000 0.03940  0.23230  0.87860  Biso   1.000  C
  C3       1.0000 0.46060  0.73230  0.62140  Biso   1.000  C
  C4       1.0000 0.53940  0.73230  0.87860  Biso   1.000  C
  C5       1.0000 0.03940  0.76770  0.37860  Biso   1.000  C
  C6       1.0000 0.96060  0.76770  0.12140  Biso   1.000  C
  C7       1.0000 0.53940  0.26770  0.37860  Biso   1.000  C
  C8       1.0000 0.46060  0.26770  0.12140  Biso   1.000  C
  H17      1.0000 0.00110  0.23450  0.64180  Biso   1.000  H
  H18      1.0000 0.99890  0.23450  0.85820  Biso   1.000  H
  H19      1.0000 0.50110  0.73450  0.64180  Biso   1.000  H
  H20      1.0000 0.49890  0.73450  0.85820  Biso   1.000  H
  H21      1.0000 0.99890  0.76550  0.35820  Biso   1.000  H
  H22      1.0000 0.00110  0.76550  0.14180  Biso   1.000  H
  H23      1.0000 0.49890  0.26550  0.35820  Biso   1.000  H
  H24      1.0000 0.50110  0.26550  0.14180  Biso   1.000  H
  C9       1.0000 0.92240  0.28340  0.55760  Biso   1.000  C
  C10      1.0000 0.07760  0.28340  0.94240  Biso   1.000  C
  C11      1.0000 0.42240  0.78340  0.55760  Biso   1.000  C
  C12      1.0000 0.57760  0.78340  0.94240  Biso   1.000  C
  C13      1.0000 0.07760  0.71660  0.44240  Biso   1.000  C
  C14      1.0000 0.92240  0.71660  0.05760  Biso   1.000  C
  C15      1.0000 0.57760  0.21660  0.44240  Biso   1.000  C
  C16      1.0000 0.42240  0.21660  0.05760  Biso   1.000  C
  H25      1.0000 0.93730  0.31900  0.53570  Biso   1.000  H
  H26      1.0000 0.06270  0.31900  0.96430  Biso   1.000  H
  H27      1.0000 0.43730  0.81900  0.53570  Biso   1.000  H
  H28      1.0000 0.56270  0.81900  0.96430  Biso   1.000  H
  H29      1.0000 0.06270  0.68100  0.46430  Biso   1.000  H
  H30      1.0000 0.93730  0.68100  0.03570  Biso   1.000  H
  H31      1.0000 0.56270  0.18100  0.46430  Biso   1.000  H
  H32      1.0000 0.43730  0.18100  0.03570  Biso   1.000  H
  C17      1.0000 0.86210  0.28150  0.52620  Biso   1.000  C
  C18      1.0000 0.13790  0.28150  0.97380  Biso   1.000  C
  C19      1.0000 0.36210  0.78150  0.52620  Biso   1.000  C
  C20      1.0000 0.63790  0.78150  0.97380  Biso   1.000  C
  C21      1.0000 0.13790  0.71850  0.47380  Biso   1.000  C
  C22      1.0000 0.86210  0.71850  0.02620  Biso   1.000  C
  C23      1.0000 0.63790  0.21850  0.47380  Biso   1.000  C
  C24      1.0000 0.36210  0.21850  0.02620  Biso   1.000  C
  C25      1.0000 0.84295  0.22670  0.56050  Biso   1.000  C
  C26      1.0000 0.15705  0.22670  0.93950  Biso   1.000  C
  C27      1.0000 0.34295  0.72670  0.56050  Biso   1.000  C
  C28      1.0000 0.65705  0.72670  0.93950  Biso   1.000  C
  C29      1.0000 0.15705  0.77330  0.43950  Biso   1.000  C
  C30      1.0000 0.84295  0.77330  0.06050  Biso   1.000  C
  C31      1.0000 0.65705  0.27330  0.43950  Biso   1.000  C
  C32      1.0000 0.34295  0.27330  0.06050  Biso   1.000  C
  H33      1.0000 0.80260  0.22320  0.54070  Biso   1.000  H
  H34      1.0000 0.19740  0.22320  0.95930  Biso   1.000  H
  H35      1.0000 0.30260  0.72320  0.54070  Biso   1.000  H
  H36      1.0000 0.69740  0.72320  0.95930  Biso   1.000  H
  H37      1.0000 0.19740  0.77680  0.45930  Biso   1.000  H
  H38      1.0000 0.80260  0.77680  0.04070  Biso   1.000  H
  H39      1.0000 0.69740  0.27680  0.45930  Biso   1.000  H
  H40      1.0000 0.30260  0.27680  0.04070  Biso   1.000  H
  C33      1.0000 0.88318  0.17770  0.62360  Biso   1.000  C
  C34      1.0000 0.11682  0.17770  0.87640  Biso   1.000  C
  C35      1.0000 0.38318  0.67770  0.62360  Biso   1.000  C
  C36      1.0000 0.61682  0.67770  0.87640  Biso   1.000  C
  C37      1.0000 0.11682  0.82230  0.37640  Biso   1.000  C
  C38      1.0000 0.88318  0.82230  0.12360  Biso   1.000  C
  C39      1.0000 0.61682  0.32230  0.37640  Biso   1.000  C
  C40      1.0000 0.38318  0.32230  0.12360  Biso   1.000  C
  H41      1.0000 0.86920  0.14110  0.64550  Biso   1.000  H
  H42      1.0000 0.13080  0.14110  0.85450  Biso   1.000  H
  H43      1.0000 0.36920  0.64110  0.64550  Biso   1.000  H
  H44      1.0000 0.63080  0.64110  0.85450  Biso   1.000  H
  H45      1.0000 0.13080  0.85890  0.35450  Biso   1.000  H
  H46      1.0000 0.86920  0.85890  0.14550  Biso   1.000  H
  H47      1.0000 0.63080  0.35890  0.35450  Biso   1.000  H
  H48      1.0000 0.36920  0.35890  0.14550  Biso   1.000  H
  C41      1.0000 0.81800  0.33810  0.46330  Biso   1.000  C
  C42      1.0000 0.18200  0.33810  0.03670  Biso   1.000  C
  C43      1.0000 0.31800  0.83810  0.46330  Biso   1.000  C
  C44      1.0000 0.68200  0.83810  0.03670  Biso   1.000  C
  C45      1.0000 0.18200  0.66190  0.53670  Biso   1.000  C
  C46      1.0000 0.81800  0.66190  0.96330  Biso   1.000  C
  C47      1.0000 0.68200  0.16190  0.53670  Biso   1.000  C
  C48      1.0000 0.31800  0.16190  0.96330  Biso   1.000  C
  C49      1.0000 0.79420  0.42320  0.32810  Biso   1.000  C
  C50      1.0000 0.20580  0.42320  0.17190  Biso   1.000  C
  C51      1.0000 0.29420  0.92320  0.32810  Biso   1.000  C
  C52      1.0000 0.70580  0.92320  0.17190  Biso   1.000  C
  C53      1.0000 0.20580  0.57680  0.67190  Biso   1.000  C
  C54      1.0000 0.79420  0.57680  0.82810  Biso   1.000  C
  C55      1.0000 0.70580  0.07680  0.67190  Biso   1.000  C
  C56      1.0000 0.29420  0.07680  0.82810  Biso   1.000  C
  C57      1.0000 0.74530  0.45480  0.32280  Biso   1.000  C
  C58      1.0000 0.25470  0.45480  0.17720  Biso   1.000  C
  C59      1.0000 0.24530  0.95480  0.32280  Biso   1.000  C
  C60      1.0000 0.75470  0.95480  0.17720  Biso   1.000  C
  C61      1.0000 0.25470  0.54520  0.67720  Biso   1.000  C
  C62      1.0000 0.74530  0.54520  0.82280  Biso   1.000  C
  C63      1.0000 0.75470  0.04520  0.67720  Biso   1.000  C
  C64      1.0000 0.24530  0.04520  0.82280  Biso   1.000  C
  H49      1.0000 0.73020  0.43770  0.36140  Biso   1.000  H
  H50      1.0000 0.26980  0.43770  0.13860  Biso   1.000  H
  H51      1.0000 0.23020  0.93770  0.36140  Biso   1.000  H
  H52      1.0000 0.76980  0.93770  0.13860  Biso   1.000  H
  H53      1.0000 0.26980  0.56230  0.63860  Biso   1.000  H
  H54      1.0000 0.73020  0.56230  0.86140  Biso   1.000  H
  H55      1.0000 0.76980  0.06230  0.63860  Biso   1.000  H
  H56      1.0000 0.23020  0.06230  0.86140  Biso   1.000  H
  C65      1.0000 0.71820  0.51210  0.26030  Biso   1.000  C
  C66      1.0000 0.28180  0.51210  0.23970  Biso   1.000  C
  C67      1.0000 0.21820  0.01210  0.26030  Biso   1.000  C
  C68      1.0000 0.78180  0.01210  0.23970  Biso   1.000  C
  C69      1.0000 0.28180  0.48790  0.73970  Biso   1.000  C
  C70      1.0000 0.71820  0.48790  0.76030  Biso   1.000  C
  C71      1.0000 0.78180  0.98790  0.73970  Biso   1.000  C
  C72      1.0000 0.21820  0.98790  0.76030  Biso   1.000  C
  H57      1.0000 0.68520  0.53270  0.25830  Biso   1.000  H
  H58      1.0000 0.31480  0.53270  0.24170  Biso   1.000  H
  H59      1.0000 0.18520  0.03270  0.25830  Biso   1.000  H
  H60      1.0000 0.81480  0.03270  0.24170  Biso   1.000  H
  H61      1.0000 0.31480  0.46730  0.74170  Biso   1.000  H
  H62      1.0000 0.68520  0.46730  0.75830  Biso   1.000  H
  H63      1.0000 0.81480  0.96730  0.74170  Biso   1.000  H
  H64      1.0000 0.18520  0.96730  0.75830  Biso   1.000  H
  C73      1.0000 0.73840  0.53950  0.20160  Biso   1.000  C
  C74      1.0000 0.26160  0.53950  0.29840  Biso   1.000  C
  C75      1.0000 0.23840  0.03950  0.20160  Biso   1.000  C
  C76      1.0000 0.76160  0.03950  0.29840  Biso   1.000  C
  C77      1.0000 0.26160  0.46050  0.79840  Biso   1.000  C
  C78      1.0000 0.73840  0.46050  0.70160  Biso   1.000  C
  C79      1.0000 0.76160  0.96050  0.79840  Biso   1.000  C
  C80      1.0000 0.23840  0.96050  0.70160  Biso   1.000  C
  C81      1.0000 0.78460  0.50540  0.20270  Biso   1.000  C
  C82      1.0000 0.21540  0.50540  0.29730  Biso   1.000  C
  C83      1.0000 0.28460  0.00540  0.20270  Biso   1.000  C
  C84      1.0000 0.71540  0.00540  0.29730  Biso   1.000  C
  C85      1.0000 0.21540  0.49460  0.79730  Biso   1.000  C
  C86      1.0000 0.78460  0.49460  0.70270  Biso   1.000  C
  C87      1.0000 0.71540  0.99460  0.79730  Biso   1.000  C
  C88      1.0000 0.28460  0.99460  0.70270  Biso   1.000  C
  H65      1.0000 0.79790  0.52100  0.16080  Biso   1.000  H
  H66      1.0000 0.20210  0.52100  0.33920  Biso   1.000  H
  H67      1.0000 0.29790  0.02100  0.16080  Biso   1.000  H
  H68      1.0000 0.70210  0.02100  0.33920  Biso   1.000  H
  H69      1.0000 0.20210  0.47900  0.83920  Biso   1.000  H
  H70      1.0000 0.79790  0.47900  0.66080  Biso   1.000  H
  H71      1.0000 0.70210  0.97900  0.83920  Biso   1.000  H
  H72      1.0000 0.29790  0.97900  0.66080  Biso   1.000  H
  C89      1.0000 0.81240  0.44820  0.26450  Biso   1.000  C
  C90      1.0000 0.18760  0.44820  0.23550  Biso   1.000  C
  C91      1.0000 0.31240  0.94820  0.26450  Biso   1.000  C
  C92      1.0000 0.68760  0.94820  0.23550  Biso   1.000  C
  C93      1.0000 0.18760  0.55180  0.73550  Biso   1.000  C
  C94      1.0000 0.81240  0.55180  0.76450  Biso   1.000  C
  C95      1.0000 0.68760  0.05180  0.73550  Biso   1.000  C
  C96      1.0000 0.31240  0.05180  0.76450  Biso   1.000  C
  H73      1.0000 0.84390  0.42620  0.26320  Biso   1.000  H
  H74      1.0000 0.15610  0.42620  0.23680  Biso   1.000  H
  H75      1.0000 0.34390  0.92620  0.26320  Biso   1.000  H
  H76      1.0000 0.65610  0.92620  0.23680  Biso   1.000  H
  H77      1.0000 0.15610  0.57380  0.73680  Biso   1.000  H
  H78      1.0000 0.84390  0.57380  0.76320  Biso   1.000  H
  H79      1.0000 0.65610  0.07380  0.73680  Biso   1.000  H
  H80      1.0000 0.34390  0.07380  0.76320  Biso   1.000  H
  C97      1.0000 0.71120  0.60530  0.14030  Biso   1.000  C
  C98      1.0000 0.28880  0.60530  0.35970  Biso   1.000  C
  C99      1.0000 0.21120  0.10530  0.14030  Biso   1.000  C
  C100     1.0000 0.78880  0.10530  0.35970  Biso   1.000  C
  C101     1.0000 0.28880  0.39470  0.85970  Biso   1.000  C
  C102     1.0000 0.71120  0.39470  0.64030  Biso   1.000  C
  C103     1.0000 0.78880  0.89470  0.85970  Biso   1.000  C
  C104     1.0000 0.21120  0.89470  0.64030  Biso   1.000  C
  H81      1.0000 0.71690  0.60550  0.08330  Biso   1.000  H
  H82      1.0000 0.28310  0.60550  0.41670  Biso   1.000  H
  H83      1.0000 0.21690  0.10550  0.08330  Biso   1.000  H
  H84      1.0000 0.78310  0.10550  0.41670  Biso   1.000  H
  H85      1.0000 0.28310  0.39450  0.91670  Biso   1.000  H
  H86      1.0000 0.71690  0.39450  0.58330  Biso   1.000  H
  H87      1.0000 0.78310  0.89450  0.91670  Biso   1.000  H
  H88      1.0000 0.21690  0.89450  0.58330  Biso   1.000  H
  H89      1.0000 0.66820  0.60590  0.11420  Biso   1.000  H
  H90      1.0000 0.33180  0.60590  0.38580  Biso   1.000  H
  H91      1.0000 0.16820  0.10590  0.11420  Biso   1.000  H
  H92      1.0000 0.83180  0.10590  0.38580  Biso   1.000  H
  H93      1.0000 0.33180  0.39410  0.88580  Biso   1.000  H
  H94      1.0000 0.66820  0.39410  0.61420  Biso   1.000  H
  H95      1.0000 0.83180  0.89410  0.88580  Biso   1.000  H
  H96      1.0000 0.16820  0.89410  0.61420  Biso   1.000  H
  C105     1.0000 0.73980  0.66990  0.20390  Biso   1.000  C
  C106     1.0000 0.26020  0.66990  0.29610  Biso   1.000  C
  C107     1.0000 0.23980  0.16990  0.20390  Biso   1.000  C
  C108     1.0000 0.76020  0.16990  0.29610  Biso   1.000  C
  C109     1.0000 0.26020  0.33010  0.79610  Biso   1.000  C
  C110     1.0000 0.73980  0.33010  0.70390  Biso   1.000  C
  C111     1.0000 0.76020  0.83010  0.79610  Biso   1.000  C
  C112     1.0000 0.23980  0.83010  0.70390  Biso   1.000  C
  C113     1.0000 0.78900  0.70090  0.21170  Biso   1.000  C
  C114     1.0000 0.21100  0.70090  0.28830  Biso   1.000  C
  C115     1.0000 0.28900  0.20090  0.21170  Biso   1.000  C
  C116     1.0000 0.71100  0.20090  0.28830  Biso   1.000  C
  C117     1.0000 0.21100  0.29910  0.78830  Biso   1.000  C
  C118     1.0000 0.78900  0.29910  0.71170  Biso   1.000  C
  C119     1.0000 0.71100  0.79910  0.78830  Biso   1.000  C
  C120     1.0000 0.28900  0.79910  0.71170  Biso   1.000  C
  H97      1.0000 0.80390  0.68390  0.17270  Biso   1.000  H
  H98      1.0000 0.19610  0.68390  0.32730  Biso   1.000  H
  H99      1.0000 0.30390  0.18390  0.17270  Biso   1.000  H
  H100     1.0000 0.69610  0.18390  0.32730  Biso   1.000  H
  H101     1.0000 0.19610  0.31610  0.82730  Biso   1.000  H
  H102     1.0000 0.80390  0.31610  0.67270  Biso   1.000  H
  H103     1.0000 0.69610  0.81610  0.82730  Biso   1.000  H
  H104     1.0000 0.30390  0.81610  0.67270  Biso   1.000  H
  C121     1.0000 0.81800  0.75720  0.27570  Biso   1.000  C
  C122     1.0000 0.18200  0.75720  0.22430  Biso   1.000  C
  C123     1.0000 0.31800  0.25720  0.27570  Biso   1.000  C
  C124     1.0000 0.68200  0.25720  0.22430  Biso   1.000  C
  C125     1.0000 0.18200  0.24280  0.72430  Biso   1.000  C
  C126     1.0000 0.81800  0.24280  0.77570  Biso   1.000  C
  C127     1.0000 0.68200  0.74280  0.72430  Biso   1.000  C
  C128     1.0000 0.31800  0.74280  0.77570  Biso   1.000  C
  H105     1.0000 0.85140  0.77730  0.27840  Biso   1.000  H
  H106     1.0000 0.14860  0.77730  0.22160  Biso   1.000  H
  H107     1.0000 0.35140  0.27730  0.27840  Biso   1.000  H
  H108     1.0000 0.64860  0.27730  0.22160  Biso   1.000  H
  H109     1.0000 0.14860  0.22270  0.72160  Biso   1.000  H
  H110     1.0000 0.85140  0.22270  0.77840  Biso   1.000  H
  H111     1.0000 0.64860  0.72270  0.72160  Biso   1.000  H
  H112     1.0000 0.35140  0.72270  0.77840  Biso   1.000  H
  C129     1.0000 0.79750  0.78300  0.33460  Biso   1.000  C
  C130     1.0000 0.20250  0.78300  0.16540  Biso   1.000  C
  C131     1.0000 0.29750  0.28300  0.33460  Biso   1.000  C
  C132     1.0000 0.70250  0.28300  0.16540  Biso   1.000  C
  C133     1.0000 0.20250  0.21700  0.66540  Biso   1.000  C
  C134     1.0000 0.79750  0.21700  0.83460  Biso   1.000  C
  C135     1.0000 0.70250  0.71700  0.66540  Biso   1.000  C
  C136     1.0000 0.29750  0.71700  0.83460  Biso   1.000  C
  C137     1.0000 0.74650  0.75460  0.32510  Biso   1.000  C
  C138     1.0000 0.25350  0.75460  0.17490  Biso   1.000  C
  C139     1.0000 0.24650  0.25460  0.32510  Biso   1.000  C
  C140     1.0000 0.75350  0.25460  0.17490  Biso   1.000  C
  C141     1.0000 0.25350  0.24540  0.67490  Biso   1.000  C
  C142     1.0000 0.74650  0.24540  0.82510  Biso   1.000  C
  C143     1.0000 0.75350  0.74540  0.67490  Biso   1.000  C
  C144     1.0000 0.24650  0.74540  0.82510  Biso   1.000  C
  H113     1.0000 0.73060  0.77280  0.36190  Biso   1.000  H
  H114     1.0000 0.26940  0.77280  0.13810  Biso   1.000  H
  H115     1.0000 0.23060  0.27280  0.36190  Biso   1.000  H
  H116     1.0000 0.76940  0.27280  0.13810  Biso   1.000  H
  H117     1.0000 0.26940  0.22720  0.63810  Biso   1.000  H
  H118     1.0000 0.73060  0.22720  0.86190  Biso   1.000  H
  H119     1.0000 0.76940  0.72720  0.63810  Biso   1.000  H
  H120     1.0000 0.23060  0.72720  0.86190  Biso   1.000  H
  C145     1.0000 0.71850  0.69850  0.26050  Biso   1.000  C
  C146     1.0000 0.28150  0.69850  0.23950  Biso   1.000  C
  C147     1.0000 0.21850  0.19850  0.26050  Biso   1.000  C
  C148     1.0000 0.78150  0.19850  0.23950  Biso   1.000  C
  C149     1.0000 0.28150  0.30150  0.73950  Biso   1.000  C
  C150     1.0000 0.71850  0.30150  0.76050  Biso   1.000  C
  C151     1.0000 0.78150  0.80150  0.73950  Biso   1.000  C
  C152     1.0000 0.21850  0.80150  0.76050  Biso   1.000  C
  H121     1.0000 0.68410  0.67960  0.25540  Biso   1.000  H
  H122     1.0000 0.31590  0.67960  0.24460  Biso   1.000  H
  H123     1.0000 0.18410  0.17960  0.25540  Biso   1.000  H
  H124     1.0000 0.81590  0.17960  0.24460  Biso   1.000  H
  H125     1.0000 0.31590  0.32040  0.74460  Biso   1.000  H
  H126     1.0000 0.68410  0.32040  0.75540  Biso   1.000  H
  H127     1.0000 0.81590  0.82040  0.74460  Biso   1.000  H
  H128     1.0000 0.18410  0.82040  0.75540  Biso   1.000  H
  C153     1.0000 0.82720  0.86240  0.47910  Biso   1.000  C
  C154     1.0000 0.17280  0.86240  0.02090  Biso   1.000  C
  C155     1.0000 0.32720  0.36240  0.47910  Biso   1.000  C
  C156     1.0000 0.67280  0.36240  0.02090  Biso   1.000  C
  C157     1.0000 0.17280  0.13760  0.52090  Biso   1.000  C
  C158     1.0000 0.82720  0.13760  0.97910  Biso   1.000  C
  C159     1.0000 0.67280  0.63760  0.52090  Biso   1.000  C
  C160     1.0000 0.32720  0.63760  0.97910  Biso   1.000  C
  C161     1.0000 0.92800  0.02170  0.56450  Biso   1.000  C
  C162     1.0000 0.07200  0.02170  0.93550  Biso   1.000  C
  C163     1.0000 0.42800  0.52170  0.56450  Biso   1.000  C
  C164     1.0000 0.57200  0.52170  0.93550  Biso   1.000  C
  C165     1.0000 0.07200  0.97830  0.43550  Biso   1.000  C
  C166     1.0000 0.92800  0.97830  0.06450  Biso   1.000  C
  C167     1.0000 0.57200  0.47830  0.43550  Biso   1.000  C
  C168     1.0000 0.42800  0.47830  0.06450  Biso   1.000  C
  H129     1.0000 0.94310  0.05380  0.53820  Biso   1.000  H
  H130     1.0000 0.05690  0.05380  0.96180  Biso   1.000  H
  H131     1.0000 0.44310  0.55380  0.53820  Biso   1.000  H
  H132     1.0000 0.55690  0.55380  0.96180  Biso   1.000  H
  H133     1.0000 0.05690  0.94620  0.46180  Biso   1.000  H
  H134     1.0000 0.94310  0.94620  0.03820  Biso   1.000  H
  H135     1.0000 0.55690  0.44620  0.46180  Biso   1.000  H
  H136     1.0000 0.44310  0.44620  0.03820  Biso   1.000  H
  C169     1.0000 0.89140  0.96890  0.50240  Biso   1.000  C
  C170     1.0000 0.10860  0.96890  0.99760  Biso   1.000  C
  C171     1.0000 0.39140  0.46890  0.50240  Biso   1.000  C
  C172     1.0000 0.60860  0.46890  0.99760  Biso   1.000  C
  C173     1.0000 0.10860  0.03110  0.49760  Biso   1.000  C
  C174     1.0000 0.89140  0.03110  0.00240  Biso   1.000  C
  C175     1.0000 0.60860  0.53110  0.49760  Biso   1.000  C
  C176     1.0000 0.39140  0.53110  0.00240  Biso   1.000  C
  H137     1.0000 0.88260  0.96560  0.43630  Biso   1.000  H
  H138     1.0000 0.11740  0.96560  0.06370  Biso   1.000  H
  H139     1.0000 0.38260  0.46560  0.43630  Biso   1.000  H
  H140     1.0000 0.61740  0.46560  0.06370  Biso   1.000  H
  H141     1.0000 0.11740  0.03440  0.56370  Biso   1.000  H
  H142     1.0000 0.88260  0.03440  0.93630  Biso   1.000  H
  H143     1.0000 0.61740  0.53440  0.56370  Biso   1.000  H
  H144     1.0000 0.38260  0.53440  0.93630  Biso   1.000  H
  C177     1.0000 0.86790  0.92120  0.53930  Biso   1.000  C
  C178     1.0000 0.13210  0.92120  0.96070  Biso   1.000  C
  C179     1.0000 0.36790  0.42120  0.53930  Biso   1.000  C
  C180     1.0000 0.63210  0.42120  0.96070  Biso   1.000  C
  C181     1.0000 0.13210  0.07880  0.46070  Biso   1.000  C
  C182     1.0000 0.86790  0.07880  0.03930  Biso   1.000  C
  C183     1.0000 0.63210  0.57880  0.46070  Biso   1.000  C
  C184     1.0000 0.36790  0.57880  0.03930  Biso   1.000  C
  C185     1.0000 0.88360  0.92830  0.63850  Biso   1.000  C
  C186     1.0000 0.11640  0.92830  0.86150  Biso   1.000  C
  C187     1.0000 0.38360  0.42830  0.63850  Biso   1.000  C
  C188     1.0000 0.61640  0.42830  0.86150  Biso   1.000  C
  C189     1.0000 0.11640  0.07170  0.36150  Biso   1.000  C
  C190     1.0000 0.88360  0.07170  0.13850  Biso   1.000  C
  C191     1.0000 0.61640  0.57170  0.36150  Biso   1.000  C
  C192     1.0000 0.38360  0.57170  0.13850  Biso   1.000  C
  H145     1.0000 0.86850  0.89700  0.66580  Biso   1.000  H
  H146     1.0000 0.13150  0.89700  0.83420  Biso   1.000  H
  H147     1.0000 0.36850  0.39700  0.66580  Biso   1.000  H
  H148     1.0000 0.63150  0.39700  0.83420  Biso   1.000  H
  H149     1.0000 0.13150  0.10300  0.33420  Biso   1.000  H
  H150     1.0000 0.86850  0.10300  0.16580  Biso   1.000  H
  H151     1.0000 0.63150  0.60300  0.33420  Biso   1.000  H
  H152     1.0000 0.36850  0.60300  0.16580  Biso   1.000  H
  C193     1.0000 0.92160  0.98150  0.69780  Biso   1.000  C
  C194     1.0000 0.07840  0.98150  0.80220  Biso   1.000  C
  C195     1.0000 0.42160  0.48150  0.69780  Biso   1.000  C
  C196     1.0000 0.57840  0.48150  0.80220  Biso   1.000  C
  C197     1.0000 0.07840  0.01850  0.30220  Biso   1.000  C
  C198     1.0000 0.92160  0.01850  0.19780  Biso   1.000  C
  C199     1.0000 0.57840  0.51850  0.30220  Biso   1.000  C
  C200     1.0000 0.42160  0.51850  0.19780  Biso   1.000  C
  H153     1.0000 0.93270  0.98460  0.76530  Biso   1.000  H
  H154     1.0000 0.06730  0.98460  0.73470  Biso   1.000  H
  H155     1.0000 0.43270  0.48460  0.76530  Biso   1.000  H
  H156     1.0000 0.56730  0.48460  0.73470  Biso   1.000  H
  H157     1.0000 0.06730  0.01540  0.23470  Biso   1.000  H
  H158     1.0000 0.93270  0.01540  0.26530  Biso   1.000  H
  H159     1.0000 0.56730  0.51540  0.23470  Biso   1.000  H
  H160     1.0000 0.43270  0.51540  0.26530  Biso   1.000  H
