data_image0
_cell_length_a       26.737
_cell_length_b       19.056
_cell_length_c       15.746
_cell_angle_alpha    90
_cell_angle_beta     122.044
_cell_angle_gamma    90

_symmetry_space_group_name_H-M    "P 1"
_symmetry_int_tables_number       1

loop_
  _symmetry_equiv_pos_as_xyz
  'x, y, z'

loop_
  _atom_site_label
  _atom_site_occupancy
  _atom_site_fract_x
  _atom_site_fract_y
  _atom_site_fract_z
  _atom_site_thermal_displace_type
  _atom_site_B_iso_or_equiv
  _atom_site_type_symbol
  Cu1      1.0000 0.00000  0.10738  0.75000  Biso   1.000  Cu
  Cu2      1.0000 0.50000  0.60738  0.75000  Biso   1.000  Cu
  Cu3      1.0000 0.00000  0.89262  0.25000  Biso   1.000  Cu
  Cu4      1.0000 0.50000  0.39262  0.25000  Biso   1.000  Cu
  Br1      1.0000 0.05637  0.11191  0.62866  Biso   1.000  Br
  Br2      1.0000 0.94363  0.11191  0.87134  Biso   1.000  Br
  Br3      1.0000 0.55637  0.61191  0.62866  Biso   1.000  Br
  Br4      1.0000 0.44363  0.61191  0.87134  Biso   1.000  Br
  Br5      1.0000 0.94363  0.88809  0.37134  Biso   1.000  Br
  Br6      1.0000 0.05637  0.88809  0.12866  Biso   1.000  Br
  Br7      1.0000 0.44363  0.38809  0.37134  Biso   1.000  Br
  Br8      1.0000 0.55637  0.38809  0.12866  Biso   1.000  Br
  N1       1.0000 0.94220  0.18130  0.65840  Biso   1.000  N
  N2       1.0000 0.05780  0.18130  0.84160  Biso   1.000  N
  N3       1.0000 0.44220  0.68130  0.65840  Biso   1.000  N
  N4       1.0000 0.55780  0.68130  0.84160  Biso   1.000  N
  N5       1.0000 0.05780  0.81870  0.34160  Biso   1.000  N
  N6       1.0000 0.94220  0.81870  0.15840  Biso   1.000  N
  N7       1.0000 0.55780  0.31870  0.34160  Biso   1.000  N
  N8       1.0000 0.44220  0.31870  0.15840  Biso   1.000  N
  N9       1.0000 0.82350  0.36820  0.39740  Biso   1.000  N
  N10      1.0000 0.17650  0.36820  0.10260  Biso   1.000  N
  N11      1.0000 0.32350  0.86820  0.39740  Biso   1.000  N
  N12      1.0000 0.67650  0.86820  0.10260  Biso   1.000  N
  N13      1.0000 0.17650  0.63180  0.60260  Biso   1.000  N
  N14      1.0000 0.82350  0.63180  0.89740  Biso   1.000  N
  N15      1.0000 0.67650  0.13180  0.60260  Biso   1.000  N
  N16      1.0000 0.32350  0.13180  0.89740  Biso   1.000  N
  H1       1.0000 0.84380  0.33940  0.38510  Biso   1.000  H
  H2       1.0000 0.15620  0.33940  0.11490  Biso   1.000  H
  H3       1.0000 0.34380  0.83940  0.38510  Biso   1.000  H
  H4       1.0000 0.65620  0.83940  0.11490  Biso   1.000  H
  H5       1.0000 0.15620  0.66060  0.61490  Biso   1.000  H
  H6       1.0000 0.84380  0.66060  0.88510  Biso   1.000  H
  H7       1.0000 0.65620  0.16060  0.61490  Biso   1.000  H
  H8       1.0000 0.34380  0.16060  0.88510  Biso   1.000  H
  N17      1.0000 0.82820  0.84040  0.40720  Biso   1.000  N
  N18      1.0000 0.17180  0.84040  0.09280  Biso   1.000  N
  N19      1.0000 0.32820  0.34040  0.40720  Biso   1.000  N
  N20      1.0000 0.67180  0.34040  0.09280  Biso   1.000  N
  N21      1.0000 0.17180  0.15960  0.59280  Biso   1.000  N
  N22      1.0000 0.82820  0.15960  0.90720  Biso   1.000  N
  N23      1.0000 0.67180  0.65960  0.59280  Biso   1.000  N
  N24      1.0000 0.32820  0.65960  0.90720  Biso   1.000  N
  H9       1.0000 0.84890  0.86990  0.38990  Biso   1.000  H
  H10      1.0000 0.15110  0.86990  0.11010  Biso   1.000  H
  H11      1.0000 0.34890  0.36990  0.38990  Biso   1.000  H
  H12      1.0000 0.65110  0.36990  0.11010  Biso   1.000  H
  H13      1.0000 0.15110  0.13010  0.61010  Biso   1.000  H
  H14      1.0000 0.84890  0.13010  0.88990  Biso   1.000  H
  H15      1.0000 0.65110  0.63010  0.61010  Biso   1.000  H
  H16      1.0000 0.34890  0.63010  0.88990  Biso   1.000  H
  N25      1.0000 0.94300  0.03010  0.66220  Biso   1.000  N
  N26      1.0000 0.05700  0.03010  0.83780  Biso   1.000  N
  N27      1.0000 0.44300  0.53010  0.66220  Biso   1.000  N
  N28      1.0000 0.55700  0.53010  0.83780  Biso   1.000  N
  N29      1.0000 0.05700  0.96990  0.33780  Biso   1.000  N
  N30      1.0000 0.94300  0.96990  0.16220  Biso   1.000  N
  N31      1.0000 0.55700  0.46990  0.33780  Biso   1.000  N
  N32      1.0000 0.44300  0.46990  0.16220  Biso   1.000  N
  O1       1.0000 0.77820  0.35260  0.48430  Biso   1.000  O
  O2       1.0000 0.22180  0.35260  0.01570  Biso   1.000  O
  O3       1.0000 0.27820  0.85260  0.48430  Biso   1.000  O
  O4       1.0000 0.72180  0.85260  0.01570  Biso   1.000  O
  O5       1.0000 0.22180  0.64740  0.51570  Biso   1.000  O
  O6       1.0000 0.77820  0.64740  0.98430  Biso   1.000  O
  O7       1.0000 0.72180  0.14740  0.51570  Biso   1.000  O
  O8       1.0000 0.27820  0.14740  0.98430  Biso   1.000  O
  O9       1.0000 0.79840  0.83790  0.51550  Biso   1.000  O
  O10      1.0000 0.20160  0.83790  0.98450  Biso   1.000  O
  O11      1.0000 0.29840  0.33790  0.51550  Biso   1.000  O
  O12      1.0000 0.70160  0.33790  0.98450  Biso   1.000  O
  O13      1.0000 0.20160  0.16210  0.48450  Biso   1.000  O
  O14      1.0000 0.79840  0.16210  0.01550  Biso   1.000  O
  O15      1.0000 0.70160  0.66210  0.48450  Biso   1.000  O
  O16      1.0000 0.29840  0.66210  0.01550  Biso   1.000  O
  C1       1.0000 0.95760  0.23280  0.62450  Biso   1.000  C
  C2       1.0000 0.04240  0.23280  0.87550  Biso   1.000  C
  C3       1.0000 0.45760  0.73280  0.62450  Biso   1.000  C
  C4       1.0000 0.54240  0.73280  0.87550  Biso   1.000  C
  C5       1.0000 0.04240  0.76720  0.37550  Biso   1.000  C
  C6       1.0000 0.95760  0.76720  0.12450  Biso   1.000  C
  C7       1.0000 0.54240  0.26720  0.37550  Biso   1.000  C
  C8       1.0000 0.45760  0.26720  0.12450  Biso   1.000  C
  H17      1.0000 0.99700  0.23610  0.64370  Biso   1.000  H
  H18      1.0000 0.00300  0.23610  0.85630  Biso   1.000  H
  H19      1.0000 0.49700  0.73610  0.64370  Biso   1.000  H
  H20      1.0000 0.50300  0.73610  0.85630  Biso   1.000  H
  H21      1.0000 0.00300  0.76390  0.35630  Biso   1.000  H
  H22      1.0000 0.99700  0.76390  0.14370  Biso   1.000  H
  H23      1.0000 0.50300  0.26390  0.35630  Biso   1.000  H
  H24      1.0000 0.49700  0.26390  0.14370  Biso   1.000  H
  C9       1.0000 0.91860  0.28370  0.56090  Biso   1.000  C
  C10      1.0000 0.08140  0.28370  0.93910  Biso   1.000  C
  C11      1.0000 0.41860  0.78370  0.56090  Biso   1.000  C
  C12      1.0000 0.58140  0.78370  0.93910  Biso   1.000  C
  C13      1.0000 0.08140  0.71630  0.43910  Biso   1.000  C
  C14      1.0000 0.91860  0.71630  0.06090  Biso   1.000  C
  C15      1.0000 0.58140  0.21630  0.43910  Biso   1.000  C
  C16      1.0000 0.41860  0.21630  0.06090  Biso   1.000  C
  H25      1.0000 0.93250  0.31960  0.53880  Biso   1.000  H
  H26      1.0000 0.06750  0.31960  0.96120  Biso   1.000  H
  H27      1.0000 0.43250  0.81960  0.53880  Biso   1.000  H
  H28      1.0000 0.56750  0.81960  0.96120  Biso   1.000  H
  H29      1.0000 0.06750  0.68040  0.46120  Biso   1.000  H
  H30      1.0000 0.93250  0.68040  0.03880  Biso   1.000  H
  H31      1.0000 0.56750  0.18040  0.46120  Biso   1.000  H
  H32      1.0000 0.43250  0.18040  0.03880  Biso   1.000  H
  C17      1.0000 0.86210  0.28220  0.53080  Biso   1.000  C
  C18      1.0000 0.13790  0.28220  0.96920  Biso   1.000  C
  C19      1.0000 0.36210  0.78220  0.53080  Biso   1.000  C
  C20      1.0000 0.63790  0.78220  0.96920  Biso   1.000  C
  C21      1.0000 0.13790  0.71780  0.46920  Biso   1.000  C
  C22      1.0000 0.86210  0.71780  0.03080  Biso   1.000  C
  C23      1.0000 0.63790  0.21780  0.46920  Biso   1.000  C
  C24      1.0000 0.36210  0.21780  0.03080  Biso   1.000  C
  C25      1.0000 0.84350  0.22580  0.56490  Biso   1.000  C
  C26      1.0000 0.15650  0.22580  0.93510  Biso   1.000  C
  C27      1.0000 0.34350  0.72580  0.56490  Biso   1.000  C
  C28      1.0000 0.65650  0.72580  0.93510  Biso   1.000  C
  C29      1.0000 0.15650  0.77420  0.43510  Biso   1.000  C
  C30      1.0000 0.84350  0.77420  0.06490  Biso   1.000  C
  C31      1.0000 0.65650  0.27420  0.43510  Biso   1.000  C
  C32      1.0000 0.34350  0.27420  0.06490  Biso   1.000  C
  H33      1.0000 0.80430  0.22160  0.54580  Biso   1.000  H
  H34      1.0000 0.19570  0.22160  0.95420  Biso   1.000  H
  H35      1.0000 0.30430  0.72160  0.54580  Biso   1.000  H
  H36      1.0000 0.69570  0.72160  0.95420  Biso   1.000  H
  H37      1.0000 0.19570  0.77840  0.45420  Biso   1.000  H
  H38      1.0000 0.80430  0.77840  0.04580  Biso   1.000  H
  H39      1.0000 0.69570  0.27840  0.45420  Biso   1.000  H
  H40      1.0000 0.30430  0.27840  0.04580  Biso   1.000  H
  C33      1.0000 0.88510  0.17640  0.62770  Biso   1.000  C
  C34      1.0000 0.11490  0.17640  0.87230  Biso   1.000  C
  C35      1.0000 0.38510  0.67640  0.62770  Biso   1.000  C
  C36      1.0000 0.61490  0.67640  0.87230  Biso   1.000  C
  C37      1.0000 0.11490  0.82360  0.37230  Biso   1.000  C
  C38      1.0000 0.88510  0.82360  0.12770  Biso   1.000  C
  C39      1.0000 0.61490  0.32360  0.37230  Biso   1.000  C
  C40      1.0000 0.38510  0.32360  0.12770  Biso   1.000  C
  H41      1.0000 0.87270  0.13850  0.64920  Biso   1.000  H
  H42      1.0000 0.12730  0.13850  0.85080  Biso   1.000  H
  H43      1.0000 0.37270  0.63850  0.64920  Biso   1.000  H
  H44      1.0000 0.62730  0.63850  0.85080  Biso   1.000  H
  H45      1.0000 0.12730  0.86150  0.35080  Biso   1.000  H
  H46      1.0000 0.87270  0.86150  0.14920  Biso   1.000  H
  H47      1.0000 0.62730  0.36150  0.35080  Biso   1.000  H
  H48      1.0000 0.37270  0.36150  0.14920  Biso   1.000  H
  C41      1.0000 0.81740  0.33730  0.46720  Biso   1.000  C
  C42      1.0000 0.18260  0.33730  0.03280  Biso   1.000  C
  C43      1.0000 0.31740  0.83730  0.46720  Biso   1.000  C
  C44      1.0000 0.68260  0.83730  0.03280  Biso   1.000  C
  C45      1.0000 0.18260  0.66270  0.53280  Biso   1.000  C
  C46      1.0000 0.81740  0.66270  0.96720  Biso   1.000  C
  C47      1.0000 0.68260  0.16270  0.53280  Biso   1.000  C
  C48      1.0000 0.31740  0.16270  0.96720  Biso   1.000  C
  C49      1.0000 0.79080  0.42420  0.33350  Biso   1.000  C
  C50      1.0000 0.20920  0.42420  0.16650  Biso   1.000  C
  C51      1.0000 0.29080  0.92420  0.33350  Biso   1.000  C
  C52      1.0000 0.70920  0.92420  0.16650  Biso   1.000  C
  C53      1.0000 0.20920  0.57580  0.66650  Biso   1.000  C
  C54      1.0000 0.79080  0.57580  0.83350  Biso   1.000  C
  C55      1.0000 0.70920  0.07580  0.66650  Biso   1.000  C
  C56      1.0000 0.29080  0.07580  0.83350  Biso   1.000  C
  C57      1.0000 0.74110  0.45230  0.32430  Biso   1.000  C
  C58      1.0000 0.25890  0.45230  0.17570  Biso   1.000  C
  C59      1.0000 0.24110  0.95230  0.32430  Biso   1.000  C
  C60      1.0000 0.75890  0.95230  0.17570  Biso   1.000  C
  C61      1.0000 0.25890  0.54770  0.67570  Biso   1.000  C
  C62      1.0000 0.74110  0.54770  0.82430  Biso   1.000  C
  C63      1.0000 0.75890  0.04770  0.67570  Biso   1.000  C
  C64      1.0000 0.24110  0.04770  0.82430  Biso   1.000  C
  H49      1.0000 0.72550  0.43270  0.35940  Biso   1.000  H
  H50      1.0000 0.27450  0.43270  0.14060  Biso   1.000  H
  H51      1.0000 0.22550  0.93270  0.35940  Biso   1.000  H
  H52      1.0000 0.77450  0.93270  0.14060  Biso   1.000  H
  H53      1.0000 0.27450  0.56730  0.64060  Biso   1.000  H
  H54      1.0000 0.72550  0.56730  0.85940  Biso   1.000  H
  H55      1.0000 0.77450  0.06730  0.64060  Biso   1.000  H
  H56      1.0000 0.22550  0.06730  0.85940  Biso   1.000  H
  C65      1.0000 0.71370  0.51060  0.26200  Biso   1.000  C
  C66      1.0000 0.28630  0.51060  0.23800  Biso   1.000  C
  C67      1.0000 0.21370  0.01060  0.26200  Biso   1.000  C
  C68      1.0000 0.78630  0.01060  0.23800  Biso   1.000  C
  C69      1.0000 0.28630  0.48940  0.73800  Biso   1.000  C
  C70      1.0000 0.71370  0.48940  0.76200  Biso   1.000  C
  C71      1.0000 0.78630  0.98940  0.73800  Biso   1.000  C
  C72      1.0000 0.21370  0.98940  0.76200  Biso   1.000  C
  H57      1.0000 0.67990  0.52950  0.25610  Biso   1.000  H
  H58      1.0000 0.32010  0.52950  0.24390  Biso   1.000  H
  H59      1.0000 0.17990  0.02950  0.25610  Biso   1.000  H
  H60      1.0000 0.82010  0.02950  0.24390  Biso   1.000  H
  H61      1.0000 0.32010  0.47050  0.74390  Biso   1.000  H
  H62      1.0000 0.67990  0.47050  0.75610  Biso   1.000  H
  H63      1.0000 0.82010  0.97050  0.74390  Biso   1.000  H
  H64      1.0000 0.17990  0.97050  0.75610  Biso   1.000  H
  C73      1.0000 0.73630  0.53970  0.20990  Biso   1.000  C
  C74      1.0000 0.26370  0.53970  0.29010  Biso   1.000  C
  C75      1.0000 0.23630  0.03970  0.20990  Biso   1.000  C
  C76      1.0000 0.76370  0.03970  0.29010  Biso   1.000  C
  C77      1.0000 0.26370  0.46030  0.79010  Biso   1.000  C
  C78      1.0000 0.73630  0.46030  0.70990  Biso   1.000  C
  C79      1.0000 0.76370  0.96030  0.79010  Biso   1.000  C
  C80      1.0000 0.23630  0.96030  0.70990  Biso   1.000  C
  C81      1.0000 0.78080  0.50890  0.21120  Biso   1.000  C
  C82      1.0000 0.21920  0.50890  0.28880  Biso   1.000  C
  C83      1.0000 0.28080  0.00890  0.21120  Biso   1.000  C
  C84      1.0000 0.71920  0.00890  0.28880  Biso   1.000  C
  C85      1.0000 0.21920  0.49110  0.78880  Biso   1.000  C
  C86      1.0000 0.78080  0.49110  0.71120  Biso   1.000  C
  C87      1.0000 0.71920  0.99110  0.78880  Biso   1.000  C
  C88      1.0000 0.28080  0.99110  0.71120  Biso   1.000  C
  H65      1.0000 0.79290  0.52480  0.16900  Biso   1.000  H
  H66      1.0000 0.20710  0.52480  0.33100  Biso   1.000  H
  H67      1.0000 0.29290  0.02480  0.16900  Biso   1.000  H
  H68      1.0000 0.70710  0.02480  0.33100  Biso   1.000  H
  H69      1.0000 0.20710  0.47520  0.83100  Biso   1.000  H
  H70      1.0000 0.79290  0.47520  0.66900  Biso   1.000  H
  H71      1.0000 0.70710  0.97520  0.83100  Biso   1.000  H
  H72      1.0000 0.29290  0.97520  0.66900  Biso   1.000  H
  C89      1.0000 0.81030  0.45220  0.27610  Biso   1.000  C
  C90      1.0000 0.18970  0.45220  0.22390  Biso   1.000  C
  C91      1.0000 0.31030  0.95220  0.27610  Biso   1.000  C
  C92      1.0000 0.68970  0.95220  0.22390  Biso   1.000  C
  C93      1.0000 0.18970  0.54780  0.72390  Biso   1.000  C
  C94      1.0000 0.81030  0.54780  0.77610  Biso   1.000  C
  C95      1.0000 0.68970  0.04780  0.72390  Biso   1.000  C
  C96      1.0000 0.31030  0.04780  0.77610  Biso   1.000  C
  H73      1.0000 0.84360  0.43340  0.28000  Biso   1.000  H
  H74      1.0000 0.15640  0.43340  0.22000  Biso   1.000  H
  H75      1.0000 0.34360  0.93340  0.28000  Biso   1.000  H
  H76      1.0000 0.65640  0.93340  0.22000  Biso   1.000  H
  H77      1.0000 0.15640  0.56660  0.72000  Biso   1.000  H
  H78      1.0000 0.84360  0.56660  0.78000  Biso   1.000  H
  H79      1.0000 0.65640  0.06660  0.72000  Biso   1.000  H
  H80      1.0000 0.34360  0.06660  0.78000  Biso   1.000  H
  C97      1.0000 0.70820  0.60660  0.14710  Biso   1.000  C
  C98      1.0000 0.29180  0.60660  0.35290  Biso   1.000  C
  C99      1.0000 0.20820  0.10660  0.14710  Biso   1.000  C
  C100     1.0000 0.79180  0.10660  0.35290  Biso   1.000  C
  C101     1.0000 0.29180  0.39340  0.85290  Biso   1.000  C
  C102     1.0000 0.70820  0.39340  0.64710  Biso   1.000  C
  C103     1.0000 0.79180  0.89340  0.85290  Biso   1.000  C
  C104     1.0000 0.20820  0.89340  0.64710  Biso   1.000  C
  H81      1.0000 0.71330  0.60690  0.09050  Biso   1.000  H
  H82      1.0000 0.28670  0.60690  0.40950  Biso   1.000  H
  H83      1.0000 0.21330  0.10690  0.09050  Biso   1.000  H
  H84      1.0000 0.78670  0.10690  0.40950  Biso   1.000  H
  H85      1.0000 0.28670  0.39310  0.90950  Biso   1.000  H
  H86      1.0000 0.71330  0.39310  0.59050  Biso   1.000  H
  H87      1.0000 0.78670  0.89310  0.90950  Biso   1.000  H
  H88      1.0000 0.21330  0.89310  0.59050  Biso   1.000  H
  H89      1.0000 0.66630  0.60710  0.12140  Biso   1.000  H
  H90      1.0000 0.33370  0.60710  0.37860  Biso   1.000  H
  H91      1.0000 0.16630  0.10710  0.12140  Biso   1.000  H
  H92      1.0000 0.83370  0.10710  0.37860  Biso   1.000  H
  H93      1.0000 0.33370  0.39290  0.87860  Biso   1.000  H
  H94      1.0000 0.66630  0.39290  0.62140  Biso   1.000  H
  H95      1.0000 0.83370  0.89290  0.87860  Biso   1.000  H
  H96      1.0000 0.16630  0.89290  0.62140  Biso   1.000  H
  C105     1.0000 0.73750  0.67200  0.21220  Biso   1.000  C
  C106     1.0000 0.26250  0.67200  0.28780  Biso   1.000  C
  C107     1.0000 0.23750  0.17200  0.21220  Biso   1.000  C
  C108     1.0000 0.76250  0.17200  0.28780  Biso   1.000  C
  C109     1.0000 0.26250  0.32800  0.78780  Biso   1.000  C
  C110     1.0000 0.73750  0.32800  0.71220  Biso   1.000  C
  C111     1.0000 0.76250  0.82800  0.78780  Biso   1.000  C
  C112     1.0000 0.23750  0.82800  0.71220  Biso   1.000  C
  C113     1.0000 0.78160  0.70600  0.21180  Biso   1.000  C
  C114     1.0000 0.21840  0.70600  0.28820  Biso   1.000  C
  C115     1.0000 0.28160  0.20600  0.21180  Biso   1.000  C
  C116     1.0000 0.71840  0.20600  0.28820  Biso   1.000  C
  C117     1.0000 0.21840  0.29400  0.78820  Biso   1.000  C
  C118     1.0000 0.78160  0.29400  0.71180  Biso   1.000  C
  C119     1.0000 0.71840  0.79400  0.78820  Biso   1.000  C
  C120     1.0000 0.28160  0.79400  0.71180  Biso   1.000  C
  H97      1.0000 0.79260  0.69140  0.16770  Biso   1.000  H
  H98      1.0000 0.20740  0.69140  0.33230  Biso   1.000  H
  H99      1.0000 0.29260  0.19140  0.16770  Biso   1.000  H
  H100     1.0000 0.70740  0.19140  0.33230  Biso   1.000  H
  H101     1.0000 0.20740  0.30860  0.83230  Biso   1.000  H
  H102     1.0000 0.79260  0.30860  0.66770  Biso   1.000  H
  H103     1.0000 0.70740  0.80860  0.83230  Biso   1.000  H
  H104     1.0000 0.29260  0.80860  0.66770  Biso   1.000  H
  C121     1.0000 0.81090  0.76160  0.27440  Biso   1.000  C
  C122     1.0000 0.18910  0.76160  0.22560  Biso   1.000  C
  C123     1.0000 0.31090  0.26160  0.27440  Biso   1.000  C
  C124     1.0000 0.68910  0.26160  0.22560  Biso   1.000  C
  C125     1.0000 0.18910  0.23840  0.72560  Biso   1.000  C
  C126     1.0000 0.81090  0.23840  0.77440  Biso   1.000  C
  C127     1.0000 0.68910  0.73840  0.72560  Biso   1.000  C
  C128     1.0000 0.31090  0.73840  0.77440  Biso   1.000  C
  H105     1.0000 0.84100  0.78420  0.27220  Biso   1.000  H
  H106     1.0000 0.15900  0.78420  0.22780  Biso   1.000  H
  H107     1.0000 0.34100  0.28420  0.27220  Biso   1.000  H
  H108     1.0000 0.65900  0.28420  0.22780  Biso   1.000  H
  H109     1.0000 0.15900  0.21580  0.72780  Biso   1.000  H
  H110     1.0000 0.84100  0.21580  0.77220  Biso   1.000  H
  H111     1.0000 0.65900  0.71580  0.72780  Biso   1.000  H
  H112     1.0000 0.34100  0.71580  0.77220  Biso   1.000  H
  C129     1.0000 0.79510  0.78350  0.34070  Biso   1.000  C
  C130     1.0000 0.20490  0.78350  0.15930  Biso   1.000  C
  C131     1.0000 0.29510  0.28350  0.34070  Biso   1.000  C
  C132     1.0000 0.70490  0.28350  0.15930  Biso   1.000  C
  C133     1.0000 0.20490  0.21650  0.65930  Biso   1.000  C
  C134     1.0000 0.79510  0.21650  0.84070  Biso   1.000  C
  C135     1.0000 0.70490  0.71650  0.65930  Biso   1.000  C
  C136     1.0000 0.29510  0.71650  0.84070  Biso   1.000  C
  C137     1.0000 0.74790  0.75370  0.33550  Biso   1.000  C
  C138     1.0000 0.25210  0.75370  0.16450  Biso   1.000  C
  C139     1.0000 0.24790  0.25370  0.33550  Biso   1.000  C
  C140     1.0000 0.75210  0.25370  0.16450  Biso   1.000  C
  C141     1.0000 0.25210  0.24630  0.66450  Biso   1.000  C
  C142     1.0000 0.74790  0.24630  0.83550  Biso   1.000  C
  C143     1.0000 0.75210  0.74630  0.66450  Biso   1.000  C
  C144     1.0000 0.24790  0.74630  0.83550  Biso   1.000  C
  H113     1.0000 0.73390  0.77170  0.37410  Biso   1.000  H
  H114     1.0000 0.26610  0.77170  0.12590  Biso   1.000  H
  H115     1.0000 0.23390  0.27170  0.37410  Biso   1.000  H
  H116     1.0000 0.76610  0.27170  0.12590  Biso   1.000  H
  H117     1.0000 0.26610  0.22830  0.62590  Biso   1.000  H
  H118     1.0000 0.73390  0.22830  0.87410  Biso   1.000  H
  H119     1.0000 0.76610  0.72830  0.62590  Biso   1.000  H
  H120     1.0000 0.23390  0.72830  0.87410  Biso   1.000  H
  C145     1.0000 0.72010  0.69730  0.27410  Biso   1.000  C
  C146     1.0000 0.27990  0.69730  0.22590  Biso   1.000  C
  C147     1.0000 0.22010  0.19730  0.27410  Biso   1.000  C
  C148     1.0000 0.77990  0.19730  0.22590  Biso   1.000  C
  C149     1.0000 0.27990  0.30270  0.72590  Biso   1.000  C
  C150     1.0000 0.72010  0.30270  0.77410  Biso   1.000  C
  C151     1.0000 0.77990  0.80270  0.72590  Biso   1.000  C
  C152     1.0000 0.22010  0.80270  0.77410  Biso   1.000  C
  H121     1.0000 0.68900  0.67590  0.27450  Biso   1.000  H
  H122     1.0000 0.31100  0.67590  0.22550  Biso   1.000  H
  H123     1.0000 0.18900  0.17590  0.27450  Biso   1.000  H
  H124     1.0000 0.81100  0.17590  0.22550  Biso   1.000  H
  H125     1.0000 0.31100  0.32410  0.72550  Biso   1.000  H
  H126     1.0000 0.68900  0.32410  0.77450  Biso   1.000  H
  H127     1.0000 0.81100  0.82410  0.72550  Biso   1.000  H
  H128     1.0000 0.18900  0.82410  0.77450  Biso   1.000  H
  C153     1.0000 0.82870  0.86210  0.48630  Biso   1.000  C
  C154     1.0000 0.17130  0.86210  0.01370  Biso   1.000  C
  C155     1.0000 0.32870  0.36210  0.48630  Biso   1.000  C
  C156     1.0000 0.67130  0.36210  0.01370  Biso   1.000  C
  C157     1.0000 0.17130  0.13790  0.51370  Biso   1.000  C
  C158     1.0000 0.82870  0.13790  0.98630  Biso   1.000  C
  C159     1.0000 0.67130  0.63790  0.51370  Biso   1.000  C
  C160     1.0000 0.32870  0.63790  0.98630  Biso   1.000  C
  C161     1.0000 0.92330  0.02360  0.56700  Biso   1.000  C
  C162     1.0000 0.07670  0.02360  0.93300  Biso   1.000  C
  C163     1.0000 0.42330  0.52360  0.56700  Biso   1.000  C
  C164     1.0000 0.57670  0.52360  0.93300  Biso   1.000  C
  C165     1.0000 0.07670  0.97640  0.43300  Biso   1.000  C
  C166     1.0000 0.92330  0.97640  0.06700  Biso   1.000  C
  C167     1.0000 0.57670  0.47640  0.43300  Biso   1.000  C
  C168     1.0000 0.42330  0.47640  0.06700  Biso   1.000  C
  H129     1.0000 0.93400  0.05740  0.53700  Biso   1.000  H
  H130     1.0000 0.06600  0.05740  0.96300  Biso   1.000  H
  H131     1.0000 0.43400  0.55740  0.53700  Biso   1.000  H
  H132     1.0000 0.56600  0.55740  0.96300  Biso   1.000  H
  H133     1.0000 0.06600  0.94260  0.46300  Biso   1.000  H
  H134     1.0000 0.93400  0.94260  0.03700  Biso   1.000  H
  H135     1.0000 0.56600  0.44260  0.46300  Biso   1.000  H
  H136     1.0000 0.43400  0.44260  0.03700  Biso   1.000  H
  C169     1.0000 0.88700  0.96860  0.50750  Biso   1.000  C
  C170     1.0000 0.11300  0.96860  0.99250  Biso   1.000  C
  C171     1.0000 0.38700  0.46860  0.50750  Biso   1.000  C
  C172     1.0000 0.61300  0.46860  0.99250  Biso   1.000  C
  C173     1.0000 0.11300  0.03140  0.49250  Biso   1.000  C
  C174     1.0000 0.88700  0.03140  0.00750  Biso   1.000  C
  C175     1.0000 0.61300  0.53140  0.49250  Biso   1.000  C
  C176     1.0000 0.38700  0.53140  0.00750  Biso   1.000  C
  H137     1.0000 0.87530  0.96610  0.44050  Biso   1.000  H
  H138     1.0000 0.12470  0.96610  0.05950  Biso   1.000  H
  H139     1.0000 0.37530  0.46610  0.44050  Biso   1.000  H
  H140     1.0000 0.62470  0.46610  0.05950  Biso   1.000  H
  H141     1.0000 0.12470  0.03390  0.55950  Biso   1.000  H
  H142     1.0000 0.87530  0.03390  0.94050  Biso   1.000  H
  H143     1.0000 0.62470  0.53390  0.55950  Biso   1.000  H
  H144     1.0000 0.37530  0.53390  0.94050  Biso   1.000  H
  C177     1.0000 0.86950  0.92110  0.54480  Biso   1.000  C
  C178     1.0000 0.13050  0.92110  0.95520  Biso   1.000  C
  C179     1.0000 0.36950  0.42110  0.54480  Biso   1.000  C
  C180     1.0000 0.63050  0.42110  0.95520  Biso   1.000  C
  C181     1.0000 0.13050  0.07890  0.45520  Biso   1.000  C
  C182     1.0000 0.86950  0.07890  0.04480  Biso   1.000  C
  C183     1.0000 0.63050  0.57890  0.45520  Biso   1.000  C
  C184     1.0000 0.36950  0.57890  0.04480  Biso   1.000  C
  C185     1.0000 0.89100  0.92370  0.64820  Biso   1.000  C
  C186     1.0000 0.10900  0.92370  0.85180  Biso   1.000  C
  C187     1.0000 0.39100  0.42370  0.64820  Biso   1.000  C
  C188     1.0000 0.60900  0.42370  0.85180  Biso   1.000  C
  C189     1.0000 0.10900  0.07630  0.35180  Biso   1.000  C
  C190     1.0000 0.89100  0.07630  0.14820  Biso   1.000  C
  C191     1.0000 0.60900  0.57630  0.35180  Biso   1.000  C
  C192     1.0000 0.39100  0.57630  0.14820  Biso   1.000  C
  H145     1.0000 0.88140  0.88920  0.67890  Biso   1.000  H
  H146     1.0000 0.11860  0.88920  0.82110  Biso   1.000  H
  H147     1.0000 0.38140  0.38920  0.67890  Biso   1.000  H
  H148     1.0000 0.61860  0.38920  0.82110  Biso   1.000  H
  H149     1.0000 0.11860  0.11080  0.32110  Biso   1.000  H
  H150     1.0000 0.88140  0.11080  0.17890  Biso   1.000  H
  H151     1.0000 0.61860  0.61080  0.32110  Biso   1.000  H
  H152     1.0000 0.38140  0.61080  0.17890  Biso   1.000  H
  C193     1.0000 0.92700  0.97910  0.70170  Biso   1.000  C
  C194     1.0000 0.07300  0.97910  0.79830  Biso   1.000  C
  C195     1.0000 0.42700  0.47910  0.70170  Biso   1.000  C
  C196     1.0000 0.57300  0.47910  0.79830  Biso   1.000  C
  C197     1.0000 0.07300  0.02090  0.29830  Biso   1.000  C
  C198     1.0000 0.92700  0.02090  0.20170  Biso   1.000  C
  C199     1.0000 0.57300  0.52090  0.29830  Biso   1.000  C
  C200     1.0000 0.42700  0.52090  0.20170  Biso   1.000  C
  H153     1.0000 0.94110  0.98130  0.76980  Biso   1.000  H
  H154     1.0000 0.05890  0.98130  0.73020  Biso   1.000  H
  H155     1.0000 0.44110  0.48130  0.76980  Biso   1.000  H
  H156     1.0000 0.55890  0.48130  0.73020  Biso   1.000  H
  H157     1.0000 0.05890  0.01870  0.23020  Biso   1.000  H
  H158     1.0000 0.94110  0.01870  0.26980  Biso   1.000  H
  H159     1.0000 0.55890  0.51870  0.23020  Biso   1.000  H
  H160     1.0000 0.44110  0.51870  0.26980  Biso   1.000  H
