data_image0
_cell_length_a       8.802
_cell_length_b       22.7059
_cell_length_c       17.1647
_cell_angle_alpha    90
_cell_angle_beta     90
_cell_angle_gamma    90

_symmetry_space_group_name_H-M    "P 1"
_symmetry_int_tables_number       1

loop_
  _symmetry_equiv_pos_as_xyz
  'x, y, z'

loop_
  _atom_site_label
  _atom_site_occupancy
  _atom_site_fract_x
  _atom_site_fract_y
  _atom_site_fract_z
  _atom_site_thermal_displace_type
  _atom_site_B_iso_or_equiv
  _atom_site_type_symbol
  N1       1.0000 0.69640  0.43610  0.75000  Biso   1.000  N
  N2       1.0000 0.30360  0.56390  0.25000  Biso   1.000  N
  N3       1.0000 0.30360  0.93610  0.75000  Biso   1.000  N
  N4       1.0000 0.69640  0.06390  0.25000  Biso   1.000  N
  O1       1.0000 0.64010  0.42094  0.81200  Biso   1.000  O
  O2       1.0000 0.35990  0.57906  0.31200  Biso   1.000  O
  O3       1.0000 0.35990  0.92094  0.68800  Biso   1.000  O
  O4       1.0000 0.64010  0.07906  0.18800  Biso   1.000  O
  O5       1.0000 0.35990  0.57906  0.18800  Biso   1.000  O
  O6       1.0000 0.64010  0.42094  0.68800  Biso   1.000  O
  O7       1.0000 0.64010  0.07906  0.31200  Biso   1.000  O
  O8       1.0000 0.35990  0.92094  0.81200  Biso   1.000  O
  O9       1.0000 0.81050  0.46780  0.75000  Biso   1.000  O
  O10      1.0000 0.18950  0.53220  0.25000  Biso   1.000  O
  O11      1.0000 0.18950  0.96780  0.75000  Biso   1.000  O
  O12      1.0000 0.81050  0.03220  0.25000  Biso   1.000  O
  Cu1      1.0000 0.56688  0.88839  0.25000  Biso   1.000  Cu
  Cu2      1.0000 0.43312  0.11161  0.75000  Biso   1.000  Cu
  Cu3      1.0000 0.43312  0.38839  0.25000  Biso   1.000  Cu
  Cu4      1.0000 0.56688  0.61161  0.75000  Biso   1.000  Cu
  C1       1.0000 0.49970  0.87040  0.08320  Biso   1.000  C
  C2       1.0000 0.50030  0.12960  0.58320  Biso   1.000  C
  C3       1.0000 0.50030  0.37040  0.41680  Biso   1.000  C
  C4       1.0000 0.49970  0.62960  0.91680  Biso   1.000  C
  C5       1.0000 0.50030  0.12960  0.91680  Biso   1.000  C
  C6       1.0000 0.49970  0.87040  0.41680  Biso   1.000  C
  C7       1.0000 0.49970  0.62960  0.58320  Biso   1.000  C
  C8       1.0000 0.50030  0.37040  0.08320  Biso   1.000  C
  H1       1.0000 0.43390  0.84140  0.10140  Biso   1.000  H
  H2       1.0000 0.56610  0.15860  0.60140  Biso   1.000  H
  H3       1.0000 0.56610  0.34140  0.39860  Biso   1.000  H
  H4       1.0000 0.43390  0.65860  0.89860  Biso   1.000  H
  H5       1.0000 0.56610  0.15860  0.89860  Biso   1.000  H
  H6       1.0000 0.43390  0.84140  0.39860  Biso   1.000  H
  H7       1.0000 0.43390  0.65860  0.60140  Biso   1.000  H
  H8       1.0000 0.56610  0.34140  0.10140  Biso   1.000  H
  C9       1.0000 0.50350  0.88240  0.00480  Biso   1.000  C
  C10      1.0000 0.49650  0.11760  0.50480  Biso   1.000  C
  C11      1.0000 0.49650  0.38240  0.49520  Biso   1.000  C
  C12      1.0000 0.50350  0.61760  0.99520  Biso   1.000  C
  C13      1.0000 0.49650  0.11760  0.99520  Biso   1.000  C
  C14      1.0000 0.50350  0.88240  0.49520  Biso   1.000  C
  C15      1.0000 0.50350  0.61760  0.50480  Biso   1.000  C
  C16      1.0000 0.49650  0.38240  0.00480  Biso   1.000  C
  H9       1.0000 0.44270  0.86130  0.97030  Biso   1.000  H
  H10      1.0000 0.55730  0.13870  0.47030  Biso   1.000  H
  H11      1.0000 0.55730  0.36130  0.52970  Biso   1.000  H
  H12      1.0000 0.44270  0.63870  0.02970  Biso   1.000  H
  H13      1.0000 0.55730  0.13870  0.02970  Biso   1.000  H
  H14      1.0000 0.44270  0.86130  0.52970  Biso   1.000  H
  H15      1.0000 0.44270  0.63870  0.47030  Biso   1.000  H
  H16      1.0000 0.55730  0.36130  0.97030  Biso   1.000  H
  C17      1.0000 0.59900  0.92610  0.97800  Biso   1.000  C
  C18      1.0000 0.40100  0.07390  0.47800  Biso   1.000  C
  C19      1.0000 0.40100  0.42610  0.52200  Biso   1.000  C
  C20      1.0000 0.59900  0.57390  0.02200  Biso   1.000  C
  C21      1.0000 0.40100  0.07390  0.02200  Biso   1.000  C
  C22      1.0000 0.59900  0.92610  0.52200  Biso   1.000  C
  C23      1.0000 0.59900  0.57390  0.47800  Biso   1.000  C
  C24      1.0000 0.40100  0.42610  0.97800  Biso   1.000  C
  H17      1.0000 0.60420  0.93450  0.92500  Biso   1.000  H
  H18      1.0000 0.39580  0.06550  0.42500  Biso   1.000  H
  H19      1.0000 0.39580  0.43450  0.57500  Biso   1.000  H
  H20      1.0000 0.60420  0.56550  0.07500  Biso   1.000  H
  H21      1.0000 0.39580  0.06550  0.07500  Biso   1.000  H
  H22      1.0000 0.60420  0.93450  0.57500  Biso   1.000  H
  H23      1.0000 0.60420  0.56550  0.42500  Biso   1.000  H
  H24      1.0000 0.39580  0.43450  0.92500  Biso   1.000  H
  C25      1.0000 0.68650  0.95730  0.03010  Biso   1.000  C
  C26      1.0000 0.31350  0.04270  0.53010  Biso   1.000  C
  C27      1.0000 0.31350  0.45730  0.46990  Biso   1.000  C
  C28      1.0000 0.68650  0.54270  0.96990  Biso   1.000  C
  C29      1.0000 0.31350  0.04270  0.96990  Biso   1.000  C
  C30      1.0000 0.68650  0.95730  0.46990  Biso   1.000  C
  C31      1.0000 0.68650  0.54270  0.53010  Biso   1.000  C
  C32      1.0000 0.31350  0.45730  0.03010  Biso   1.000  C
  C33      1.0000 0.67820  0.94170  0.10760  Biso   1.000  C
  C34      1.0000 0.32180  0.05830  0.60760  Biso   1.000  C
  C35      1.0000 0.32180  0.44170  0.39240  Biso   1.000  C
  C36      1.0000 0.67820  0.55830  0.89240  Biso   1.000  C
  C37      1.0000 0.32180  0.05830  0.89240  Biso   1.000  C
  C38      1.0000 0.67820  0.94170  0.39240  Biso   1.000  C
  C39      1.0000 0.67820  0.55830  0.60760  Biso   1.000  C
  C40      1.0000 0.32180  0.44170  0.10760  Biso   1.000  C
  H25      1.0000 0.73850  0.96190  0.14320  Biso   1.000  H
  H26      1.0000 0.26150  0.03810  0.64320  Biso   1.000  H
  H27      1.0000 0.26150  0.46190  0.35680  Biso   1.000  H
  H28      1.0000 0.73850  0.53810  0.85680  Biso   1.000  H
  H29      1.0000 0.26150  0.03810  0.85680  Biso   1.000  H
  H30      1.0000 0.73850  0.96190  0.35680  Biso   1.000  H
  H31      1.0000 0.73850  0.53810  0.64320  Biso   1.000  H
  H32      1.0000 0.26150  0.46190  0.14320  Biso   1.000  H
  C41      1.0000 0.78630  0.00490  0.99920  Biso   1.000  C
  C42      1.0000 0.21370  0.99510  0.49920  Biso   1.000  C
  C43      1.0000 0.21370  0.50490  0.50080  Biso   1.000  C
  C44      1.0000 0.78630  0.49510  0.00080  Biso   1.000  C
  C45      1.0000 0.21370  0.99510  0.00080  Biso   1.000  C
  C46      1.0000 0.78630  0.00490  0.50080  Biso   1.000  C
  C47      1.0000 0.78630  0.49510  0.49920  Biso   1.000  C
  C48      1.0000 0.21370  0.50490  0.99920  Biso   1.000  C
  C49      1.0000 0.91860  0.09660  0.03500  Biso   1.000  C
  C50      1.0000 0.08140  0.90340  0.53500  Biso   1.000  C
  C51      1.0000 0.08140  0.59660  0.46500  Biso   1.000  C
  C52      1.0000 0.91860  0.40340  0.96500  Biso   1.000  C
  C53      1.0000 0.08140  0.90340  0.96500  Biso   1.000  C
  C54      1.0000 0.91860  0.09660  0.46500  Biso   1.000  C
  C55      1.0000 0.91860  0.40340  0.53500  Biso   1.000  C
  C56      1.0000 0.08140  0.59660  0.03500  Biso   1.000  C
  C57      1.0000 0.94230  0.11920  0.96110  Biso   1.000  C
  C58      1.0000 0.05770  0.88080  0.46110  Biso   1.000  C
  C59      1.0000 0.05770  0.61920  0.53890  Biso   1.000  C
  C60      1.0000 0.94230  0.38080  0.03890  Biso   1.000  C
  C61      1.0000 0.05770  0.88080  0.03890  Biso   1.000  C
  C62      1.0000 0.94230  0.11920  0.53890  Biso   1.000  C
  C63      1.0000 0.94230  0.38080  0.46110  Biso   1.000  C
  C64      1.0000 0.05770  0.61920  0.96110  Biso   1.000  C
  H33      1.0000 0.89640  0.10180  0.91810  Biso   1.000  H
  H34      1.0000 0.10360  0.89820  0.41810  Biso   1.000  H
  H35      1.0000 0.10360  0.60180  0.58190  Biso   1.000  H
  H36      1.0000 0.89640  0.39820  0.08190  Biso   1.000  H
  H37      1.0000 0.10360  0.89820  0.08190  Biso   1.000  H
  H38      1.0000 0.89640  0.10180  0.58190  Biso   1.000  H
  H39      1.0000 0.89640  0.39820  0.41810  Biso   1.000  H
  H40      1.0000 0.10360  0.60180  0.91810  Biso   1.000  H
  C65      1.0000 0.03570  0.16830  0.95180  Biso   1.000  C
  C66      1.0000 0.96430  0.83170  0.45180  Biso   1.000  C
  C67      1.0000 0.96430  0.66830  0.54820  Biso   1.000  C
  C68      1.0000 0.03570  0.33170  0.04820  Biso   1.000  C
  C69      1.0000 0.96430  0.83170  0.04820  Biso   1.000  C
  C70      1.0000 0.03570  0.16830  0.54820  Biso   1.000  C
  C71      1.0000 0.03570  0.33170  0.45180  Biso   1.000  C
  C72      1.0000 0.96430  0.66830  0.95180  Biso   1.000  C
  H41      1.0000 0.05150  0.18280  0.90170  Biso   1.000  H
  H42      1.0000 0.94850  0.81720  0.40170  Biso   1.000  H
  H43      1.0000 0.94850  0.68280  0.59830  Biso   1.000  H
  H44      1.0000 0.05150  0.31720  0.09830  Biso   1.000  H
  H45      1.0000 0.94850  0.81720  0.09830  Biso   1.000  H
  H46      1.0000 0.05150  0.18280  0.59830  Biso   1.000  H
  H47      1.0000 0.05150  0.31720  0.40170  Biso   1.000  H
  H48      1.0000 0.94850  0.68280  0.90170  Biso   1.000  H
  C73      1.0000 0.10540  0.19620  0.01320  Biso   1.000  C
  C74      1.0000 0.89460  0.80380  0.51320  Biso   1.000  C
  C75      1.0000 0.89460  0.69620  0.48680  Biso   1.000  C
  C76      1.0000 0.10540  0.30380  0.98680  Biso   1.000  C
  C77      1.0000 0.89460  0.80380  0.98680  Biso   1.000  C
  C78      1.0000 0.10540  0.19620  0.48680  Biso   1.000  C
  C79      1.0000 0.10540  0.30380  0.51320  Biso   1.000  C
  C80      1.0000 0.89460  0.69620  0.01320  Biso   1.000  C
  C81      1.0000 0.07740  0.17320  0.08660  Biso   1.000  C
  C82      1.0000 0.92260  0.82680  0.58660  Biso   1.000  C
  C83      1.0000 0.92260  0.67320  0.41340  Biso   1.000  C
  C84      1.0000 0.07740  0.32680  0.91340  Biso   1.000  C
  C85      1.0000 0.92260  0.82680  0.91340  Biso   1.000  C
  C86      1.0000 0.07740  0.17320  0.41340  Biso   1.000  C
  C87      1.0000 0.07740  0.32680  0.58660  Biso   1.000  C
  C88      1.0000 0.92260  0.67320  0.08660  Biso   1.000  C
  H49      1.0000 0.12110  0.19120  0.12980  Biso   1.000  H
  H50      1.0000 0.87890  0.80880  0.62980  Biso   1.000  H
  H51      1.0000 0.87890  0.69120  0.37020  Biso   1.000  H
  H52      1.0000 0.12110  0.30880  0.87020  Biso   1.000  H
  H53      1.0000 0.87890  0.80880  0.87020  Biso   1.000  H
  H54      1.0000 0.12110  0.19120  0.37020  Biso   1.000  H
  H55      1.0000 0.12110  0.30880  0.62980  Biso   1.000  H
  H56      1.0000 0.87890  0.69120  0.12980  Biso   1.000  H
  C89      1.0000 0.98670  0.12450  0.09710  Biso   1.000  C
  C90      1.0000 0.01330  0.87550  0.59710  Biso   1.000  C
  C91      1.0000 0.01330  0.62450  0.40290  Biso   1.000  C
  C92      1.0000 0.98670  0.37550  0.90290  Biso   1.000  C
  C93      1.0000 0.01330  0.87550  0.90290  Biso   1.000  C
  C94      1.0000 0.98670  0.12450  0.40290  Biso   1.000  C
  C95      1.0000 0.98670  0.37550  0.59710  Biso   1.000  C
  C96      1.0000 0.01330  0.62450  0.09710  Biso   1.000  C
  H57      1.0000 0.97100  0.11010  0.14720  Biso   1.000  H
  H58      1.0000 0.02900  0.88990  0.64720  Biso   1.000  H
  H59      1.0000 0.02900  0.61010  0.35280  Biso   1.000  H
  H60      1.0000 0.97100  0.38990  0.85280  Biso   1.000  H
  H61      1.0000 0.02900  0.88990  0.85280  Biso   1.000  H
  H62      1.0000 0.97100  0.11010  0.35280  Biso   1.000  H
  H63      1.0000 0.97100  0.38990  0.64720  Biso   1.000  H
  H64      1.0000 0.02900  0.61010  0.14720  Biso   1.000  H
  C97      1.0000 0.20560  0.25000  0.00000  Biso   1.000  C
  C98      1.0000 0.79440  0.75000  0.50000  Biso   1.000  C
  C99      1.0000 0.79440  0.75000  0.00000  Biso   1.000  C
  C100     1.0000 0.20560  0.25000  0.50000  Biso   1.000  C
  H65      1.0000 0.26970  0.25600  0.04460  Biso   1.000  H
  H66      1.0000 0.73030  0.74400  0.54460  Biso   1.000  H
  H67      1.0000 0.73030  0.75600  0.45540  Biso   1.000  H
  H68      1.0000 0.26970  0.24400  0.95540  Biso   1.000  H
  H69      1.0000 0.73030  0.74400  0.95540  Biso   1.000  H
  H70      1.0000 0.26970  0.25600  0.45540  Biso   1.000  H
  H71      1.0000 0.26970  0.24400  0.54460  Biso   1.000  H
  H72      1.0000 0.73030  0.75600  0.04460  Biso   1.000  H
  C101     1.0000 0.27500  0.05090  0.25000  Biso   1.000  C
  C102     1.0000 0.72500  0.94910  0.75000  Biso   1.000  C
  C103     1.0000 0.72500  0.55090  0.25000  Biso   1.000  C
  C104     1.0000 0.27500  0.44910  0.75000  Biso   1.000  C
  C105     1.0000 0.14930  0.94380  0.25000  Biso   1.000  C
  C106     1.0000 0.85070  0.05620  0.75000  Biso   1.000  C
  C107     1.0000 0.85070  0.44380  0.25000  Biso   1.000  C
  C108     1.0000 0.14930  0.55620  0.75000  Biso   1.000  C
  N5       1.0000 0.58720  0.89893  0.13370  Biso   1.000  N
  N6       1.0000 0.41280  0.10107  0.63370  Biso   1.000  N
  N7       1.0000 0.41280  0.39893  0.36630  Biso   1.000  N
  N8       1.0000 0.58720  0.60107  0.86630  Biso   1.000  N
  N9       1.0000 0.41280  0.10107  0.86630  Biso   1.000  N
  N10      1.0000 0.58720  0.89893  0.36630  Biso   1.000  N
  N11      1.0000 0.58720  0.60107  0.63370  Biso   1.000  N
  N12      1.0000 0.41280  0.39893  0.13370  Biso   1.000  N
  N13      1.0000 0.82620  0.04746  0.05020  Biso   1.000  N
  N14      1.0000 0.17380  0.95254  0.55020  Biso   1.000  N
  N15      1.0000 0.17380  0.54746  0.44980  Biso   1.000  N
  N16      1.0000 0.82620  0.45254  0.94980  Biso   1.000  N
  N17      1.0000 0.17380  0.95254  0.94980  Biso   1.000  N
  N18      1.0000 0.82620  0.04746  0.44980  Biso   1.000  N
  N19      1.0000 0.82620  0.45254  0.55020  Biso   1.000  N
  N20      1.0000 0.17380  0.54746  0.05020  Biso   1.000  N
  H73      1.0000 0.79140  0.04420  0.09680  Biso   1.000  H
  H74      1.0000 0.20860  0.95580  0.59680  Biso   1.000  H
  H75      1.0000 0.20860  0.54420  0.40320  Biso   1.000  H
  H76      1.0000 0.79140  0.45580  0.90320  Biso   1.000  H
  H77      1.0000 0.20860  0.95580  0.90320  Biso   1.000  H
  H78      1.0000 0.79140  0.04420  0.40320  Biso   1.000  H
  H79      1.0000 0.79140  0.45580  0.59680  Biso   1.000  H
  H80      1.0000 0.20860  0.54420  0.09680  Biso   1.000  H
  N21      1.0000 0.82530  0.82660  0.25000  Biso   1.000  N
  N22      1.0000 0.17470  0.17340  0.75000  Biso   1.000  N
  N23      1.0000 0.17470  0.32660  0.25000  Biso   1.000  N
  N24      1.0000 0.82530  0.67340  0.75000  Biso   1.000  N
  O13      1.0000 0.82540  0.00442  0.93090  Biso   1.000  O
  O14      1.0000 0.17460  0.99558  0.43090  Biso   1.000  O
  O15      1.0000 0.17460  0.50442  0.56910  Biso   1.000  O
  O16      1.0000 0.82540  0.49558  0.06910  Biso   1.000  O
  O17      1.0000 0.17460  0.99558  0.06910  Biso   1.000  O
  O18      1.0000 0.82540  0.00442  0.56910  Biso   1.000  O
  O19      1.0000 0.82540  0.49558  0.43090  Biso   1.000  O
  O20      1.0000 0.17460  0.50442  0.93090  Biso   1.000  O
  O21      1.0000 0.38110  0.81970  0.25000  Biso   1.000  O
  O22      1.0000 0.61890  0.18030  0.75000  Biso   1.000  O
  O23      1.0000 0.61890  0.31970  0.25000  Biso   1.000  O
  O24      1.0000 0.38110  0.68030  0.75000  Biso   1.000  O
  O25      1.0000 0.45490  0.95520  0.25000  Biso   1.000  O
  O26      1.0000 0.54510  0.04480  0.75000  Biso   1.000  O
  O27      1.0000 0.54510  0.45520  0.25000  Biso   1.000  O
  O28      1.0000 0.45490  0.54480  0.75000  Biso   1.000  O
  O29      1.0000 0.69610  0.81440  0.25000  Biso   1.000  O
  O30      1.0000 0.30390  0.18560  0.75000  Biso   1.000  O
  O31      1.0000 0.30390  0.31440  0.25000  Biso   1.000  O
  O32      1.0000 0.69610  0.68560  0.75000  Biso   1.000  O
  O33      1.0000 0.85120  0.87940  0.25000  Biso   1.000  O
  O34      1.0000 0.14880  0.12060  0.75000  Biso   1.000  O
  O35      1.0000 0.14880  0.37940  0.25000  Biso   1.000  O
  O36      1.0000 0.85120  0.62060  0.75000  Biso   1.000  O
  O37      1.0000 0.92500  0.78810  0.25000  Biso   1.000  O
  O38      1.0000 0.07500  0.21190  0.75000  Biso   1.000  O
  O39      1.0000 0.07500  0.28810  0.25000  Biso   1.000  O
  O40      1.0000 0.92500  0.71190  0.75000  Biso   1.000  O
  S1       1.0000 0.32040  0.97913  0.21339  Biso   1.000  S
  S2       1.0000 0.67960  0.02087  0.71339  Biso   1.000  S
  S3       1.0000 0.67960  0.47913  0.28661  Biso   1.000  S
  S4       1.0000 0.32040  0.52087  0.78661  Biso   1.000  S
  S5       1.0000 0.67960  0.02087  0.78661  Biso   1.000  S
  S6       1.0000 0.32040  0.97913  0.28661  Biso   1.000  S
  S7       1.0000 0.32040  0.52087  0.71339  Biso   1.000  S
  S8       1.0000 0.67960  0.47913  0.21339  Biso   1.000  S
  S9       1.0000 0.33040  0.75670  0.25000  Biso   1.000  S
  S10      1.0000 0.66960  0.24330  0.75000  Biso   1.000  S
  S11      1.0000 0.66960  0.25670  0.25000  Biso   1.000  S
  S12      1.0000 0.33040  0.74330  0.75000  Biso   1.000  S
  C109     1.0000 0.44700  0.71880  0.32000  Biso   1.000  C
  C110     1.0000 0.55300  0.28120  0.82000  Biso   1.000  C
  C111     1.0000 0.55300  0.21880  0.18000  Biso   1.000  C
  C112     1.0000 0.44700  0.78120  0.68000  Biso   1.000  C
  C113     1.0000 0.55300  0.28120  0.68000  Biso   1.000  C
  C114     1.0000 0.44700  0.71880  0.18000  Biso   1.000  C
  C115     1.0000 0.44700  0.78120  0.82000  Biso   1.000  C
  C116     1.0000 0.55300  0.21880  0.32000  Biso   1.000  C
  C117     1.0000 0.22020  0.72760  0.21820  Biso   1.000  C
  C118     1.0000 0.77980  0.27240  0.71820  Biso   1.000  C
  C119     1.0000 0.77980  0.22760  0.28180  Biso   1.000  C
  C120     1.0000 0.22020  0.77240  0.78180  Biso   1.000  C
  C121     1.0000 0.77980  0.27240  0.78180  Biso   1.000  C
  C122     1.0000 0.22020  0.72760  0.28180  Biso   1.000  C
  C123     1.0000 0.22020  0.77240  0.71820  Biso   1.000  C
  C124     1.0000 0.77980  0.22760  0.21820  Biso   1.000  C
  C125     1.0000 0.56100  0.79200  0.69600  Biso   1.000  C
  C126     1.0000 0.43900  0.20800  0.19600  Biso   1.000  C
  C127     1.0000 0.43900  0.29200  0.80400  Biso   1.000  C
  C128     1.0000 0.56100  0.70800  0.30400  Biso   1.000  C
  C129     1.0000 0.43900  0.20800  0.30400  Biso   1.000  C
  C130     1.0000 0.56100  0.79200  0.80400  Biso   1.000  C
  C131     1.0000 0.56100  0.70800  0.19600  Biso   1.000  C
  C132     1.0000 0.43900  0.29200  0.69600  Biso   1.000  C
  C133     1.0000 0.25700  0.76920  0.65840  Biso   1.000  C
  C134     1.0000 0.74300  0.23080  0.15840  Biso   1.000  C
  C135     1.0000 0.74300  0.26920  0.84160  Biso   1.000  C
  C136     1.0000 0.25700  0.73080  0.34160  Biso   1.000  C
  C137     1.0000 0.74300  0.23080  0.34160  Biso   1.000  C
  C138     1.0000 0.25700  0.76920  0.84160  Biso   1.000  C
  C139     1.0000 0.25700  0.73080  0.15840  Biso   1.000  C
  C140     1.0000 0.74300  0.26920  0.65840  Biso   1.000  C
  S13      1.0000 0.41040  0.74390  0.72640  Biso   1.000  S
  S14      1.0000 0.58960  0.25610  0.22640  Biso   1.000  S
  S15      1.0000 0.58960  0.24390  0.77360  Biso   1.000  S
  S16      1.0000 0.41040  0.75610  0.27360  Biso   1.000  S
  S17      1.0000 0.58960  0.25610  0.27360  Biso   1.000  S
  S18      1.0000 0.41040  0.74390  0.77360  Biso   1.000  S
  S19      1.0000 0.41040  0.75610  0.22640  Biso   1.000  S
  S20      1.0000 0.58960  0.24390  0.72640  Biso   1.000  S
