data_image0
_cell_length_a       12.953
_cell_length_b       21.626
_cell_length_c       5.253
_cell_angle_alpha    90
_cell_angle_beta     90
_cell_angle_gamma    90

_symmetry_space_group_name_H-M    "P 1"
_symmetry_int_tables_number       1

loop_
  _symmetry_equiv_pos_as_xyz
  'x, y, z'

loop_
  _atom_site_label
  _atom_site_occupancy
  _atom_site_fract_x
  _atom_site_fract_y
  _atom_site_fract_z
  _atom_site_thermal_displace_type
  _atom_site_B_iso_or_equiv
  _atom_site_type_symbol
  Cd1      1.0000 0.00000  0.00000  0.00000  Biso   1.000  Cd
  Cd2      1.0000 0.50000  0.00000  0.50000  Biso   1.000  Cd
  Cd3      1.0000 0.50000  0.50000  0.50000  Biso   1.000  Cd
  Cd4      1.0000 0.00000  0.50000  0.00000  Biso   1.000  Cd
  Cu1      1.0000 0.05034  0.25000  0.16060  Biso   1.000  Cu
  Cu2      1.0000 0.44966  0.75000  0.66060  Biso   1.000  Cu
  Cu3      1.0000 0.55034  0.25000  0.33940  Biso   1.000  Cu
  Cu4      1.0000 0.94966  0.75000  0.83940  Biso   1.000  Cu
  O1       1.0000 0.11400  0.18350  0.95300  Biso   1.000  O
  O2       1.0000 0.38600  0.81650  0.45300  Biso   1.000  O
  O3       1.0000 0.61400  0.31650  0.54700  Biso   1.000  O
  O4       1.0000 0.88600  0.68350  0.04700  Biso   1.000  O
  O5       1.0000 0.88600  0.81650  0.04700  Biso   1.000  O
  O6       1.0000 0.61400  0.18350  0.54700  Biso   1.000  O
  O7       1.0000 0.38600  0.68350  0.45300  Biso   1.000  O
  O8       1.0000 0.11400  0.31650  0.95300  Biso   1.000  O
  O9       1.0000 0.09470  0.08300  0.88000  Biso   1.000  O
  O10      1.0000 0.40530  0.91700  0.38000  Biso   1.000  O
  O11      1.0000 0.59470  0.41700  0.62000  Biso   1.000  O
  O12      1.0000 0.90530  0.58300  0.12000  Biso   1.000  O
  O13      1.0000 0.90530  0.91700  0.12000  Biso   1.000  O
  O14      1.0000 0.59470  0.08300  0.62000  Biso   1.000  O
  O15      1.0000 0.40530  0.58300  0.38000  Biso   1.000  O
  O16      1.0000 0.09470  0.41700  0.88000  Biso   1.000  O
  O17      1.0000 0.93640  0.07880  0.23500  Biso   1.000  O
  O18      1.0000 0.56360  0.92120  0.73500  Biso   1.000  O
  O19      1.0000 0.43640  0.42120  0.26500  Biso   1.000  O
  O20      1.0000 0.06360  0.57880  0.76500  Biso   1.000  O
  O21      1.0000 0.06360  0.92120  0.76500  Biso   1.000  O
  O22      1.0000 0.43640  0.07880  0.26500  Biso   1.000  O
  O23      1.0000 0.56360  0.57880  0.73500  Biso   1.000  O
  O24      1.0000 0.93640  0.42120  0.23500  Biso   1.000  O
  O25      1.0000 0.17500  0.25000  0.47000  Biso   1.000  O
  O26      1.0000 0.32500  0.75000  0.97000  Biso   1.000  O
  O27      1.0000 0.67500  0.25000  0.03000  Biso   1.000  O
  O28      1.0000 0.82500  0.75000  0.53000  Biso   1.000  O
  O29      1.0000 0.12310  0.97730  0.30500  Biso   1.000  O
  O30      1.0000 0.37690  0.02270  0.80500  Biso   1.000  O
  O31      1.0000 0.62310  0.52270  0.19500  Biso   1.000  O
  O32      1.0000 0.87690  0.47730  0.69500  Biso   1.000  O
  O33      1.0000 0.87690  0.02270  0.69500  Biso   1.000  O
  O34      1.0000 0.62310  0.97730  0.19500  Biso   1.000  O
  O35      1.0000 0.37690  0.47730  0.80500  Biso   1.000  O
  O36      1.0000 0.12310  0.52270  0.30500  Biso   1.000  O
  O37      1.0000 0.21230  0.08790  0.43600  Biso   1.000  O
  O38      1.0000 0.28770  0.91210  0.93600  Biso   1.000  O
  O39      1.0000 0.71230  0.41210  0.06400  Biso   1.000  O
  O40      1.0000 0.78770  0.58790  0.56400  Biso   1.000  O
  O41      1.0000 0.78770  0.91210  0.56400  Biso   1.000  O
  O42      1.0000 0.71230  0.08790  0.06400  Biso   1.000  O
  O43      1.0000 0.28770  0.58790  0.93600  Biso   1.000  O
  O44      1.0000 0.21230  0.41210  0.43600  Biso   1.000  O
  N1       1.0000 0.96470  0.18340  0.29000  Biso   1.000  N
  N2       1.0000 0.53530  0.81660  0.79000  Biso   1.000  N
  N3       1.0000 0.46470  0.31660  0.21000  Biso   1.000  N
  N4       1.0000 0.03530  0.68340  0.71000  Biso   1.000  N
  N5       1.0000 0.03530  0.81660  0.71000  Biso   1.000  N
  N6       1.0000 0.46470  0.18340  0.21000  Biso   1.000  N
  N7       1.0000 0.53530  0.68340  0.79000  Biso   1.000  N
  N8       1.0000 0.96470  0.31660  0.29000  Biso   1.000  N
  C1       1.0000 0.07180  0.13160  0.99300  Biso   1.000  C
  C2       1.0000 0.42820  0.86840  0.49300  Biso   1.000  C
  C3       1.0000 0.57180  0.36840  0.50700  Biso   1.000  C
  C4       1.0000 0.92820  0.63160  0.00700  Biso   1.000  C
  C5       1.0000 0.92820  0.86840  0.00700  Biso   1.000  C
  C6       1.0000 0.57180  0.13160  0.50700  Biso   1.000  C
  C7       1.0000 0.42820  0.63160  0.49300  Biso   1.000  C
  C8       1.0000 0.07180  0.36840  0.99300  Biso   1.000  C
  C9       1.0000 0.98310  0.12990  0.19200  Biso   1.000  C
  C10      1.0000 0.51690  0.87010  0.69200  Biso   1.000  C
  C11      1.0000 0.48310  0.37010  0.30800  Biso   1.000  C
  C12      1.0000 0.01690  0.62990  0.80800  Biso   1.000  C
  C13      1.0000 0.01690  0.87010  0.80800  Biso   1.000  C
  C14      1.0000 0.48310  0.12990  0.30800  Biso   1.000  C
  C15      1.0000 0.51690  0.62990  0.69200  Biso   1.000  C
  C16      1.0000 0.98310  0.37010  0.19200  Biso   1.000  C
  C17      1.0000 0.88020  0.19030  0.47500  Biso   1.000  C
  C18      1.0000 0.61980  0.80970  0.97500  Biso   1.000  C
  C19      1.0000 0.38020  0.30970  0.02500  Biso   1.000  C
  C20      1.0000 0.11980  0.69030  0.52500  Biso   1.000  C
  C21      1.0000 0.11980  0.80970  0.52500  Biso   1.000  C
  C22      1.0000 0.38020  0.19030  0.02500  Biso   1.000  C
  C23      1.0000 0.61980  0.69030  0.97500  Biso   1.000  C
  C24      1.0000 0.88020  0.30970  0.47500  Biso   1.000  C
  C25      1.0000 0.89140  0.25000  0.62700  Biso   1.000  C
  C26      1.0000 0.60860  0.75000  0.12700  Biso   1.000  C
  C27      1.0000 0.39140  0.25000  0.87300  Biso   1.000  C
  C28      1.0000 0.10860  0.75000  0.37300  Biso   1.000  C
