data_image0
_cell_length_a       6.8073
_cell_length_b       14.5179
_cell_length_c       26.7825
_cell_angle_alpha    90
_cell_angle_beta     90
_cell_angle_gamma    90

_symmetry_space_group_name_H-M    "P 1"
_symmetry_int_tables_number       1

loop_
  _symmetry_equiv_pos_as_xyz
  'x, y, z'

loop_
  _atom_site_label
  _atom_site_occupancy
  _atom_site_fract_x
  _atom_site_fract_y
  _atom_site_fract_z
  _atom_site_thermal_displace_type
  _atom_site_B_iso_or_equiv
  _atom_site_type_symbol
  Cu1      1.0000 0.30750  0.19504  0.29959  Biso   1.000  Cu
  Cu2      1.0000 0.19250  0.80496  0.79959  Biso   1.000  Cu
  Cu3      1.0000 0.80750  0.30496  0.70041  Biso   1.000  Cu
  Cu4      1.0000 0.69250  0.69504  0.20041  Biso   1.000  Cu
  Cu5      1.0000 0.20583  0.99193  0.24378  Biso   1.000  Cu
  Cu6      1.0000 0.29417  0.00807  0.74378  Biso   1.000  Cu
  Cu7      1.0000 0.70583  0.50807  0.75622  Biso   1.000  Cu
  Cu8      1.0000 0.79417  0.49193  0.25622  Biso   1.000  Cu
  Na1      1.0000 0.64370  0.25746  0.00132  Biso   1.000  Na
  Na2      1.0000 0.85630  0.74254  0.50132  Biso   1.000  Na
  Na3      1.0000 0.14370  0.24254  0.99868  Biso   1.000  Na
  Na4      1.0000 0.35630  0.75746  0.49868  Biso   1.000  Na
  O1       1.0000 0.55790  0.03519  0.35614  Biso   1.000  O
  O2       1.0000 0.94210  0.96481  0.85614  Biso   1.000  O
  O3       1.0000 0.05790  0.46481  0.64386  Biso   1.000  O
  O4       1.0000 0.44210  0.53519  0.14386  Biso   1.000  O
  O5       1.0000 0.39470  0.15295  0.44920  Biso   1.000  O
  O6       1.0000 0.10530  0.84705  0.94920  Biso   1.000  O
  O7       1.0000 0.89470  0.34705  0.55080  Biso   1.000  O
  O8       1.0000 0.60530  0.65295  0.05080  Biso   1.000  O
  O9       1.0000 0.34310  0.18832  0.14791  Biso   1.000  O
  O10      1.0000 0.15690  0.81168  0.64791  Biso   1.000  O
  O11      1.0000 0.84310  0.31168  0.85209  Biso   1.000  O
  O12      1.0000 0.65690  0.68832  0.35209  Biso   1.000  O
  O13      1.0000 0.15080  0.86725  0.37458  Biso   1.000  O
  O14      1.0000 0.34920  0.13275  0.87458  Biso   1.000  O
  O15      1.0000 0.65080  0.63275  0.62542  Biso   1.000  O
  O16      1.0000 0.84920  0.36725  0.12542  Biso   1.000  O
  O17      1.0000 0.69080  0.20194  0.09025  Biso   1.000  O
  O18      1.0000 0.80920  0.79806  0.59025  Biso   1.000  O
  O19      1.0000 0.19080  0.29806  0.90975  Biso   1.000  O
  O20      1.0000 0.30920  0.70194  0.40975  Biso   1.000  O
  O21      1.0000 0.40370  0.14055  0.97758  Biso   1.000  O
  O22      1.0000 0.09630  0.85945  0.47758  Biso   1.000  O
  O23      1.0000 0.90370  0.35945  0.02242  Biso   1.000  O
  O24      1.0000 0.59630  0.64055  0.52242  Biso   1.000  O
  O25      1.0000 0.21380  0.07166  0.30116  Biso   1.000  O
  O26      1.0000 0.28620  0.92834  0.80116  Biso   1.000  O
  O27      1.0000 0.71380  0.42834  0.69884  Biso   1.000  O
  O28      1.0000 0.78620  0.57166  0.19884  Biso   1.000  O
  O29      1.0000 0.58870  0.36070  0.92830  Biso   1.000  O
  O30      1.0000 0.91130  0.63930  0.42830  Biso   1.000  O
  O31      1.0000 0.08870  0.13930  0.07170  Biso   1.000  O
  O32      1.0000 0.41130  0.86070  0.57170  Biso   1.000  O
  O33      1.0000 0.38230  0.34752  0.03086  Biso   1.000  O
  O34      1.0000 0.11770  0.65248  0.53086  Biso   1.000  O
  O35      1.0000 0.88230  0.15248  0.96914  Biso   1.000  O
  O36      1.0000 0.61770  0.84752  0.46914  Biso   1.000  O
  N1       1.0000 0.32640  0.20773  0.37092  Biso   1.000  N
  N2       1.0000 0.17360  0.79227  0.87092  Biso   1.000  N
  N3       1.0000 0.82640  0.29227  0.62908  Biso   1.000  N
  N4       1.0000 0.67360  0.70773  0.12908  Biso   1.000  N
  O37      1.0000 0.19990  0.08152  0.19287  Biso   1.000  O
  O38      1.0000 0.30010  0.91848  0.69287  Biso   1.000  O
  O39      1.0000 0.69990  0.41848  0.80713  Biso   1.000  O
  O40      1.0000 0.80010  0.58152  0.30713  Biso   1.000  O
  O41      1.0000 0.27330  0.36448  0.13059  Biso   1.000  O
  O42      1.0000 0.22670  0.63552  0.63059  Biso   1.000  O
  O43      1.0000 0.77330  0.13552  0.86941  Biso   1.000  O
  O44      1.0000 0.72670  0.86448  0.36941  Biso   1.000  O
  O45      1.0000 0.36630  0.19577  0.22969  Biso   1.000  O
  O46      1.0000 0.13370  0.80423  0.72969  Biso   1.000  O
  O47      1.0000 0.86630  0.30423  0.77031  Biso   1.000  O
  O48      1.0000 0.63370  0.69577  0.27031  Biso   1.000  O
  N5       1.0000 0.19870  0.89641  0.29165  Biso   1.000  N
  N6       1.0000 0.30130  0.10359  0.79165  Biso   1.000  N
  N7       1.0000 0.69870  0.60359  0.70835  Biso   1.000  N
  N8       1.0000 0.80130  0.39641  0.20835  Biso   1.000  N
  N9       1.0000 0.31830  0.33263  0.30129  Biso   1.000  N
  N10      1.0000 0.18170  0.66737  0.80129  Biso   1.000  N
  N11      1.0000 0.81830  0.16737  0.69871  Biso   1.000  N
  N12      1.0000 0.68170  0.83263  0.19871  Biso   1.000  N
  C1       1.0000 0.20090  0.02365  0.34728  Biso   1.000  C
  C2       1.0000 0.29910  0.97635  0.84728  Biso   1.000  C
  C3       1.0000 0.70090  0.47635  0.65272  Biso   1.000  C
  C4       1.0000 0.79910  0.52365  0.15272  Biso   1.000  C
  H1       1.0000 0.08140  0.04410  0.36440  Biso   1.000  H
  H2       1.0000 0.41860  0.95590  0.86440  Biso   1.000  H
  H3       1.0000 0.58140  0.45590  0.63560  Biso   1.000  H
  H4       1.0000 0.91860  0.54410  0.13560  Biso   1.000  H
  O49      1.0000 0.97370  0.70470  0.01086  Biso   1.000  O
  O50      1.0000 0.52630  0.29530  0.51086  Biso   1.000  O
  O51      1.0000 0.47370  0.79530  0.98914  Biso   1.000  O
  O52      1.0000 0.02630  0.20470  0.48914  Biso   1.000  O
  O53      1.0000 0.47100  0.52090  0.98346  Biso   1.000  O
  O54      1.0000 0.02900  0.47910  0.48346  Biso   1.000  O
  O55      1.0000 0.97100  0.97910  0.01654  Biso   1.000  O
  O56      1.0000 0.52900  0.02090  0.51654  Biso   1.000  O
  C5       1.0000 0.31300  0.36909  0.34784  Biso   1.000  C
  C6       1.0000 0.18700  0.63091  0.84784  Biso   1.000  C
  C7       1.0000 0.81300  0.13091  0.65216  Biso   1.000  C
  C8       1.0000 0.68700  0.86909  0.15216  Biso   1.000  C
  N13      1.0000 0.18810  0.88558  0.19622  Biso   1.000  N
  N14      1.0000 0.31190  0.11442  0.69622  Biso   1.000  N
  N15      1.0000 0.68810  0.61442  0.80378  Biso   1.000  N
  N16      1.0000 0.81190  0.38558  0.30378  Biso   1.000  N
  C9       1.0000 0.18400  0.92006  0.33834  Biso   1.000  C
  C10      1.0000 0.31600  0.07994  0.83834  Biso   1.000  C
  C11      1.0000 0.68400  0.57994  0.66166  Biso   1.000  C
  C12      1.0000 0.81600  0.42006  0.16166  Biso   1.000  C
  C13      1.0000 0.30140  0.46420  0.35494  Biso   1.000  C
  C14      1.0000 0.19860  0.53580  0.85494  Biso   1.000  C
  C15      1.0000 0.80140  0.03580  0.64506  Biso   1.000  C
  C16      1.0000 0.69860  0.96420  0.14506  Biso   1.000  C
  H5       1.0000 0.29680  0.48860  0.38700  Biso   1.000  H
  H6       1.0000 0.20320  0.51140  0.88700  Biso   1.000  H
  H7       1.0000 0.79680  0.01140  0.61300  Biso   1.000  H
  H8       1.0000 0.70320  0.98860  0.11300  Biso   1.000  H
  C17      1.0000 0.31870  0.39030  0.26178  Biso   1.000  C
  C18      1.0000 0.18130  0.60970  0.76178  Biso   1.000  C
  C19      1.0000 0.81870  0.10970  0.73822  Biso   1.000  C
  C20      1.0000 0.68130  0.89030  0.23822  Biso   1.000  C
  H9       1.0000 0.32470  0.36520  0.22990  Biso   1.000  H
  H10      1.0000 0.17530  0.63480  0.72990  Biso   1.000  H
  H11      1.0000 0.82470  0.13480  0.77010  Biso   1.000  H
  H12      1.0000 0.67530  0.86520  0.27010  Biso   1.000  H
  C21      1.0000 0.18700  0.89260  0.14600  Biso   1.000  C
  C22      1.0000 0.31300  0.10740  0.64600  Biso   1.000  C
  C23      1.0000 0.68700  0.60740  0.85400  Biso   1.000  C
  C24      1.0000 0.81300  0.39260  0.35400  Biso   1.000  C
  H13      1.0000 0.19190  0.95050  0.13120  Biso   1.000  H
  H14      1.0000 0.30810  0.04950  0.63120  Biso   1.000  H
  H15      1.0000 0.69190  0.54950  0.86880  Biso   1.000  H
  H16      1.0000 0.80810  0.45050  0.36880  Biso   1.000  H
  C25      1.0000 0.18310  0.80200  0.27493  Biso   1.000  C
  C26      1.0000 0.31690  0.19800  0.77493  Biso   1.000  C
  C27      1.0000 0.68310  0.69800  0.72507  Biso   1.000  C
  C28      1.0000 0.81690  0.30200  0.22507  Biso   1.000  C
  H17      1.0000 0.06300  0.77450  0.28750  Biso   1.000  H
  H18      1.0000 0.43700  0.22550  0.78750  Biso   1.000  H
  H19      1.0000 0.56300  0.72550  0.71250  Biso   1.000  H
  H20      1.0000 0.93700  0.27450  0.21250  Biso   1.000  H
  H21      1.0000 0.29360  0.76630  0.28720  Biso   1.000  H
  H22      1.0000 0.20640  0.23370  0.78720  Biso   1.000  H
  H23      1.0000 0.79360  0.73370  0.71280  Biso   1.000  H
  H24      1.0000 0.70640  0.26630  0.21280  Biso   1.000  H
  C29      1.0000 0.36710  0.14140  0.40270  Biso   1.000  C
  C30      1.0000 0.13290  0.85860  0.90270  Biso   1.000  C
  C31      1.0000 0.86710  0.35860  0.59730  Biso   1.000  C
  C32      1.0000 0.63290  0.64140  0.09730  Biso   1.000  C
  C33      1.0000 0.32200  0.30197  0.39033  Biso   1.000  C
  C34      1.0000 0.17800  0.69803  0.89033  Biso   1.000  C
  C35      1.0000 0.82200  0.19803  0.60967  Biso   1.000  C
  C36      1.0000 0.67800  0.80197  0.10967  Biso   1.000  C
  H25      1.0000 0.43880  0.31340  0.41010  Biso   1.000  H
  H26      1.0000 0.06120  0.68660  0.91010  Biso   1.000  H
  H27      1.0000 0.93880  0.18660  0.58990  Biso   1.000  H
  H28      1.0000 0.56120  0.81340  0.08990  Biso   1.000  H
  H29      1.0000 0.20810  0.31000  0.41170  Biso   1.000  H
  H30      1.0000 0.29190  0.69000  0.91170  Biso   1.000  H
  H31      1.0000 0.70810  0.19000  0.58830  Biso   1.000  H
  H32      1.0000 0.79190  0.81000  0.08830  Biso   1.000  H
  C37      1.0000 0.31060  0.48420  0.26654  Biso   1.000  C
  C38      1.0000 0.18940  0.51580  0.76654  Biso   1.000  C
  C39      1.0000 0.81060  0.01580  0.73346  Biso   1.000  C
  C40      1.0000 0.68940  0.98420  0.23346  Biso   1.000  C
  H33      1.0000 0.31440  0.52230  0.23860  Biso   1.000  H
  H34      1.0000 0.18560  0.47770  0.73860  Biso   1.000  H
  H35      1.0000 0.81440  0.97770  0.76140  Biso   1.000  H
  H36      1.0000 0.68560  0.02230  0.26140  Biso   1.000  H
  C41      1.0000 0.37650  0.04419  0.38147  Biso   1.000  C
  C42      1.0000 0.12350  0.95581  0.88147  Biso   1.000  C
  C43      1.0000 0.87650  0.45581  0.61853  Biso   1.000  C
  C44      1.0000 0.62350  0.54419  0.11853  Biso   1.000  C
  H37      1.0000 0.37450  0.00040  0.40930  Biso   1.000  H
  H38      1.0000 0.12550  0.99960  0.90930  Biso   1.000  H
  H39      1.0000 0.87450  0.49960  0.59070  Biso   1.000  H
  H40      1.0000 0.62550  0.50040  0.09070  Biso   1.000  H
  C45      1.0000 0.17420  0.72300  0.18994  Biso   1.000  C
  C46      1.0000 0.32580  0.27700  0.68994  Biso   1.000  C
  C47      1.0000 0.67420  0.77700  0.81006  Biso   1.000  C
  C48      1.0000 0.82580  0.22300  0.31006  Biso   1.000  C
  H41      1.0000 0.16780  0.66590  0.20560  Biso   1.000  H
  H42      1.0000 0.33220  0.33410  0.70560  Biso   1.000  H
  H43      1.0000 0.66780  0.83410  0.79440  Biso   1.000  H
  H44      1.0000 0.83220  0.16590  0.29440  Biso   1.000  H
  O57      1.0000 0.05320  0.52220  0.98185  Biso   1.000  O
  O58      1.0000 0.44680  0.47780  0.48185  Biso   1.000  O
  O59      1.0000 0.55320  0.97780  0.01815  Biso   1.000  O
  O60      1.0000 0.94680  0.02220  0.51815  Biso   1.000  O
  C49      1.0000 0.17630  0.72860  0.13854  Biso   1.000  C
  C50      1.0000 0.32370  0.27140  0.63854  Biso   1.000  C
  C51      1.0000 0.67630  0.77140  0.86146  Biso   1.000  C
  C52      1.0000 0.82370  0.22860  0.36146  Biso   1.000  C
  H45      1.0000 0.17610  0.67530  0.11930  Biso   1.000  H
  H46      1.0000 0.32390  0.32470  0.61930  Biso   1.000  H
  H47      1.0000 0.67610  0.82470  0.88070  Biso   1.000  H
  H48      1.0000 0.82390  0.17530  0.38070  Biso   1.000  H
  C53      1.0000 0.30320  0.15482  0.19050  Biso   1.000  C
  C54      1.0000 0.19680  0.84518  0.69050  Biso   1.000  C
  C55      1.0000 0.80320  0.34518  0.80950  Biso   1.000  C
  C56      1.0000 0.69680  0.65482  0.30950  Biso   1.000  C
  C57      1.0000 0.29670  0.52100  0.31439  Biso   1.000  C
  C58      1.0000 0.20330  0.47900  0.81439  Biso   1.000  C
  C59      1.0000 0.79670  0.97900  0.68561  Biso   1.000  C
  C60      1.0000 0.70330  0.02100  0.18561  Biso   1.000  C
  H49      1.0000 0.28430  0.58430  0.31870  Biso   1.000  H
  H50      1.0000 0.21570  0.41570  0.81870  Biso   1.000  H
  H51      1.0000 0.78430  0.91570  0.68130  Biso   1.000  H
  H52      1.0000 0.71570  0.08430  0.18130  Biso   1.000  H
  C61      1.0000 0.17860  0.81400  0.11607  Biso   1.000  C
  C62      1.0000 0.32140  0.18600  0.61607  Biso   1.000  C
  C63      1.0000 0.67860  0.68600  0.88393  Biso   1.000  C
  C64      1.0000 0.82140  0.31400  0.38393  Biso   1.000  C
  H53      1.0000 0.17460  0.81920  0.08150  Biso   1.000  H
  H54      1.0000 0.32540  0.18080  0.58150  Biso   1.000  H
  H55      1.0000 0.67460  0.68080  0.91850  Biso   1.000  H
  H56      1.0000 0.82540  0.31920  0.41850  Biso   1.000  H
  C65      1.0000 0.18170  0.80230  0.21780  Biso   1.000  C
  C66      1.0000 0.31830  0.19770  0.71780  Biso   1.000  C
  C67      1.0000 0.68170  0.69770  0.78220  Biso   1.000  C
  C68      1.0000 0.81830  0.30230  0.28220  Biso   1.000  C
  H57      1.0000 0.58500  0.19500  0.11340  Biso   1.000  H
  H58      1.0000 0.91500  0.80500  0.61340  Biso   1.000  H
  H59      1.0000 0.08500  0.30500  0.88660  Biso   1.000  H
  H60      1.0000 0.41500  0.69500  0.38660  Biso   1.000  H
  H61      1.0000 0.13600  0.36500  0.12560  Biso   1.000  H
  H62      1.0000 0.36400  0.63500  0.62560  Biso   1.000  H
  H63      1.0000 0.63600  0.13500  0.87440  Biso   1.000  H
  H64      1.0000 0.86400  0.86500  0.37440  Biso   1.000  H
  H65      1.0000 0.31300  0.30130  0.13520  Biso   1.000  H
  H66      1.0000 0.18700  0.69870  0.63520  Biso   1.000  H
  H67      1.0000 0.81300  0.19870  0.86480  Biso   1.000  H
  H68      1.0000 0.68700  0.80130  0.36480  Biso   1.000  H
  H69      1.0000 0.45100  0.34500  0.91930  Biso   1.000  H
  H70      1.0000 0.04900  0.65500  0.41930  Biso   1.000  H
  H71      1.0000 0.95100  0.15500  0.08070  Biso   1.000  H
  H72      1.0000 0.54900  0.84500  0.58070  Biso   1.000  H
  H73      1.0000 0.68900  0.24100  0.11980  Biso   1.000  H
  H74      1.0000 0.81100  0.75900  0.61980  Biso   1.000  H
  H75      1.0000 0.18900  0.25900  0.88020  Biso   1.000  H
  H76      1.0000 0.31100  0.74100  0.38020  Biso   1.000  H
  H77      1.0000 0.42900  0.40500  0.01860  Biso   1.000  H
  H78      1.0000 0.07100  0.59500  0.51860  Biso   1.000  H
  H79      1.0000 0.92900  0.09500  0.98140  Biso   1.000  H
  H80      1.0000 0.57100  0.90500  0.48140  Biso   1.000  H
  H81      1.0000 0.70100  0.35800  0.90510  Biso   1.000  H
  H82      1.0000 0.79900  0.64200  0.40510  Biso   1.000  H
  H83      1.0000 0.20100  0.14200  0.09490  Biso   1.000  H
  H84      1.0000 0.29900  0.85800  0.59490  Biso   1.000  H
  H85      1.0000 0.60400  0.97170  0.35410  Biso   1.000  H
  H86      1.0000 0.89600  0.02830  0.85410  Biso   1.000  H
  H87      1.0000 0.10400  0.52830  0.64590  Biso   1.000  H
  H88      1.0000 0.39600  0.47170  0.14590  Biso   1.000  H
  H89      1.0000 0.36600  0.37100  0.06480  Biso   1.000  H
  H90      1.0000 0.13400  0.62900  0.56480  Biso   1.000  H
  H91      1.0000 0.86600  0.12900  0.93520  Biso   1.000  H
  H92      1.0000 0.63400  0.87100  0.43520  Biso   1.000  H
  H93      1.0000 0.55400  0.56900  0.99520  Biso   1.000  H
  H94      1.0000 0.94600  0.43100  0.49520  Biso   1.000  H
  H95      1.0000 0.05400  0.93100  0.00480  Biso   1.000  H
  H96      1.0000 0.44600  0.06900  0.50480  Biso   1.000  H
  H97      1.0000 0.32300  0.11100  0.95100  Biso   1.000  H
  H98      1.0000 0.17700  0.88900  0.45100  Biso   1.000  H
  H99      1.0000 0.82300  0.38900  0.04900  Biso   1.000  H
  H100     1.0000 0.67700  0.61100  0.54900  Biso   1.000  H
  H101     1.0000 0.53800  0.49200  0.95540  Biso   1.000  H
  H102     1.0000 0.96200  0.50800  0.45540  Biso   1.000  H
  H103     1.0000 0.03800  0.00800  0.04460  Biso   1.000  H
  H104     1.0000 0.46200  0.99200  0.54460  Biso   1.000  H
  H105     1.0000 0.49200  0.09500  0.99230  Biso   1.000  H
  H106     1.0000 0.00800  0.90500  0.49230  Biso   1.000  H
  H107     1.0000 0.99200  0.40500  0.00770  Biso   1.000  H
  H108     1.0000 0.50800  0.59500  0.50770  Biso   1.000  H
  H109     1.0000 0.15600  0.51400  0.00760  Biso   1.000  H
  H110     1.0000 0.34400  0.48600  0.50760  Biso   1.000  H
  H111     1.0000 0.65600  0.98600  0.99240  Biso   1.000  H
  H112     1.0000 0.84400  0.01400  0.49240  Biso   1.000  H
  H113     1.0000 0.97300  0.55900  0.00490  Biso   1.000  H
  H114     1.0000 0.52700  0.44100  0.50490  Biso   1.000  H
  H115     1.0000 0.47300  0.94100  0.99510  Biso   1.000  H
  H116     1.0000 0.02700  0.05900  0.49510  Biso   1.000  H
  H117     1.0000 0.84300  0.72000  0.99800  Biso   1.000  H
  H118     1.0000 0.65700  0.28000  0.49800  Biso   1.000  H
  H119     1.0000 0.34300  0.78000  0.00200  Biso   1.000  H
  H120     1.0000 0.15700  0.22000  0.50200  Biso   1.000  H
  H121     1.0000 0.94000  0.64500  0.02800  Biso   1.000  H
  H122     1.0000 0.56000  0.35500  0.52800  Biso   1.000  H
  H123     1.0000 0.44000  0.85500  0.97200  Biso   1.000  H
  H124     1.0000 0.06000  0.14500  0.47200  Biso   1.000  H
