data_image0
_cell_length_a       13.003
_cell_length_b       13.901
_cell_length_c       14.677
_cell_angle_alpha    67.336
_cell_angle_beta     68.221
_cell_angle_gamma    65.221

_symmetry_space_group_name_H-M    "P 1"
_symmetry_int_tables_number       1

loop_
  _symmetry_equiv_pos_as_xyz
  'x, y, z'

loop_
  _atom_site_label
  _atom_site_occupancy
  _atom_site_fract_x
  _atom_site_fract_y
  _atom_site_fract_z
  _atom_site_thermal_displace_type
  _atom_site_B_iso_or_equiv
  _atom_site_type_symbol
  Cu1      1.0000 0.57281  0.06189  0.53401  Biso   1.000  Cu
  Cu2      1.0000 0.42719  0.93811  0.46599  Biso   1.000  Cu
  Cu3      1.0000 0.42357  0.10920  0.90845  Biso   1.000  Cu
  Cu4      1.0000 0.57643  0.89080  0.09155  Biso   1.000  Cu
  Cl1      1.0000 0.39125  0.03922  0.60634  Biso   1.000  Cl
  Cl2      1.0000 0.60875  0.96078  0.39366  Biso   1.000  Cl
  Cl3      1.0000 0.60264  0.97119  0.88858  Biso   1.000  Cl
  Cl4      1.0000 0.39736  0.02881  0.11142  Biso   1.000  Cl
  Cl5      1.0000 0.95292  0.99091  0.75960  Biso   1.000  Cl
  Cl6      1.0000 0.04708  0.00909  0.24040  Biso   1.000  Cl
  Cl7      1.0000 0.16029  0.60274  0.05621  Biso   1.000  Cl
  Cl8      1.0000 0.83971  0.39726  0.94379  Biso   1.000  Cl
  O1       1.0000 0.05712  0.02118  0.72330  Biso   1.000  O
  O2       1.0000 0.94288  0.97882  0.27670  Biso   1.000  O
  O3       1.0000 0.95215  0.94147  0.68971  Biso   1.000  O
  O4       1.0000 0.04785  0.05853  0.31029  Biso   1.000  O
  O5       1.0000 0.95210  0.91340  0.85805  Biso   1.000  O
  O6       1.0000 0.04790  0.08660  0.14195  Biso   1.000  O
  O7       1.0000 0.85222  0.08780  0.76480  Biso   1.000  O
  O8       1.0000 0.14778  0.91220  0.23520  Biso   1.000  O
  O9       1.0000 0.11264  0.70346  0.08477  Biso   1.000  O
  O10      1.0000 0.88736  0.29654  0.91523  Biso   1.000  O
  O11      1.0000 0.06651  0.56688  0.06565  Biso   1.000  O
  O12      1.0000 0.93349  0.43312  0.93435  Biso   1.000  O
  O13      1.0000 0.23039  0.61840  0.95271  Biso   1.000  O
  O14      1.0000 0.76961  0.38160  0.04729  Biso   1.000  O
  O15      1.0000 0.23314  0.51785  0.12226  Biso   1.000  O
  O16      1.0000 0.76686  0.48215  0.87774  Biso   1.000  O
  O17      1.0000 0.12470  0.35750  0.60012  Biso   1.000  O
  O18      1.0000 0.87530  0.64250  0.39988  Biso   1.000  O
  N1       1.0000 0.65309  0.91535  0.62024  Biso   1.000  N
  N2       1.0000 0.34691  0.08465  0.37976  Biso   1.000  N
  N3       1.0000 0.72672  0.08660  0.51334  Biso   1.000  N
  N4       1.0000 0.27328  0.91340  0.48666  Biso   1.000  N
  N5       1.0000 0.51370  0.21195  0.44163  Biso   1.000  N
  N6       1.0000 0.48630  0.78805  0.55837  Biso   1.000  N
  N7       1.0000 0.48893  0.21613  0.91012  Biso   1.000  N
  N8       1.0000 0.51107  0.78387  0.08988  Biso   1.000  N
  N9       1.0000 0.27604  0.23786  0.87001  Biso   1.000  N
  N10      1.0000 0.72396  0.76214  0.12999  Biso   1.000  N
  N11      1.0000 0.33507  0.02154  0.90510  Biso   1.000  N
  N12      1.0000 0.66493  0.97846  0.09490  Biso   1.000  N
  N13      1.0000 0.85390  0.38810  0.33380  Biso   1.000  N
  N14      1.0000 0.14610  0.61190  0.66620  Biso   1.000  N
  C1       1.0000 0.60440  0.84110  0.69581  Biso   1.000  C
  C2       1.0000 0.39560  0.15890  0.30419  Biso   1.000  C
  H1       1.0000 0.52190  0.85820  0.71450  Biso   1.000  H
  H2       1.0000 0.47810  0.14180  0.28550  Biso   1.000  H
  C3       1.0000 0.67150  0.74180  0.74610  Biso   1.000  C
  C4       1.0000 0.32850  0.25820  0.25390  Biso   1.000  C
  H3       1.0000 0.63510  0.69150  0.79920  Biso   1.000  H
  H4       1.0000 0.36490  0.30850  0.20080  Biso   1.000  H
  C5       1.0000 0.79140  0.71520  0.71930  Biso   1.000  C
  C6       1.0000 0.20860  0.28480  0.28070  Biso   1.000  C
  H5       1.0000 0.83880  0.64630  0.75230  Biso   1.000  H
  H6       1.0000 0.16120  0.35370  0.24770  Biso   1.000  H
  C7       1.0000 0.84150  0.79150  0.64300  Biso   1.000  C
  C8       1.0000 0.15850  0.20850  0.35700  Biso   1.000  C
  H7       1.0000 0.92390  0.77590  0.62360  Biso   1.000  H
  H8       1.0000 0.07610  0.22410  0.37640  Biso   1.000  H
  C9       1.0000 0.77030  0.89020  0.59566  Biso   1.000  C
  C10      1.0000 0.22970  0.10980  0.40434  Biso   1.000  C
  C11      1.0000 0.81640  0.97720  0.51200  Biso   1.000  C
  C12      1.0000 0.18360  0.02280  0.48800  Biso   1.000  C
  H9       1.0000 0.88880  0.97500  0.52180  Biso   1.000  H
  H10      1.0000 0.11120  0.02500  0.47820  Biso   1.000  H
  H11      1.0000 0.83560  0.96350  0.44520  Biso   1.000  H
  H12      1.0000 0.16440  0.03650  0.55480  Biso   1.000  H
  C13      1.0000 0.76180  0.16930  0.41692  Biso   1.000  C
  C14      1.0000 0.23820  0.83070  0.58308  Biso   1.000  C
  H13      1.0000 0.84820  0.14630  0.39340  Biso   1.000  H
  H14      1.0000 0.15180  0.85370  0.60660  Biso   1.000  H
  H15      1.0000 0.73430  0.24150  0.43090  Biso   1.000  H
  H16      1.0000 0.26570  0.75850  0.56910  Biso   1.000  H
  C15      1.0000 0.71140  0.18200  0.33236  Biso   1.000  C
  C16      1.0000 0.28860  0.81800  0.66764  Biso   1.000  C
  H17      1.0000 0.75480  0.21830  0.26560  Biso   1.000  H
  H18      1.0000 0.24520  0.78170  0.73440  Biso   1.000  H
  H19      1.0000 0.72030  0.10850  0.33030  Biso   1.000  H
  H20      1.0000 0.27970  0.89150  0.66970  Biso   1.000  H
  C17      1.0000 0.58460  0.24970  0.35177  Biso   1.000  C
  C18      1.0000 0.41540  0.75030  0.64823  Biso   1.000  C
  C19      1.0000 0.54330  0.35030  0.28450  Biso   1.000  C
  C20      1.0000 0.45670  0.64970  0.71550  Biso   1.000  C
  H21      1.0000 0.59380  0.37460  0.22110  Biso   1.000  H
  H22      1.0000 0.40620  0.62540  0.77890  Biso   1.000  H
  C21      1.0000 0.42760  0.41560  0.31030  Biso   1.000  C
  C22      1.0000 0.57240  0.58440  0.68970  Biso   1.000  C
  H23      1.0000 0.39760  0.48400  0.26430  Biso   1.000  H
  H24      1.0000 0.60240  0.51600  0.73570  Biso   1.000  H
  C23      1.0000 0.35690  0.37930  0.40410  Biso   1.000  C
  C24      1.0000 0.64310  0.62070  0.59590  Biso   1.000  C
  H25      1.0000 0.27850  0.42390  0.42510  Biso   1.000  H
  H26      1.0000 0.72150  0.57610  0.57490  Biso   1.000  H
  C25      1.0000 0.40220  0.27710  0.46690  Biso   1.000  C
  C26      1.0000 0.59780  0.72290  0.53310  Biso   1.000  C
  H27      1.0000 0.35270  0.25170  0.53060  Biso   1.000  H
  H28      1.0000 0.64730  0.74830  0.46940  Biso   1.000  H
  C27      1.0000 0.72170  0.11670  0.60335  Biso   1.000  C
  C28      1.0000 0.27830  0.88330  0.39665  Biso   1.000  C
  H29      1.0000 0.71990  0.05270  0.66430  Biso   1.000  H
  H30      1.0000 0.28010  0.94730  0.33570  Biso   1.000  H
  H31      1.0000 0.79340  0.13400  0.58990  Biso   1.000  H
  H32      1.0000 0.20660  0.86600  0.41010  Biso   1.000  H
  C29      1.0000 0.61630  0.21390  0.62490  Biso   1.000  C
  C30      1.0000 0.38370  0.78610  0.37510  Biso   1.000  C
  C31      1.0000 0.62300  0.31960  0.59270  Biso   1.000  C
  C32      1.0000 0.37700  0.68040  0.40730  Biso   1.000  C
  H33      1.0000 0.69660  0.33110  0.55930  Biso   1.000  H
  H34      1.0000 0.30340  0.66890  0.44070  Biso   1.000  H
  C33      1.0000 0.52340  0.40820  0.60890  Biso   1.000  C
  C34      1.0000 0.47660  0.59180  0.39110  Biso   1.000  C
  H35      1.0000 0.52910  0.48010  0.58520  Biso   1.000  H
  H36      1.0000 0.47090  0.51990  0.41480  Biso   1.000  H
  C35      1.0000 0.41550  0.39330  0.65900  Biso   1.000  C
  C36      1.0000 0.58450  0.60670  0.34100  Biso   1.000  C
  H37      1.0000 0.34740  0.45510  0.66810  Biso   1.000  H
  H38      1.0000 0.65260  0.54490  0.33190  Biso   1.000  H
  C37      1.0000 0.40640  0.28750  0.69630  Biso   1.000  C
  C38      1.0000 0.59360  0.71250  0.30370  Biso   1.000  C
  C39      1.0000 0.50710  0.19930  0.67852  Biso   1.000  C
  C40      1.0000 0.49290  0.80070  0.32148  Biso   1.000  C
  H39      1.0000 0.50180  0.12710  0.70350  Biso   1.000  H
  H40      1.0000 0.49820  0.87290  0.29650  Biso   1.000  H
  C41      1.0000 0.29160  0.26800  0.75636  Biso   1.000  C
  C42      1.0000 0.70840  0.73200  0.24364  Biso   1.000  C
  H41      1.0000 0.28700  0.20780  0.73930  Biso   1.000  H
  H42      1.0000 0.71300  0.79220  0.26070  Biso   1.000  H
  H43      1.0000 0.22700  0.33540  0.73650  Biso   1.000  H
  H44      1.0000 0.77300  0.66460  0.26350  Biso   1.000  H
  C43      1.0000 0.60300  0.20740  0.86813  Biso   1.000  C
  C44      1.0000 0.39700  0.79260  0.13187  Biso   1.000  C
  H45      1.0000 0.65210  0.15130  0.83460  Biso   1.000  H
  H46      1.0000 0.34790  0.84870  0.16540  Biso   1.000  H
  C45      1.0000 0.65080  0.27740  0.87220  Biso   1.000  C
  C46      1.0000 0.34920  0.72260  0.12780  Biso   1.000  C
  H47      1.0000 0.73130  0.26980  0.84170  Biso   1.000  H
  H48      1.0000 0.26870  0.73020  0.15830  Biso   1.000  H
  C47      1.0000 0.57940  0.35850  0.92140  Biso   1.000  C
  C48      1.0000 0.42060  0.64150  0.07860  Biso   1.000  C
  H49      1.0000 0.61040  0.40680  0.92590  Biso   1.000  H
  H50      1.0000 0.38960  0.59320  0.07410  Biso   1.000  H
  C49      1.0000 0.46280  0.36860  0.96370  Biso   1.000  C
  C50      1.0000 0.53720  0.63140  0.03630  Biso   1.000  C
  H51      1.0000 0.41270  0.42410  0.99760  Biso   1.000  H
  H52      1.0000 0.58730  0.57590  0.00240  Biso   1.000  H
  C51      1.0000 0.41860  0.29680  0.95640  Biso   1.000  C
  C52      1.0000 0.58140  0.70320  0.04360  Biso   1.000  C
  C53      1.0000 0.29020  0.31230  0.99278  Biso   1.000  C
  C54      1.0000 0.70980  0.68770  0.00722  Biso   1.000  C
  H53      1.0000 0.24900  0.37320  0.02570  Biso   1.000  H
  H54      1.0000 0.75100  0.62680  0.97430  Biso   1.000  H
  H55      1.0000 0.27670  0.24430  0.04370  Biso   1.000  H
  H56      1.0000 0.72330  0.75570  0.95630  Biso   1.000  H
  C55      1.0000 0.24300  0.33890  0.90220  Biso   1.000  C
  C56      1.0000 0.75700  0.66110  0.09780  Biso   1.000  C
  H57      1.0000 0.15670  0.37130  0.92080  Biso   1.000  H
  H58      1.0000 0.84330  0.62870  0.07920  Biso   1.000  H
  H59      1.0000 0.27470  0.39400  0.84440  Biso   1.000  H
  H60      1.0000 0.72530  0.60600  0.15560  Biso   1.000  H
  C57      1.0000 0.17980  0.18900  0.92410  Biso   1.000  C
  C58      1.0000 0.82020  0.81100  0.07590  Biso   1.000  C
  H61      1.0000 0.11100  0.23580  0.89540  Biso   1.000  H
  H62      1.0000 0.88900  0.76420  0.10460  Biso   1.000  H
  H63      1.0000 0.15610  0.18560  0.99740  Biso   1.000  H
  H64      1.0000 0.84390  0.81440  0.00260  Biso   1.000  H
  C59      1.0000 0.22010  0.07590  0.91238  Biso   1.000  C
  C60      1.0000 0.77990  0.92410  0.08762  Biso   1.000  C
  C61      1.0000 0.14550  0.03000  0.91040  Biso   1.000  C
  C62      1.0000 0.85450  0.97000  0.08960  Biso   1.000  C
  H65      1.0000 0.06490  0.07070  0.91520  Biso   1.000  H
  H66      1.0000 0.93510  0.92930  0.08480  Biso   1.000  H
  C63      1.0000 0.19060  0.92300  0.90140  Biso   1.000  C
  C64      1.0000 0.80940  0.07700  0.09860  Biso   1.000  C
  H67      1.0000 0.14120  0.88910  0.90040  Biso   1.000  H
  H68      1.0000 0.85880  0.11090  0.09960  Biso   1.000  H
  C65      1.0000 0.30820  0.86730  0.89410  Biso   1.000  C
  C66      1.0000 0.69180  0.13270  0.10590  Biso   1.000  C
  H69      1.0000 0.34080  0.79400  0.88820  Biso   1.000  H
  H70      1.0000 0.65920  0.20600  0.11180  Biso   1.000  H
  C67      1.0000 0.37840  0.91880  0.89542  Biso   1.000  C
  C68      1.0000 0.62160  0.08120  0.10458  Biso   1.000  C
  H71      1.0000 0.45960  0.88030  0.88930  Biso   1.000  H
  H72      1.0000 0.54040  0.11970  0.11070  Biso   1.000  H
  C69      1.0000 0.09570  0.26610  0.61250  Biso   1.000  C
  C70      1.0000 0.90430  0.73390  0.38750  Biso   1.000  C
  H73      1.0000 0.11010  0.20980  0.67690  Biso   1.000  H
  H74      1.0000 0.88990  0.79020  0.32310  Biso   1.000  H
  H75      1.0000 0.14360  0.23280  0.55520  Biso   1.000  H
  H76      1.0000 0.85640  0.76720  0.44480  Biso   1.000  H
  C71      1.0000 0.96750  0.30680  0.61480  Biso   1.000  C
  C72      1.0000 0.03250  0.69320  0.38520  Biso   1.000  C
  H77      1.0000 0.95680  0.31860  0.54750  Biso   1.000  H
  H78      1.0000 0.04320  0.68140  0.45250  Biso   1.000  H
  H79      1.0000 0.92770  0.25430  0.66700  Biso   1.000  H
  H80      1.0000 0.07230  0.74570  0.33300  Biso   1.000  H
  C73      1.0000 0.92370  0.41050  0.64080  Biso   1.000  C
  C74      1.0000 0.07630  0.58950  0.35920  Biso   1.000  C
  H81      1.0000 0.86210  0.40780  0.70560  Biso   1.000  H
  H82      1.0000 0.13790  0.59220  0.29440  Biso   1.000  H
  H83      1.0000 0.88980  0.47200  0.58650  Biso   1.000  H
  H84      1.0000 0.11020  0.52800  0.41350  Biso   1.000  H
  C75      1.0000 0.02260  0.42680  0.65120  Biso   1.000  C
  C76      1.0000 0.97740  0.57320  0.34880  Biso   1.000  C
  H85      1.0000 0.01960  0.50470  0.61990  Biso   1.000  H
  H86      1.0000 0.98040  0.49530  0.38010  Biso   1.000  H
  H87      1.0000 0.02110  0.40670  0.72400  Biso   1.000  H
  H88      1.0000 0.97890  0.59330  0.27600  Biso   1.000  H
  C77      1.0000 0.97780  0.34030  0.16430  Biso   1.000  C
  C78      1.0000 0.02220  0.65970  0.83570  Biso   1.000  C
  H89      1.0000 0.03120  0.26450  0.17920  Biso   1.000  H
  H90      1.0000 0.96880  0.73550  0.82080  Biso   1.000  H
  H91      1.0000 0.02310  0.39070  0.12360  Biso   1.000  H
  H92      1.0000 0.97690  0.60930  0.87640  Biso   1.000  H
  H93      1.0000 0.92640  0.34640  0.12610  Biso   1.000  H
  H94      1.0000 0.07360  0.65360  0.87390  Biso   1.000  H
  C79      1.0000 0.90760  0.36850  0.25900  Biso   1.000  C
  C80      1.0000 0.09240  0.63150  0.74100  Biso   1.000  C
