data_image0
_cell_length_a       12.479
_cell_length_b       13.425
_cell_length_c       13.518
_cell_angle_alpha    97.97
_cell_angle_beta     105.575
_cell_angle_gamma    114.903

_symmetry_space_group_name_H-M    "P 1"
_symmetry_int_tables_number       1

loop_
  _symmetry_equiv_pos_as_xyz
  'x, y, z'

loop_
  _atom_site_label
  _atom_site_occupancy
  _atom_site_fract_x
  _atom_site_fract_y
  _atom_site_fract_z
  _atom_site_thermal_displace_type
  _atom_site_B_iso_or_equiv
  _atom_site_type_symbol
  Cu1      1.0000 0.37413  0.35869  0.97619  Biso   1.000  Cu
  Cu2      1.0000 0.62587  0.64131  0.02381  Biso   1.000  Cu
  Cu3      1.0000 0.15320  0.03378  0.58615  Biso   1.000  Cu
  Cu4      1.0000 0.84680  0.96622  0.41385  Biso   1.000  Cu
  Cl1      1.0000 0.52142  0.42571  0.89500  Biso   1.000  Cl
  Cl2      1.0000 0.47858  0.57429  0.10500  Biso   1.000  Cl
  Cl3      1.0000 0.99755  0.06552  0.62072  Biso   1.000  Cl
  Cl4      1.0000 0.00245  0.93448  0.37928  Biso   1.000  Cl
  Cl5      1.0000 0.26631  0.59304  0.36639  Biso   1.000  Cl
  Cl6      1.0000 0.73369  0.40696  0.63361  Biso   1.000  Cl
  Cl7      1.0000 0.25330  0.59100  0.43110  Biso   1.000  Cl
  Cl8      1.0000 0.74670  0.40900  0.56890  Biso   1.000  Cl
  Cl9      1.0000 0.27117  0.96894  0.22477  Biso   1.000  Cl
  Cl10     1.0000 0.72883  0.03106  0.77523  Biso   1.000  Cl
  O1       1.0000 0.14360  0.59260  0.33470  Biso   1.000  O
  O2       1.0000 0.85640  0.40740  0.66530  Biso   1.000  O
  O3       1.0000 0.25400  0.48830  0.31320  Biso   1.000  O
  O4       1.0000 0.74600  0.51170  0.68680  Biso   1.000  O
  O5       1.0000 0.35330  0.68590  0.34020  Biso   1.000  O
  O6       1.0000 0.64670  0.31410  0.65980  Biso   1.000  O
  O7       1.0000 0.31190  0.61100  0.48010  Biso   1.000  O
  O8       1.0000 0.68810  0.38900  0.51990  Biso   1.000  O
  O9       1.0000 0.15400  0.59100  0.36300  Biso   1.000  O
  O10      1.0000 0.84600  0.40900  0.63700  Biso   1.000  O
  O11      1.0000 0.29180  0.52210  0.37170  Biso   1.000  O
  O12      1.0000 0.70820  0.47790  0.62830  Biso   1.000  O
  O13      1.0000 0.36150  0.70650  0.48230  Biso   1.000  O
  O14      1.0000 0.63850  0.29350  0.51770  Biso   1.000  O
  O15      1.0000 0.21680  0.54330  0.51130  Biso   1.000  O
  O16      1.0000 0.78320  0.45670  0.48870  Biso   1.000  O
  O17      1.0000 0.29420  0.91930  0.30700  Biso   1.000  O
  O18      1.0000 0.70580  0.08070  0.69300  Biso   1.000  O
  O19      1.0000 0.15540  0.90670  0.13970  Biso   1.000  O
  O20      1.0000 0.84460  0.09330  0.86030  Biso   1.000  O
  O21      1.0000 0.27760  0.07780  0.27520  Biso   1.000  O
  O22      1.0000 0.72240  0.92220  0.72480  Biso   1.000  O
  O23      1.0000 0.37400  0.00360  0.18600  Biso   1.000  O
  O24      1.0000 0.62600  0.99640  0.81400  Biso   1.000  O
  O25      1.0000 0.15600  0.85690  0.20800  Biso   1.000  O
  O26      1.0000 0.84400  0.14310  0.79200  Biso   1.000  O
  O27      1.0000 0.21100  0.02300  0.19800  Biso   1.000  O
  O28      1.0000 0.78900  0.97700  0.80200  Biso   1.000  O
  O29      1.0000 0.30750  0.91130  0.14150  Biso   1.000  O
  O30      1.0000 0.69250  0.08870  0.85850  Biso   1.000  O
  N1       1.0000 0.25500  0.38780  0.87290  Biso   1.000  N
  N2       1.0000 0.74500  0.61220  0.12710  Biso   1.000  N
  N3       1.0000 0.14070  0.35130  0.88430  Biso   1.000  N
  N4       1.0000 0.85930  0.64870  0.11570  Biso   1.000  N
  N5       1.0000 0.20330  0.25020  0.99440  Biso   1.000  N
  N6       1.0000 0.79670  0.74980  0.00560  Biso   1.000  N
  N7       1.0000 0.47370  0.31960  0.08875  Biso   1.000  N
  N8       1.0000 0.52630  0.68040  0.91125  Biso   1.000  N
  N9       1.0000 0.09990  0.88240  0.61391  Biso   1.000  N
  N10      1.0000 0.90010  0.11760  0.38609  Biso   1.000  N
  N11      1.0000 0.33812  0.05754  0.60863  Biso   1.000  N
  N12      1.0000 0.66188  0.94246  0.39137  Biso   1.000  N
  N13      1.0000 0.33660  0.20780  0.53818  Biso   1.000  N
  N14      1.0000 0.66340  0.79220  0.46182  Biso   1.000  N
  N15      1.0000 0.22820  0.18210  0.55674  Biso   1.000  N
  N16      1.0000 0.77180  0.81790  0.44326  Biso   1.000  N
  N17      1.0000 0.06800  0.63550  0.92350  Biso   1.000  N
  N18      1.0000 0.93200  0.36450  0.07650  Biso   1.000  N
  C1       1.0000 0.24450  0.42380  0.78620  Biso   1.000  C
  C2       1.0000 0.75550  0.57620  0.21380  Biso   1.000  C
  H1       1.0000 0.30980  0.45360  0.75800  Biso   1.000  H
  H2       1.0000 0.69020  0.54640  0.24200  Biso   1.000  H
  C3       1.0000 0.12360  0.41150  0.74230  Biso   1.000  C
  C4       1.0000 0.87640  0.58850  0.25770  Biso   1.000  C
  H3       1.0000 0.09190  0.43180  0.68060  Biso   1.000  H
  H4       1.0000 0.90810  0.56820  0.31940  Biso   1.000  H
  C5       1.0000 0.05960  0.36430  0.80590  Biso   1.000  C
  C6       1.0000 0.94040  0.63570  0.19410  Biso   1.000  C
  H5       1.0000 0.97420  0.34450  0.79640  Biso   1.000  H
  H6       1.0000 0.02580  0.65550  0.20360  Biso   1.000  H
  C7       1.0000 0.12830  0.31100  0.97690  Biso   1.000  C
  C8       1.0000 0.87170  0.68900  0.02310  Biso   1.000  C
  H7       1.0000 0.03820  0.25860  0.96330  Biso   1.000  H
  H8       1.0000 0.96180  0.74140  0.03670  Biso   1.000  H
  H9       1.0000 0.16110  0.37650  0.04070  Biso   1.000  H
  H10      1.0000 0.83890  0.62350  0.95930  Biso   1.000  H
  C9       1.0000 0.21790  0.23100  0.10240  Biso   1.000  C
  C10      1.0000 0.78210  0.76900  0.89760  Biso   1.000  C
  H11      1.0000 0.21940  0.15760  0.10030  Biso   1.000  H
  H12      1.0000 0.78060  0.84240  0.89970  Biso   1.000  H
  H13      1.0000 0.14380  0.22480  0.12020  Biso   1.000  H
  H14      1.0000 0.85620  0.77520  0.87980  Biso   1.000  H
  C11      1.0000 0.33800  0.32700  0.18890  Biso   1.000  C
  C12      1.0000 0.66200  0.67300  0.81110  Biso   1.000  C
  H15      1.0000 0.34740  0.40190  0.18010  Biso   1.000  H
  H16      1.0000 0.65260  0.59810  0.81990  Biso   1.000  H
  H17      1.0000 0.33280  0.32370  0.26030  Biso   1.000  H
  H18      1.0000 0.66720  0.67630  0.73970  Biso   1.000  H
  C13      1.0000 0.45100  0.31650  0.18220  Biso   1.000  C
  C14      1.0000 0.54900  0.68350  0.81780  Biso   1.000  C
  C15      1.0000 0.52710  0.29860  0.26550  Biso   1.000  C
  C16      1.0000 0.47290  0.70140  0.73450  Biso   1.000  C
  H19      1.0000 0.51170  0.29840  0.33060  Biso   1.000  H
  H20      1.0000 0.48830  0.70160  0.66940  Biso   1.000  H
  C17      1.0000 0.62420  0.28130  0.25430  Biso   1.000  C
  C18      1.0000 0.37580  0.71870  0.74570  Biso   1.000  C
  H21      1.0000 0.67730  0.27010  0.31170  Biso   1.000  H
  H22      1.0000 0.32270  0.72990  0.68830  Biso   1.000  H
  C19      1.0000 0.64390  0.28020  0.15910  Biso   1.000  C
  C20      1.0000 0.35610  0.71980  0.84090  Biso   1.000  C
  H23      1.0000 0.70900  0.26570  0.14880  Biso   1.000  H
  H24      1.0000 0.29100  0.73430  0.85120  Biso   1.000  H
  C21      1.0000 0.56810  0.30030  0.07870  Biso   1.000  C
  C22      1.0000 0.43190  0.69970  0.92130  Biso   1.000  C
  H25      1.0000 0.58310  0.30060  0.01340  Biso   1.000  H
  H26      1.0000 0.41690  0.69940  0.98660  Biso   1.000  H
  C23      1.0000 0.13440  0.13650  0.90750  Biso   1.000  C
  C24      1.0000 0.86560  0.86350  0.09250  Biso   1.000  C
  H27      1.0000 0.06910  0.07890  0.92750  Biso   1.000  H
  H28      1.0000 0.93090  0.92110  0.07250  Biso   1.000  H
  H29      1.0000 0.09080  0.14570  0.83930  Biso   1.000  H
  H30      1.0000 0.90920  0.85430  0.16070  Biso   1.000  H
  C25      1.0000 0.22420  0.09430  0.89180  Biso   1.000  C
  C26      1.0000 0.77580  0.90570  0.10820  Biso   1.000  C
  C27      1.0000 0.24590  0.01840  0.94340  Biso   1.000  C
  C28      1.0000 0.75410  0.98160  0.05660  Biso   1.000  C
  H31      1.0000 0.20240  0.99030  0.98960  Biso   1.000  H
  H32      1.0000 0.79760  0.00970  0.01040  Biso   1.000  H
  C29      1.0000 0.33130  0.98400  0.92710  Biso   1.000  C
  C30      1.0000 0.66870  0.01600  0.07290  Biso   1.000  C
  H33      1.0000 0.34780  0.93390  0.96430  Biso   1.000  H
  H34      1.0000 0.65220  0.06610  0.03570  Biso   1.000  H
  C31      1.0000 0.39350  0.02070  0.85780  Biso   1.000  C
  C32      1.0000 0.60650  0.97930  0.14220  Biso   1.000  C
  H35      1.0000 0.45190  0.99610  0.84780  Biso   1.000  H
  H36      1.0000 0.54810  0.00390  0.15220  Biso   1.000  H
  C33      1.0000 0.36970  0.09420  0.80290  Biso   1.000  C
  C34      1.0000 0.63030  0.90580  0.19710  Biso   1.000  C
  C35      1.0000 0.28720  0.13190  0.82210  Biso   1.000  C
  C36      1.0000 0.71280  0.86810  0.17790  Biso   1.000  C
  H37      1.0000 0.27320  0.18430  0.78710  Biso   1.000  H
  H38      1.0000 0.72680  0.81570  0.21290  Biso   1.000  H
  C37      1.0000 0.42840  0.13140  0.72130  Biso   1.000  C
  C38      1.0000 0.57160  0.86860  0.27870  Biso   1.000  C
  H39      1.0000 0.50750  0.12560  0.73670  Biso   1.000  H
  H40      1.0000 0.49250  0.87440  0.26330  Biso   1.000  H
  H41      1.0000 0.45070  0.21250  0.72690  Biso   1.000  H
  H42      1.0000 0.54930  0.78750  0.27310  Biso   1.000  H
  C39      1.0000 0.03220  0.85020  0.67690  Biso   1.000  C
  C40      1.0000 0.96780  0.14980  0.32310  Biso   1.000  C
  H43      1.0000 0.01040  0.90230  0.70990  Biso   1.000  H
  H44      1.0000 0.98960  0.09770  0.29010  Biso   1.000  H
  C41      1.0000 0.99320  0.74420  0.69540  Biso   1.000  C
  C42      1.0000 0.00680  0.25580  0.30460  Biso   1.000  C
  H45      1.0000 0.94730  0.72480  0.74190  Biso   1.000  H
  H46      1.0000 0.05270  0.27520  0.25810  Biso   1.000  H
  C43      1.0000 0.02140  0.66770  0.64600  Biso   1.000  C
  C44      1.0000 0.97860  0.33230  0.35400  Biso   1.000  C
  H47      1.0000 0.99440  0.59390  0.65690  Biso   1.000  H
  H48      1.0000 0.00560  0.40610  0.34310  Biso   1.000  H
  C45      1.0000 0.08950  0.69910  0.58030  Biso   1.000  C
  C46      1.0000 0.91050  0.30090  0.41970  Biso   1.000  C
  H49      1.0000 0.10840  0.64630  0.54430  Biso   1.000  H
  H50      1.0000 0.89160  0.35370  0.45570  Biso   1.000  H
  C47      1.0000 0.13070  0.80860  0.56690  Biso   1.000  C
  C48      1.0000 0.86930  0.19140  0.43310  Biso   1.000  C
  C49      1.0000 0.21710  0.84920  0.50670  Biso   1.000  C
  C50      1.0000 0.78290  0.15080  0.49330  Biso   1.000  C
  H51      1.0000 0.17930  0.87460  0.44790  Biso   1.000  H
  H52      1.0000 0.82070  0.12540  0.55210  Biso   1.000  H
  H53      1.0000 0.22940  0.78570  0.47470  Biso   1.000  H
  H54      1.0000 0.77060  0.21430  0.52530  Biso   1.000  H
  C51      1.0000 0.34510  0.94900  0.58350  Biso   1.000  C
  C52      1.0000 0.65490  0.05100  0.41650  Biso   1.000  C
  H55      1.0000 0.37170  0.92980  0.65080  Biso   1.000  H
  H56      1.0000 0.62830  0.07020  0.34920  Biso   1.000  H
  H57      1.0000 0.40980  0.96040  0.55060  Biso   1.000  H
  H58      1.0000 0.59020  0.03960  0.44940  Biso   1.000  H
  C53      1.0000 0.37300  0.11880  0.53000  Biso   1.000  C
  C54      1.0000 0.62700  0.88120  0.47000  Biso   1.000  C
  H59      1.0000 0.46550  0.15290  0.54620  Biso   1.000  H
  H60      1.0000 0.53450  0.84710  0.45380  Biso   1.000  H
  H61      1.0000 0.32800  0.06530  0.45650  Biso   1.000  H
  H62      1.0000 0.67200  0.93470  0.54350  Biso   1.000  H
  C55      1.0000 0.38380  0.31090  0.52090  Biso   1.000  C
  C56      1.0000 0.61620  0.68910  0.47910  Biso   1.000  C
  H63      1.0000 0.45860  0.34690  0.50540  Biso   1.000  H
  H64      1.0000 0.54140  0.65310  0.49460  Biso   1.000  H
  C57      1.0000 0.30490  0.35530  0.52950  Biso   1.000  C
  C58      1.0000 0.69510  0.64470  0.47050  Biso   1.000  C
  H65      1.0000 0.31370  0.42730  0.52170  Biso   1.000  H
  H66      1.0000 0.68630  0.57270  0.47830  Biso   1.000  H
  C59      1.0000 0.20880  0.27210  0.55230  Biso   1.000  C
  C60      1.0000 0.79120  0.72790  0.44770  Biso   1.000  C
  H67      1.0000 0.13960  0.27850  0.56310  Biso   1.000  H
  H68      1.0000 0.86040  0.72150  0.43690  Biso   1.000  H
  C61      1.0000 0.21250  0.64490  0.10620  Biso   1.000  C
  C62      1.0000 0.78750  0.35510  0.89380  Biso   1.000  C
  H69      1.0000 0.25240  0.72200  0.15560  Biso   1.000  H
  H70      1.0000 0.74760  0.27800  0.84440  Biso   1.000  H
  H71      1.0000 0.27830  0.62640  0.09820  Biso   1.000  H
  H72      1.0000 0.72170  0.37360  0.90180  Biso   1.000  H
  H73      1.0000 0.15870  0.58890  0.13490  Biso   1.000  H
  H74      1.0000 0.84130  0.41110  0.86510  Biso   1.000  H
  C63      1.0000 0.13580  0.64100  0.00300  Biso   1.000  C
  C64      1.0000 0.86420  0.35900  0.99700  Biso   1.000  C
