data_image0
_cell_length_a       21.9281
_cell_length_b       10.8199
_cell_length_c       16.073
_cell_angle_alpha    90
_cell_angle_beta     103.726
_cell_angle_gamma    90

_symmetry_space_group_name_H-M    "P 1"
_symmetry_int_tables_number       1

loop_
  _symmetry_equiv_pos_as_xyz
  'x, y, z'

loop_
  _atom_site_label
  _atom_site_occupancy
  _atom_site_fract_x
  _atom_site_fract_y
  _atom_site_fract_z
  _atom_site_thermal_displace_type
  _atom_site_B_iso_or_equiv
  _atom_site_type_symbol
  Cu1      1.0000 0.22446  0.14528  0.12778  Biso   1.000  Cu
  Cu2      1.0000 0.77554  0.14528  0.37222  Biso   1.000  Cu
  Cu3      1.0000 0.72446  0.64528  0.12778  Biso   1.000  Cu
  Cu4      1.0000 0.27554  0.64528  0.37222  Biso   1.000  Cu
  Cu5      1.0000 0.77554  0.85472  0.87222  Biso   1.000  Cu
  Cu6      1.0000 0.22446  0.85472  0.62778  Biso   1.000  Cu
  Cu7      1.0000 0.27554  0.35472  0.87222  Biso   1.000  Cu
  Cu8      1.0000 0.72446  0.35472  0.62778  Biso   1.000  Cu
  O1       1.0000 0.23592  0.31274  0.17084  Biso   1.000  O
  O2       1.0000 0.76408  0.31274  0.32916  Biso   1.000  O
  O3       1.0000 0.73592  0.81274  0.17084  Biso   1.000  O
  O4       1.0000 0.26408  0.81274  0.32916  Biso   1.000  O
  O5       1.0000 0.76408  0.68726  0.82916  Biso   1.000  O
  O6       1.0000 0.23592  0.68726  0.67084  Biso   1.000  O
  O7       1.0000 0.26408  0.18726  0.82916  Biso   1.000  O
  O8       1.0000 0.73592  0.18726  0.67084  Biso   1.000  O
  O9       1.0000 0.26328  0.53933  0.24337  Biso   1.000  O
  O10      1.0000 0.73672  0.53933  0.25663  Biso   1.000  O
  O11      1.0000 0.76328  0.03933  0.24337  Biso   1.000  O
  O12      1.0000 0.23672  0.03933  0.25663  Biso   1.000  O
  O13      1.0000 0.73672  0.46067  0.75663  Biso   1.000  O
  O14      1.0000 0.26328  0.46067  0.74337  Biso   1.000  O
  O15      1.0000 0.23672  0.96067  0.75663  Biso   1.000  O
  O16      1.0000 0.76328  0.96067  0.74337  Biso   1.000  O
  O17      1.0000 0.09226  0.48315  0.08125  Biso   1.000  O
  O18      1.0000 0.90774  0.48315  0.41875  Biso   1.000  O
  O19      1.0000 0.59226  0.98315  0.08125  Biso   1.000  O
  O20      1.0000 0.40774  0.98315  0.41875  Biso   1.000  O
  O21      1.0000 0.90774  0.51685  0.91875  Biso   1.000  O
  O22      1.0000 0.09226  0.51685  0.58125  Biso   1.000  O
  O23      1.0000 0.40774  0.01685  0.91875  Biso   1.000  O
  O24      1.0000 0.59226  0.01685  0.58125  Biso   1.000  O
  O25      1.0000 0.31183  0.14219  0.12534  Biso   1.000  O
  O26      1.0000 0.68817  0.14219  0.37466  Biso   1.000  O
  O27      1.0000 0.81183  0.64219  0.12534  Biso   1.000  O
  O28      1.0000 0.18817  0.64219  0.37466  Biso   1.000  O
  O29      1.0000 0.68817  0.85781  0.87466  Biso   1.000  O
  O30      1.0000 0.31183  0.85781  0.62534  Biso   1.000  O
  O31      1.0000 0.18817  0.35781  0.87466  Biso   1.000  O
  O32      1.0000 0.81183  0.35781  0.62534  Biso   1.000  O
  O33      1.0000 0.43742  0.16068  0.15444  Biso   1.000  O
  O34      1.0000 0.56258  0.16068  0.34556  Biso   1.000  O
  O35      1.0000 0.93742  0.66068  0.15444  Biso   1.000  O
  O36      1.0000 0.06258  0.66068  0.34556  Biso   1.000  O
  O37      1.0000 0.56258  0.83932  0.84556  Biso   1.000  O
  O38      1.0000 0.43742  0.83932  0.65444  Biso   1.000  O
  O39      1.0000 0.06258  0.33932  0.84556  Biso   1.000  O
  O40      1.0000 0.93742  0.33932  0.65444  Biso   1.000  O
  O41      1.0000 0.35858  0.81887  0.11868  Biso   1.000  O
  O42      1.0000 0.64142  0.81887  0.38132  Biso   1.000  O
  O43      1.0000 0.85858  0.31887  0.11868  Biso   1.000  O
  O44      1.0000 0.14142  0.31887  0.38132  Biso   1.000  O
  O45      1.0000 0.64142  0.18113  0.88132  Biso   1.000  O
  O46      1.0000 0.35858  0.18113  0.61868  Biso   1.000  O
  O47      1.0000 0.14142  0.68113  0.88132  Biso   1.000  O
  O48      1.0000 0.85858  0.68113  0.61868  Biso   1.000  O
  N1       1.0000 0.12882  0.15980  0.10191  Biso   1.000  N
  N2       1.0000 0.87118  0.15980  0.39809  Biso   1.000  N
  N3       1.0000 0.62882  0.65980  0.10191  Biso   1.000  N
  N4       1.0000 0.37118  0.65980  0.39809  Biso   1.000  N
  N5       1.0000 0.87118  0.84020  0.89809  Biso   1.000  N
  N6       1.0000 0.12882  0.84020  0.60191  Biso   1.000  N
  N7       1.0000 0.37118  0.34020  0.89809  Biso   1.000  N
  N8       1.0000 0.62882  0.34020  0.60191  Biso   1.000  N
  N9       1.0000 0.20911  0.97940  0.06591  Biso   1.000  N
  N10      1.0000 0.79089  0.97940  0.43409  Biso   1.000  N
  N11      1.0000 0.70911  0.47940  0.06591  Biso   1.000  N
  N12      1.0000 0.29089  0.47940  0.43409  Biso   1.000  N
  N13      1.0000 0.79089  0.02060  0.93409  Biso   1.000  N
  N14      1.0000 0.20911  0.02060  0.56591  Biso   1.000  N
  N15      1.0000 0.29089  0.52060  0.93409  Biso   1.000  N
  N16      1.0000 0.70911  0.52060  0.56591  Biso   1.000  N
  C1       1.0000 0.10812  0.59410  0.11750  Biso   1.000  C
  C2       1.0000 0.89188  0.59410  0.38250  Biso   1.000  C
  C3       1.0000 0.60812  0.09410  0.11750  Biso   1.000  C
  C4       1.0000 0.39188  0.09410  0.38250  Biso   1.000  C
  C5       1.0000 0.89188  0.40590  0.88250  Biso   1.000  C
  C6       1.0000 0.10812  0.40590  0.61750  Biso   1.000  C
  C7       1.0000 0.39188  0.90590  0.88250  Biso   1.000  C
  C8       1.0000 0.60812  0.90590  0.61750  Biso   1.000  C
  H1       1.0000 0.07850  0.65950  0.10430  Biso   1.000  H
  H2       1.0000 0.92150  0.65950  0.39570  Biso   1.000  H
  H3       1.0000 0.57850  0.15950  0.10430  Biso   1.000  H
  H4       1.0000 0.42150  0.15950  0.39570  Biso   1.000  H
  H5       1.0000 0.92150  0.34050  0.89570  Biso   1.000  H
  H6       1.0000 0.07850  0.34050  0.60430  Biso   1.000  H
  H7       1.0000 0.42150  0.84050  0.89570  Biso   1.000  H
  H8       1.0000 0.57850  0.84050  0.60430  Biso   1.000  H
  C9       1.0000 0.16354  0.61700  0.17127  Biso   1.000  C
  C10      1.0000 0.83646  0.61700  0.32873  Biso   1.000  C
  C11      1.0000 0.66354  0.11700  0.17127  Biso   1.000  C
  C12      1.0000 0.33646  0.11700  0.32873  Biso   1.000  C
  C13      1.0000 0.83646  0.38300  0.82873  Biso   1.000  C
  C14      1.0000 0.16354  0.38300  0.67127  Biso   1.000  C
  C15      1.0000 0.33646  0.88300  0.82873  Biso   1.000  C
  C16      1.0000 0.66354  0.88300  0.67127  Biso   1.000  C
  H9       1.0000 0.17200  0.69730  0.19510  Biso   1.000  H
  H10      1.0000 0.82800  0.69730  0.30490  Biso   1.000  H
  H11      1.0000 0.67200  0.19730  0.19510  Biso   1.000  H
  H12      1.0000 0.32800  0.19730  0.30490  Biso   1.000  H
  H13      1.0000 0.82800  0.30270  0.80490  Biso   1.000  H
  H14      1.0000 0.17200  0.30270  0.69510  Biso   1.000  H
  H15      1.0000 0.32800  0.80270  0.80490  Biso   1.000  H
  H16      1.0000 0.67200  0.80270  0.69510  Biso   1.000  H
  C17      1.0000 0.21067  0.52240  0.19367  Biso   1.000  C
  C18      1.0000 0.78933  0.52240  0.30633  Biso   1.000  C
  C19      1.0000 0.71067  0.02240  0.19367  Biso   1.000  C
  C20      1.0000 0.28933  0.02240  0.30633  Biso   1.000  C
  C21      1.0000 0.78933  0.47760  0.80633  Biso   1.000  C
  C22      1.0000 0.21067  0.47760  0.69367  Biso   1.000  C
  C23      1.0000 0.28933  0.97760  0.80633  Biso   1.000  C
  C24      1.0000 0.71067  0.97760  0.69367  Biso   1.000  C
  C25      1.0000 0.19328  0.40190  0.15331  Biso   1.000  C
  C26      1.0000 0.80672  0.40190  0.34669  Biso   1.000  C
  C27      1.0000 0.69328  0.90190  0.15331  Biso   1.000  C
  C28      1.0000 0.30672  0.90190  0.34669  Biso   1.000  C
  C29      1.0000 0.80672  0.59810  0.84669  Biso   1.000  C
  C30      1.0000 0.19328  0.59810  0.65331  Biso   1.000  C
  C31      1.0000 0.30672  0.09810  0.84669  Biso   1.000  C
  C32      1.0000 0.69328  0.09810  0.65331  Biso   1.000  C
  C33      1.0000 0.13520  0.38850  0.09955  Biso   1.000  C
  C34      1.0000 0.86480  0.38850  0.40045  Biso   1.000  C
  C35      1.0000 0.63520  0.88850  0.09955  Biso   1.000  C
  C36      1.0000 0.36480  0.88850  0.40045  Biso   1.000  C
  C37      1.0000 0.86480  0.61150  0.90045  Biso   1.000  C
  C38      1.0000 0.13520  0.61150  0.59955  Biso   1.000  C
  C39      1.0000 0.36480  0.11150  0.90045  Biso   1.000  C
  C40      1.0000 0.63520  0.11150  0.59955  Biso   1.000  C
  C41      1.0000 0.10948  0.27410  0.05167  Biso   1.000  C
  C42      1.0000 0.89052  0.27410  0.44833  Biso   1.000  C
  C43      1.0000 0.60948  0.77410  0.05167  Biso   1.000  C
  C44      1.0000 0.39052  0.77410  0.44833  Biso   1.000  C
  C45      1.0000 0.89052  0.72590  0.94833  Biso   1.000  C
  C46      1.0000 0.10948  0.72590  0.55167  Biso   1.000  C
  C47      1.0000 0.39052  0.22590  0.94833  Biso   1.000  C
  C48      1.0000 0.60948  0.22590  0.55167  Biso   1.000  C
  H17      1.0000 0.06310  0.27900  0.03600  Biso   1.000  H
  H18      1.0000 0.93690  0.27900  0.46400  Biso   1.000  H
  H19      1.0000 0.56310  0.77900  0.03600  Biso   1.000  H
  H20      1.0000 0.43690  0.77900  0.46400  Biso   1.000  H
  H21      1.0000 0.93690  0.72100  0.96400  Biso   1.000  H
  H22      1.0000 0.06310  0.72100  0.53600  Biso   1.000  H
  H23      1.0000 0.43690  0.22100  0.96400  Biso   1.000  H
  H24      1.0000 0.56310  0.22100  0.53600  Biso   1.000  H
  H25      1.0000 0.12410  0.26990  0.99800  Biso   1.000  H
  H26      1.0000 0.87590  0.26990  0.50200  Biso   1.000  H
  H27      1.0000 0.62410  0.76990  0.99800  Biso   1.000  H
  H28      1.0000 0.37590  0.76990  0.50200  Biso   1.000  H
  H29      1.0000 0.87590  0.73010  0.00200  Biso   1.000  H
  H30      1.0000 0.12410  0.73010  0.49800  Biso   1.000  H
  H31      1.0000 0.37590  0.23010  0.00200  Biso   1.000  H
  H32      1.0000 0.62410  0.23010  0.49800  Biso   1.000  H
  C49      1.0000 0.10144  0.05160  0.04882  Biso   1.000  C
  C50      1.0000 0.89856  0.05160  0.45118  Biso   1.000  C
  C51      1.0000 0.60144  0.55160  0.04882  Biso   1.000  C
  C52      1.0000 0.39856  0.55160  0.45118  Biso   1.000  C
  C53      1.0000 0.89856  0.94840  0.95118  Biso   1.000  C
  C54      1.0000 0.10144  0.94840  0.54882  Biso   1.000  C
  C55      1.0000 0.39856  0.44840  0.95118  Biso   1.000  C
  C56      1.0000 0.60144  0.44840  0.54882  Biso   1.000  C
  H33      1.0000 0.09530  0.07190  0.98730  Biso   1.000  H
  H34      1.0000 0.90470  0.07190  0.51270  Biso   1.000  H
  H35      1.0000 0.59530  0.57190  0.98730  Biso   1.000  H
  H36      1.0000 0.40470  0.57190  0.51270  Biso   1.000  H
  H37      1.0000 0.90470  0.92810  0.01270  Biso   1.000  H
  H38      1.0000 0.09530  0.92810  0.48730  Biso   1.000  H
  H39      1.0000 0.40470  0.42810  0.01270  Biso   1.000  H
  H40      1.0000 0.59530  0.42810  0.48730  Biso   1.000  H
  H41      1.0000 0.06000  0.03110  0.05960  Biso   1.000  H
  H42      1.0000 0.94000  0.03110  0.44040  Biso   1.000  H
  H43      1.0000 0.56000  0.53110  0.05960  Biso   1.000  H
  H44      1.0000 0.44000  0.53110  0.44040  Biso   1.000  H
  H45      1.0000 0.94000  0.96890  0.94040  Biso   1.000  H
  H46      1.0000 0.06000  0.96890  0.55960  Biso   1.000  H
  H47      1.0000 0.44000  0.46890  0.94040  Biso   1.000  H
  H48      1.0000 0.56000  0.46890  0.55960  Biso   1.000  H
  C57      1.0000 0.14488  0.94220  0.07090  Biso   1.000  C
  C58      1.0000 0.85512  0.94220  0.42910  Biso   1.000  C
  C59      1.0000 0.64488  0.44220  0.07090  Biso   1.000  C
  C60      1.0000 0.35512  0.44220  0.42910  Biso   1.000  C
  C61      1.0000 0.85512  0.05780  0.92910  Biso   1.000  C
  C62      1.0000 0.14488  0.05780  0.57090  Biso   1.000  C
  C63      1.0000 0.35512  0.55780  0.92910  Biso   1.000  C
  C64      1.0000 0.64488  0.55780  0.57090  Biso   1.000  C
  H49      1.0000 0.14550  0.91300  0.12940  Biso   1.000  H
  H50      1.0000 0.85450  0.91300  0.37060  Biso   1.000  H
  H51      1.0000 0.64550  0.41300  0.12940  Biso   1.000  H
  H52      1.0000 0.35450  0.41300  0.37060  Biso   1.000  H
  H53      1.0000 0.85450  0.08700  0.87060  Biso   1.000  H
  H54      1.0000 0.14550  0.08700  0.62940  Biso   1.000  H
  H55      1.0000 0.35450  0.58700  0.87060  Biso   1.000  H
  H56      1.0000 0.64550  0.58700  0.62940  Biso   1.000  H
  H57      1.0000 0.12980  0.87370  0.03040  Biso   1.000  H
  H58      1.0000 0.87020  0.87370  0.46960  Biso   1.000  H
  H59      1.0000 0.62980  0.37370  0.03040  Biso   1.000  H
  H60      1.0000 0.37020  0.37370  0.46960  Biso   1.000  H
  H61      1.0000 0.87020  0.12630  0.96960  Biso   1.000  H
  H62      1.0000 0.12980  0.12630  0.53040  Biso   1.000  H
  H63      1.0000 0.37020  0.62630  0.96960  Biso   1.000  H
  H64      1.0000 0.62980  0.62630  0.53040  Biso   1.000  H
  C65      1.0000 0.25438  0.88240  0.10723  Biso   1.000  C
  C66      1.0000 0.74562  0.88240  0.39277  Biso   1.000  C
  C67      1.0000 0.75438  0.38240  0.10723  Biso   1.000  C
  C68      1.0000 0.24562  0.38240  0.39277  Biso   1.000  C
  C69      1.0000 0.74562  0.11760  0.89277  Biso   1.000  C
  C70      1.0000 0.25438  0.11760  0.60723  Biso   1.000  C
  C71      1.0000 0.24562  0.61760  0.89277  Biso   1.000  C
  C72      1.0000 0.75438  0.61760  0.60723  Biso   1.000  C
  H65      1.0000 0.24670  0.80620  0.07230  Biso   1.000  H
  H66      1.0000 0.75330  0.80620  0.42770  Biso   1.000  H
  H67      1.0000 0.74670  0.30620  0.07230  Biso   1.000  H
  H68      1.0000 0.25330  0.30620  0.42770  Biso   1.000  H
  H69      1.0000 0.75330  0.19380  0.92770  Biso   1.000  H
  H70      1.0000 0.24670  0.19380  0.57230  Biso   1.000  H
  H71      1.0000 0.25330  0.69380  0.92770  Biso   1.000  H
  H72      1.0000 0.74670  0.69380  0.57230  Biso   1.000  H
  H73      1.0000 0.24730  0.86300  0.16440  Biso   1.000  H
  H74      1.0000 0.75270  0.86300  0.33560  Biso   1.000  H
  H75      1.0000 0.74730  0.36300  0.16440  Biso   1.000  H
  H76      1.0000 0.25270  0.36300  0.33560  Biso   1.000  H
  H77      1.0000 0.75270  0.13700  0.83560  Biso   1.000  H
  H78      1.0000 0.24730  0.13700  0.66440  Biso   1.000  H
  H79      1.0000 0.25270  0.63700  0.83560  Biso   1.000  H
  H80      1.0000 0.74730  0.63700  0.66440  Biso   1.000  H
  C73      1.0000 0.32117  0.92250  0.11689  Biso   1.000  C
  C74      1.0000 0.67883  0.92250  0.38311  Biso   1.000  C
  C75      1.0000 0.82117  0.42250  0.11689  Biso   1.000  C
  C76      1.0000 0.17883  0.42250  0.38311  Biso   1.000  C
  C77      1.0000 0.67883  0.07750  0.88311  Biso   1.000  C
  C78      1.0000 0.32117  0.07750  0.61689  Biso   1.000  C
  C79      1.0000 0.17883  0.57750  0.88311  Biso   1.000  C
  C80      1.0000 0.82117  0.57750  0.61689  Biso   1.000  C
  C81      1.0000 0.42117  0.83360  0.13200  Biso   1.000  C
  C82      1.0000 0.57883  0.83360  0.36800  Biso   1.000  C
  C83      1.0000 0.92117  0.33360  0.13200  Biso   1.000  C
  C84      1.0000 0.07883  0.33360  0.36800  Biso   1.000  C
  C85      1.0000 0.57883  0.16640  0.86800  Biso   1.000  C
  C86      1.0000 0.42117  0.16640  0.63200  Biso   1.000  C
  C87      1.0000 0.07883  0.66640  0.86800  Biso   1.000  C
  C88      1.0000 0.92117  0.66640  0.63200  Biso   1.000  C
  H81      1.0000 0.44660  0.76230  0.13270  Biso   1.000  H
  H82      1.0000 0.55340  0.76230  0.36730  Biso   1.000  H
  H83      1.0000 0.94660  0.26230  0.13270  Biso   1.000  H
  H84      1.0000 0.05340  0.26230  0.36730  Biso   1.000  H
  H85      1.0000 0.55340  0.23770  0.86730  Biso   1.000  H
  H86      1.0000 0.44660  0.23770  0.63270  Biso   1.000  H
  H87      1.0000 0.05340  0.73770  0.86730  Biso   1.000  H
  H88      1.0000 0.94660  0.73770  0.63270  Biso   1.000  H
  C89      1.0000 0.44898  0.94370  0.14421  Biso   1.000  C
  C90      1.0000 0.55102  0.94370  0.35579  Biso   1.000  C
  C91      1.0000 0.94898  0.44370  0.14421  Biso   1.000  C
  C92      1.0000 0.05102  0.44370  0.35579  Biso   1.000  C
  C93      1.0000 0.55102  0.05630  0.85579  Biso   1.000  C
  C94      1.0000 0.44898  0.05630  0.64421  Biso   1.000  C
  C95      1.0000 0.05102  0.55630  0.85579  Biso   1.000  C
  C96      1.0000 0.94898  0.55630  0.64421  Biso   1.000  C
  H89      1.0000 0.49340  0.94820  0.15390  Biso   1.000  H
  H90      1.0000 0.50660  0.94820  0.34610  Biso   1.000  H
  H91      1.0000 0.99340  0.44820  0.15390  Biso   1.000  H
  H92      1.0000 0.00660  0.44820  0.34610  Biso   1.000  H
  H93      1.0000 0.50660  0.05180  0.84610  Biso   1.000  H
  H94      1.0000 0.49340  0.05180  0.65390  Biso   1.000  H
  H95      1.0000 0.00660  0.55180  0.84610  Biso   1.000  H
  H96      1.0000 0.99340  0.55180  0.65390  Biso   1.000  H
  C97      1.0000 0.41354  0.05640  0.14314  Biso   1.000  C
  C98      1.0000 0.58646  0.05640  0.35686  Biso   1.000  C
  C99      1.0000 0.91354  0.55640  0.14314  Biso   1.000  C
  C100     1.0000 0.08646  0.55640  0.35686  Biso   1.000  C
  C101     1.0000 0.58646  0.94360  0.85686  Biso   1.000  C
  C102     1.0000 0.41354  0.94360  0.64314  Biso   1.000  C
  C103     1.0000 0.08646  0.44360  0.85686  Biso   1.000  C
  C104     1.0000 0.91354  0.44360  0.64314  Biso   1.000  C
  C105     1.0000 0.34552  0.04030  0.12682  Biso   1.000  C
  C106     1.0000 0.65448  0.04030  0.37318  Biso   1.000  C
  C107     1.0000 0.84552  0.54030  0.12682  Biso   1.000  C
  C108     1.0000 0.15448  0.54030  0.37318  Biso   1.000  C
  C109     1.0000 0.65448  0.95970  0.87318  Biso   1.000  C
  C110     1.0000 0.34552  0.95970  0.62682  Biso   1.000  C
  C111     1.0000 0.15448  0.45970  0.87318  Biso   1.000  C
  C112     1.0000 0.84552  0.45970  0.62682  Biso   1.000  C
  C113     1.0000 0.10680  0.16150  0.18255  Biso   1.000  C
  C114     1.0000 0.89320  0.16150  0.31745  Biso   1.000  C
  C115     1.0000 0.60680  0.66150  0.18255  Biso   1.000  C
  C116     1.0000 0.39320  0.66150  0.31745  Biso   1.000  C
  C117     1.0000 0.89320  0.83850  0.81745  Biso   1.000  C
  C118     1.0000 0.10680  0.83850  0.68255  Biso   1.000  C
  C119     1.0000 0.39320  0.33850  0.81745  Biso   1.000  C
  C120     1.0000 0.60680  0.33850  0.68255  Biso   1.000  C
  H97      1.0000 0.12000  0.08530  0.21470  Biso   1.000  H
  H98      1.0000 0.88000  0.08530  0.28530  Biso   1.000  H
  H99      1.0000 0.62000  0.58530  0.21470  Biso   1.000  H
  H100     1.0000 0.38000  0.58530  0.28530  Biso   1.000  H
  H101     1.0000 0.88000  0.91470  0.78530  Biso   1.000  H
  H102     1.0000 0.12000  0.91470  0.71470  Biso   1.000  H
  H103     1.0000 0.38000  0.41470  0.78530  Biso   1.000  H
  H104     1.0000 0.62000  0.41470  0.71470  Biso   1.000  H
  H105     1.0000 0.06090  0.16760  0.16880  Biso   1.000  H
  H106     1.0000 0.93910  0.16760  0.33120  Biso   1.000  H
  H107     1.0000 0.56090  0.66760  0.16880  Biso   1.000  H
  H108     1.0000 0.43910  0.66760  0.33120  Biso   1.000  H
  H109     1.0000 0.93910  0.83240  0.83120  Biso   1.000  H
  H110     1.0000 0.06090  0.83240  0.66880  Biso   1.000  H
  H111     1.0000 0.43910  0.33240  0.83120  Biso   1.000  H
  H112     1.0000 0.56090  0.33240  0.66880  Biso   1.000  H
  H113     1.0000 0.12500  0.23290  0.21720  Biso   1.000  H
  H114     1.0000 0.87500  0.23290  0.28280  Biso   1.000  H
  H115     1.0000 0.62500  0.73290  0.21720  Biso   1.000  H
  H116     1.0000 0.37500  0.73290  0.28280  Biso   1.000  H
  H117     1.0000 0.87500  0.76710  0.78280  Biso   1.000  H
  H118     1.0000 0.12500  0.76710  0.71720  Biso   1.000  H
  H119     1.0000 0.37500  0.26710  0.78280  Biso   1.000  H
  H120     1.0000 0.62500  0.26710  0.71720  Biso   1.000  H
  C121     1.0000 0.21362  0.99680  0.97640  Biso   1.000  C
  C122     1.0000 0.78638  0.99680  0.52360  Biso   1.000  C
  C123     1.0000 0.71362  0.49680  0.97640  Biso   1.000  C
  C124     1.0000 0.28638  0.49680  0.52360  Biso   1.000  C
  C125     1.0000 0.78638  0.00320  0.02360  Biso   1.000  C
  C126     1.0000 0.21362  0.00320  0.47640  Biso   1.000  C
  C127     1.0000 0.28638  0.50320  0.02360  Biso   1.000  C
  C128     1.0000 0.71362  0.50320  0.47640  Biso   1.000  C
  H121     1.0000 0.25650  0.02130  0.97560  Biso   1.000  H
  H122     1.0000 0.74350  0.02130  0.52440  Biso   1.000  H
  H123     1.0000 0.75650  0.52130  0.97560  Biso   1.000  H
  H124     1.0000 0.24350  0.52130  0.52440  Biso   1.000  H
  H125     1.0000 0.74350  0.97870  0.02440  Biso   1.000  H
  H126     1.0000 0.25650  0.97870  0.47560  Biso   1.000  H
  H127     1.0000 0.24350  0.47870  0.02440  Biso   1.000  H
  H128     1.0000 0.75650  0.47870  0.47560  Biso   1.000  H
  H129     1.0000 0.18420  0.06150  0.94940  Biso   1.000  H
  H130     1.0000 0.81580  0.06150  0.55060  Biso   1.000  H
  H131     1.0000 0.68420  0.56150  0.94940  Biso   1.000  H
  H132     1.0000 0.31580  0.56150  0.55060  Biso   1.000  H
  H133     1.0000 0.81580  0.93850  0.05060  Biso   1.000  H
  H134     1.0000 0.18420  0.93850  0.44940  Biso   1.000  H
  H135     1.0000 0.31580  0.43850  0.05060  Biso   1.000  H
  H136     1.0000 0.68420  0.43850  0.44940  Biso   1.000  H
  H137     1.0000 0.20310  0.91920  0.94480  Biso   1.000  H
  H138     1.0000 0.79690  0.91920  0.55520  Biso   1.000  H
  H139     1.0000 0.70310  0.41920  0.94480  Biso   1.000  H
  H140     1.0000 0.29690  0.41920  0.55520  Biso   1.000  H
  H141     1.0000 0.79690  0.08080  0.05520  Biso   1.000  H
  H142     1.0000 0.20310  0.08080  0.44480  Biso   1.000  H
  H143     1.0000 0.29690  0.58080  0.05520  Biso   1.000  H
  H144     1.0000 0.70310  0.58080  0.44480  Biso   1.000  H
  O49      1.0000 0.52942  0.34050  0.15196  Biso   1.000  O
  O50      1.0000 0.47058  0.34050  0.34804  Biso   1.000  O
  O51      1.0000 0.02942  0.84050  0.15196  Biso   1.000  O
  O52      1.0000 0.97058  0.84050  0.34804  Biso   1.000  O
  O53      1.0000 0.47058  0.65950  0.84804  Biso   1.000  O
  O54      1.0000 0.52942  0.65950  0.65196  Biso   1.000  O
  O55      1.0000 0.97058  0.15950  0.84804  Biso   1.000  O
  O56      1.0000 0.02942  0.15950  0.65196  Biso   1.000  O
  H145     1.0000 0.50620  0.28300  0.15850  Biso   1.000  H
  H146     1.0000 0.49380  0.28300  0.34150  Biso   1.000  H
  H147     1.0000 0.00620  0.78300  0.15850  Biso   1.000  H
  H148     1.0000 0.99380  0.78300  0.34150  Biso   1.000  H
  H149     1.0000 0.49380  0.71700  0.84150  Biso   1.000  H
  H150     1.0000 0.50620  0.71700  0.65850  Biso   1.000  H
  H151     1.0000 0.99380  0.21700  0.84150  Biso   1.000  H
  H152     1.0000 0.00620  0.21700  0.65850  Biso   1.000  H
  H153     1.0000 0.55820  0.34500  0.19450  Biso   1.000  H
  H154     1.0000 0.44180  0.34500  0.30550  Biso   1.000  H
  H155     1.0000 0.05820  0.84500  0.19450  Biso   1.000  H
  H156     1.0000 0.94180  0.84500  0.30550  Biso   1.000  H
  H157     1.0000 0.44180  0.65500  0.80550  Biso   1.000  H
  H158     1.0000 0.55820  0.65500  0.69450  Biso   1.000  H
  H159     1.0000 0.94180  0.15500  0.80550  Biso   1.000  H
  H160     1.0000 0.05820  0.15500  0.69450  Biso   1.000  H
  O57      1.0000 0.44606  0.54360  0.14849  Biso   1.000  O
  O58      1.0000 0.55394  0.54360  0.35151  Biso   1.000  O
  O59      1.0000 0.94606  0.04360  0.14849  Biso   1.000  O
  O60      1.0000 0.05394  0.04360  0.35151  Biso   1.000  O
  O61      1.0000 0.55394  0.45640  0.85151  Biso   1.000  O
  O62      1.0000 0.44606  0.45640  0.64849  Biso   1.000  O
  O63      1.0000 0.05394  0.95640  0.85151  Biso   1.000  O
  O64      1.0000 0.94606  0.95640  0.64849  Biso   1.000  O
  H161     1.0000 0.41830  0.50500  0.16400  Biso   1.000  H
  H162     1.0000 0.58170  0.50500  0.33600  Biso   1.000  H
  H163     1.0000 0.91830  0.00500  0.16400  Biso   1.000  H
  H164     1.0000 0.08170  0.00500  0.33600  Biso   1.000  H
  H165     1.0000 0.58170  0.49500  0.83600  Biso   1.000  H
  H166     1.0000 0.41830  0.49500  0.66400  Biso   1.000  H
  H167     1.0000 0.08170  0.99500  0.83600  Biso   1.000  H
  H168     1.0000 0.91830  0.99500  0.66400  Biso   1.000  H
  H169     1.0000 0.47570  0.49300  0.15300  Biso   1.000  H
  H170     1.0000 0.52430  0.49300  0.34700  Biso   1.000  H
  H171     1.0000 0.97570  0.99300  0.15300  Biso   1.000  H
  H172     1.0000 0.02430  0.99300  0.34700  Biso   1.000  H
  H173     1.0000 0.52430  0.50700  0.84700  Biso   1.000  H
  H174     1.0000 0.47570  0.50700  0.65300  Biso   1.000  H
  H175     1.0000 0.02430  0.00700  0.84700  Biso   1.000  H
  H176     1.0000 0.97570  0.00700  0.65300  Biso   1.000  H
  O65      1.0000 0.63341  0.36562  0.29413  Biso   1.000  O
  O66      1.0000 0.36659  0.36562  0.20587  Biso   1.000  O
  O67      1.0000 0.13341  0.86562  0.29413  Biso   1.000  O
  O68      1.0000 0.86659  0.86562  0.20587  Biso   1.000  O
  O69      1.0000 0.36659  0.63438  0.70587  Biso   1.000  O
  O70      1.0000 0.63341  0.63438  0.79413  Biso   1.000  O
  O71      1.0000 0.86659  0.13438  0.70587  Biso   1.000  O
  O72      1.0000 0.13341  0.13438  0.79413  Biso   1.000  O
  H177     1.0000 0.62930  0.30000  0.31870  Biso   1.000  H
  H178     1.0000 0.37070  0.30000  0.18130  Biso   1.000  H
  H179     1.0000 0.12930  0.80000  0.31870  Biso   1.000  H
  H180     1.0000 0.87070  0.80000  0.18130  Biso   1.000  H
  H181     1.0000 0.37070  0.70000  0.68130  Biso   1.000  H
  H182     1.0000 0.62930  0.70000  0.81870  Biso   1.000  H
  H183     1.0000 0.87070  0.20000  0.68130  Biso   1.000  H
  H184     1.0000 0.12930  0.20000  0.81870  Biso   1.000  H
  H185     1.0000 0.67060  0.37500  0.29800  Biso   1.000  H
  H186     1.0000 0.32940  0.37500  0.20200  Biso   1.000  H
  H187     1.0000 0.17060  0.87500  0.29800  Biso   1.000  H
  H188     1.0000 0.82940  0.87500  0.20200  Biso   1.000  H
  H189     1.0000 0.32940  0.62500  0.70200  Biso   1.000  H
  H190     1.0000 0.67060  0.62500  0.79800  Biso   1.000  H
  H191     1.0000 0.82940  0.12500  0.70200  Biso   1.000  H
  H192     1.0000 0.17060  0.12500  0.79800  Biso   1.000  H
