data_image0
_cell_length_a       21.047
_cell_length_b       21.047
_cell_length_c       12.334
_cell_angle_alpha    90
_cell_angle_beta     90
_cell_angle_gamma    90

_symmetry_space_group_name_H-M    "P 1"
_symmetry_int_tables_number       1

loop_
  _symmetry_equiv_pos_as_xyz
  'x, y, z'

loop_
  _atom_site_label
  _atom_site_occupancy
  _atom_site_fract_x
  _atom_site_fract_y
  _atom_site_fract_z
  _atom_site_thermal_displace_type
  _atom_site_B_iso_or_equiv
  _atom_site_type_symbol
  Cu1      1.0000 0.34798  0.03335  0.82206  Biso   1.000  Cu
  Cu2      1.0000 0.96665  0.84798  0.32206  Biso   1.000  Cu
  Cu3      1.0000 0.15202  0.46665  0.82206  Biso   1.000  Cu
  Cu4      1.0000 0.53335  0.65202  0.32206  Biso   1.000  Cu
  Cu5      1.0000 0.65202  0.96665  0.17794  Biso   1.000  Cu
  Cu6      1.0000 0.03335  0.15202  0.67794  Biso   1.000  Cu
  Cu7      1.0000 0.84798  0.53335  0.17794  Biso   1.000  Cu
  Cu8      1.0000 0.46665  0.34798  0.67794  Biso   1.000  Cu
  Cu9      1.0000 0.22580  0.93589  0.42479  Biso   1.000  Cu
  Cu10     1.0000 0.06411  0.72580  0.92479  Biso   1.000  Cu
  Cu11     1.0000 0.27420  0.56411  0.42479  Biso   1.000  Cu
  Cu12     1.0000 0.43589  0.77420  0.92479  Biso   1.000  Cu
  Cu13     1.0000 0.77420  0.06411  0.57521  Biso   1.000  Cu
  Cu14     1.0000 0.93589  0.27420  0.07521  Biso   1.000  Cu
  Cu15     1.0000 0.72580  0.43589  0.57521  Biso   1.000  Cu
  Cu16     1.0000 0.56411  0.22580  0.07521  Biso   1.000  Cu
  O1       1.0000 0.37296  0.09134  0.93420  Biso   1.000  O
  O2       1.0000 0.90866  0.87296  0.43420  Biso   1.000  O
  O3       1.0000 0.12704  0.40866  0.93420  Biso   1.000  O
  O4       1.0000 0.59134  0.62704  0.43420  Biso   1.000  O
  O5       1.0000 0.62704  0.90866  0.06580  Biso   1.000  O
  O6       1.0000 0.09134  0.12704  0.56580  Biso   1.000  O
  O7       1.0000 0.87296  0.59134  0.06580  Biso   1.000  O
  O8       1.0000 0.40866  0.37296  0.56580  Biso   1.000  O
  O9       1.0000 0.34744  0.09980  0.71400  Biso   1.000  O
  O10      1.0000 0.90020  0.84744  0.21400  Biso   1.000  O
  O11      1.0000 0.15256  0.40020  0.71400  Biso   1.000  O
  O12      1.0000 0.59980  0.65256  0.21400  Biso   1.000  O
  O13      1.0000 0.65256  0.90020  0.28600  Biso   1.000  O
  O14      1.0000 0.09980  0.15256  0.78600  Biso   1.000  O
  O15      1.0000 0.84744  0.59980  0.28600  Biso   1.000  O
  O16      1.0000 0.40020  0.34744  0.78600  Biso   1.000  O
  O17      1.0000 0.30190  0.98190  0.39020  Biso   1.000  O
  O18      1.0000 0.01810  0.80190  0.89020  Biso   1.000  O
  O19      1.0000 0.19810  0.51810  0.39020  Biso   1.000  O
  O20      1.0000 0.48190  0.69810  0.89020  Biso   1.000  O
  O21      1.0000 0.69810  0.01810  0.60980  Biso   1.000  O
  O22      1.0000 0.98190  0.19810  0.10980  Biso   1.000  O
  O23      1.0000 0.80190  0.48190  0.60980  Biso   1.000  O
  O24      1.0000 0.51810  0.30190  0.10980  Biso   1.000  O
  O25      1.0000 0.22150  0.89850  0.28320  Biso   1.000  O
  O26      1.0000 0.10150  0.72150  0.78320  Biso   1.000  O
  O27      1.0000 0.27850  0.60150  0.28320  Biso   1.000  O
  O28      1.0000 0.39850  0.77850  0.78320  Biso   1.000  O
  O29      1.0000 0.77850  0.10150  0.71680  Biso   1.000  O
  O30      1.0000 0.89850  0.27850  0.21680  Biso   1.000  O
  O31      1.0000 0.72150  0.39850  0.71680  Biso   1.000  O
  O32      1.0000 0.60150  0.22150  0.21680  Biso   1.000  O
  N1       1.0000 0.29160  0.98250  0.73070  Biso   1.000  N
  N2       1.0000 0.01750  0.79160  0.23070  Biso   1.000  N
  N3       1.0000 0.20840  0.51750  0.73070  Biso   1.000  N
  N4       1.0000 0.48250  0.70840  0.23070  Biso   1.000  N
  N5       1.0000 0.70840  0.01750  0.26930  Biso   1.000  N
  N6       1.0000 0.98250  0.20840  0.76930  Biso   1.000  N
  N7       1.0000 0.79160  0.48250  0.26930  Biso   1.000  N
  N8       1.0000 0.51750  0.29160  0.76930  Biso   1.000  N
  N9       1.0000 0.24350  0.94770  0.58110  Biso   1.000  N
  N10      1.0000 0.05230  0.74350  0.08110  Biso   1.000  N
  N11      1.0000 0.25650  0.55230  0.58110  Biso   1.000  N
  N12      1.0000 0.44770  0.75650  0.08110  Biso   1.000  N
  N13      1.0000 0.75650  0.05230  0.41890  Biso   1.000  N
  N14      1.0000 0.94770  0.25650  0.91890  Biso   1.000  N
  N15      1.0000 0.74350  0.44770  0.41890  Biso   1.000  N
  N16      1.0000 0.55230  0.24350  0.91890  Biso   1.000  N
  N17      1.0000 0.41870  0.86410  0.94340  Biso   1.000  N
  N18      1.0000 0.13590  0.91870  0.44340  Biso   1.000  N
  N19      1.0000 0.08130  0.63590  0.94340  Biso   1.000  N
  N20      1.0000 0.36410  0.58130  0.44340  Biso   1.000  N
  N21      1.0000 0.58130  0.13590  0.05660  Biso   1.000  N
  N22      1.0000 0.86410  0.08130  0.55660  Biso   1.000  N
  N23      1.0000 0.91870  0.36410  0.05660  Biso   1.000  N
  N24      1.0000 0.63590  0.41870  0.55660  Biso   1.000  N
  N25      1.0000 0.38240  0.96210  0.90500  Biso   1.000  N
  N26      1.0000 0.03790  0.88240  0.40500  Biso   1.000  N
  N27      1.0000 0.11760  0.53790  0.90500  Biso   1.000  N
  N28      1.0000 0.46210  0.61760  0.40500  Biso   1.000  N
  N29      1.0000 0.61760  0.03790  0.09500  Biso   1.000  N
  N30      1.0000 0.96210  0.11760  0.59500  Biso   1.000  N
  N31      1.0000 0.88240  0.46210  0.09500  Biso   1.000  N
  N32      1.0000 0.53790  0.38240  0.59500  Biso   1.000  N
  C1       1.0000 0.28990  0.98400  0.62090  Biso   1.000  C
  C2       1.0000 0.01600  0.78990  0.12090  Biso   1.000  C
  C3       1.0000 0.21010  0.51600  0.62090  Biso   1.000  C
  C4       1.0000 0.48400  0.71010  0.12090  Biso   1.000  C
  C5       1.0000 0.71010  0.01600  0.37910  Biso   1.000  C
  C6       1.0000 0.98400  0.21010  0.87910  Biso   1.000  C
  C7       1.0000 0.78990  0.48400  0.37910  Biso   1.000  C
  C8       1.0000 0.51600  0.28990  0.87910  Biso   1.000  C
  C9       1.0000 0.21370  0.92060  0.67020  Biso   1.000  C
  C10      1.0000 0.07940  0.71370  0.17020  Biso   1.000  C
  C11      1.0000 0.28630  0.57940  0.67020  Biso   1.000  C
  C12      1.0000 0.42060  0.78630  0.17020  Biso   1.000  C
  C13      1.0000 0.78630  0.07940  0.32980  Biso   1.000  C
  C14      1.0000 0.92060  0.28630  0.82980  Biso   1.000  C
  C15      1.0000 0.71370  0.42060  0.32980  Biso   1.000  C
  C16      1.0000 0.57940  0.21370  0.82980  Biso   1.000  C
  C17      1.0000 0.24310  0.94260  0.76040  Biso   1.000  C
  C18      1.0000 0.05740  0.74310  0.26040  Biso   1.000  C
  C19      1.0000 0.25690  0.55740  0.76040  Biso   1.000  C
  C20      1.0000 0.44260  0.75690  0.26040  Biso   1.000  C
  C21      1.0000 0.75690  0.05740  0.23960  Biso   1.000  C
  C22      1.0000 0.94260  0.25690  0.73960  Biso   1.000  C
  C23      1.0000 0.74310  0.44260  0.23960  Biso   1.000  C
  C24      1.0000 0.55740  0.24310  0.73960  Biso   1.000  C
  C25      1.0000 0.36900  0.21660  0.21530  Biso   1.000  C
  C26      1.0000 0.78340  0.86900  0.71530  Biso   1.000  C
  C27      1.0000 0.13100  0.28340  0.21530  Biso   1.000  C
  C28      1.0000 0.71660  0.63100  0.71530  Biso   1.000  C
  C29      1.0000 0.63100  0.78340  0.78470  Biso   1.000  C
  C30      1.0000 0.21660  0.13100  0.28470  Biso   1.000  C
  C31      1.0000 0.86900  0.71660  0.78470  Biso   1.000  C
  C32      1.0000 0.28340  0.36900  0.28470  Biso   1.000  C
  C33      1.0000 0.34920  0.18700  0.10680  Biso   1.000  C
  C34      1.0000 0.81300  0.84920  0.60680  Biso   1.000  C
  C35      1.0000 0.15080  0.31300  0.10680  Biso   1.000  C
  C36      1.0000 0.68700  0.65080  0.60680  Biso   1.000  C
  C37      1.0000 0.65080  0.81300  0.89320  Biso   1.000  C
  C38      1.0000 0.18700  0.15080  0.39320  Biso   1.000  C
  C39      1.0000 0.84920  0.68700  0.89320  Biso   1.000  C
  C40      1.0000 0.31300  0.34920  0.39320  Biso   1.000  C
  C41      1.0000 0.40310  0.18370  0.02740  Biso   1.000  C
  C42      1.0000 0.81630  0.90310  0.52740  Biso   1.000  C
  C43      1.0000 0.09690  0.31630  0.02740  Biso   1.000  C
  C44      1.0000 0.68370  0.59690  0.52740  Biso   1.000  C
  C45      1.0000 0.59690  0.81630  0.97260  Biso   1.000  C
  C46      1.0000 0.18370  0.09690  0.47260  Biso   1.000  C
  C47      1.0000 0.90310  0.68370  0.97260  Biso   1.000  C
  C48      1.0000 0.31630  0.40310  0.47260  Biso   1.000  C
  C49      1.0000 0.38530  0.15060  0.92530  Biso   1.000  C
  C50      1.0000 0.84940  0.88530  0.42530  Biso   1.000  C
  C51      1.0000 0.11470  0.34940  0.92530  Biso   1.000  C
  C52      1.0000 0.65060  0.61470  0.42530  Biso   1.000  C
  C53      1.0000 0.61470  0.84940  0.07470  Biso   1.000  C
  C54      1.0000 0.15060  0.11470  0.57470  Biso   1.000  C
  C55      1.0000 0.88530  0.65060  0.07470  Biso   1.000  C
  C56      1.0000 0.34940  0.38530  0.57470  Biso   1.000  C
  C57      1.0000 0.38090  0.18440  0.82680  Biso   1.000  C
  C58      1.0000 0.81560  0.88090  0.32680  Biso   1.000  C
  C59      1.0000 0.11910  0.31560  0.82680  Biso   1.000  C
  C60      1.0000 0.68440  0.61910  0.32680  Biso   1.000  C
  C61      1.0000 0.61910  0.81560  0.17320  Biso   1.000  C
  C62      1.0000 0.18440  0.11910  0.67320  Biso   1.000  C
  C63      1.0000 0.88090  0.68440  0.17320  Biso   1.000  C
  C64      1.0000 0.31560  0.38090  0.67320  Biso   1.000  C
  C65      1.0000 0.36190  0.15800  0.72950  Biso   1.000  C
  C66      1.0000 0.84200  0.86190  0.22950  Biso   1.000  C
  C67      1.0000 0.13810  0.34200  0.72950  Biso   1.000  C
  C68      1.0000 0.65800  0.63810  0.22950  Biso   1.000  C
  C69      1.0000 0.63810  0.84200  0.27050  Biso   1.000  C
  C70      1.0000 0.15800  0.13810  0.77050  Biso   1.000  C
  C71      1.0000 0.86190  0.65800  0.27050  Biso   1.000  C
  C72      1.0000 0.34200  0.36190  0.77050  Biso   1.000  C
  C73      1.0000 0.34960  0.20190  0.63230  Biso   1.000  C
  C74      1.0000 0.79810  0.84960  0.13230  Biso   1.000  C
  C75      1.0000 0.15040  0.29810  0.63230  Biso   1.000  C
  C76      1.0000 0.70190  0.65040  0.13230  Biso   1.000  C
  C77      1.0000 0.65040  0.79810  0.36770  Biso   1.000  C
  C78      1.0000 0.20190  0.15040  0.86770  Biso   1.000  C
  C79      1.0000 0.84960  0.70190  0.36770  Biso   1.000  C
  C80      1.0000 0.29810  0.34960  0.86770  Biso   1.000  C
  C81      1.0000 0.37330  0.17540  0.52400  Biso   1.000  C
  C82      1.0000 0.82460  0.87330  0.02400  Biso   1.000  C
  C83      1.0000 0.12670  0.32460  0.52400  Biso   1.000  C
  C84      1.0000 0.67540  0.62670  0.02400  Biso   1.000  C
  C85      1.0000 0.62670  0.82460  0.47600  Biso   1.000  C
  C86      1.0000 0.17540  0.12670  0.97600  Biso   1.000  C
  C87      1.0000 0.87330  0.67540  0.47600  Biso   1.000  C
  C88      1.0000 0.32460  0.37330  0.97600  Biso   1.000  C
  C89      1.0000 0.44260  0.17580  0.51870  Biso   1.000  C
  C90      1.0000 0.82420  0.94260  0.01870  Biso   1.000  C
  C91      1.0000 0.05740  0.32420  0.51870  Biso   1.000  C
  C92      1.0000 0.67580  0.55740  0.01870  Biso   1.000  C
  C93      1.0000 0.55740  0.82420  0.48130  Biso   1.000  C
  C94      1.0000 0.17580  0.05740  0.98130  Biso   1.000  C
  C95      1.0000 0.94260  0.67580  0.48130  Biso   1.000  C
  C96      1.0000 0.32420  0.44260  0.98130  Biso   1.000  C
  C97      1.0000 0.37970  0.89990  0.88260  Biso   1.000  C
  C98      1.0000 0.10010  0.87970  0.38260  Biso   1.000  C
  C99      1.0000 0.12030  0.60010  0.88260  Biso   1.000  C
  C100     1.0000 0.39990  0.62030  0.38260  Biso   1.000  C
  C101     1.0000 0.62030  0.10010  0.11740  Biso   1.000  C
  C102     1.0000 0.89990  0.12030  0.61740  Biso   1.000  C
  C103     1.0000 0.87970  0.39990  0.11740  Biso   1.000  C
  C104     1.0000 0.60010  0.37970  0.61740  Biso   1.000  C
  C105     1.0000 0.42590  0.96710  0.98700  Biso   1.000  C
  C106     1.0000 0.03290  0.92590  0.48700  Biso   1.000  C
  C107     1.0000 0.07410  0.53290  0.98700  Biso   1.000  C
  C108     1.0000 0.46710  0.57410  0.48700  Biso   1.000  C
  C109     1.0000 0.57410  0.03290  0.01300  Biso   1.000  C
  C110     1.0000 0.96710  0.07410  0.51300  Biso   1.000  C
  C111     1.0000 0.92590  0.46710  0.01300  Biso   1.000  C
  C112     1.0000 0.53290  0.42590  0.51300  Biso   1.000  C
  C113     1.0000 0.44790  0.90730  0.01060  Biso   1.000  C
  C114     1.0000 0.09270  0.94790  0.51060  Biso   1.000  C
  C115     1.0000 0.05210  0.59270  0.01060  Biso   1.000  C
  C116     1.0000 0.40730  0.55210  0.51060  Biso   1.000  C
  C117     1.0000 0.55210  0.09270  0.98940  Biso   1.000  C
  C118     1.0000 0.90730  0.05210  0.48940  Biso   1.000  C
  C119     1.0000 0.94790  0.40730  0.98940  Biso   1.000  C
  C120     1.0000 0.59270  0.44790  0.48940  Biso   1.000  C
  C121     1.0000 0.51080  0.01410  0.33090  Biso   1.000  C
  C122     1.0000 0.98590  0.01080  0.83090  Biso   1.000  C
  C123     1.0000 0.98920  0.48590  0.33090  Biso   1.000  C
  C124     1.0000 0.51410  0.48920  0.83090  Biso   1.000  C
  C125     1.0000 0.48920  0.98590  0.66910  Biso   1.000  C
  C126     1.0000 0.01410  0.98920  0.16910  Biso   1.000  C
  C127     1.0000 0.01080  0.51410  0.66910  Biso   1.000  C
  C128     1.0000 0.48590  0.51080  0.16910  Biso   1.000  C
  C129     1.0000 0.44730  0.98000  0.33280  Biso   1.000  C
  C130     1.0000 0.02000  0.94730  0.83280  Biso   1.000  C
  C131     1.0000 0.05270  0.52000  0.33280  Biso   1.000  C
  C132     1.0000 0.48000  0.55270  0.83280  Biso   1.000  C
  C133     1.0000 0.55270  0.02000  0.66720  Biso   1.000  C
  C134     1.0000 0.98000  0.05270  0.16720  Biso   1.000  C
  C135     1.0000 0.94730  0.48000  0.66720  Biso   1.000  C
  C136     1.0000 0.52000  0.44730  0.16720  Biso   1.000  C
  C137     1.0000 0.39110  0.01900  0.29380  Biso   1.000  C
  C138     1.0000 0.98100  0.89110  0.79380  Biso   1.000  C
  C139     1.0000 0.10890  0.48100  0.29380  Biso   1.000  C
  C140     1.0000 0.51900  0.60890  0.79380  Biso   1.000  C
  C141     1.0000 0.60890  0.98100  0.70620  Biso   1.000  C
  C142     1.0000 0.01900  0.10890  0.20620  Biso   1.000  C
  C143     1.0000 0.89110  0.51900  0.70620  Biso   1.000  C
  C144     1.0000 0.48100  0.39110  0.20620  Biso   1.000  C
  C145     1.0000 0.32950  0.98180  0.29740  Biso   1.000  C
  C146     1.0000 0.01820  0.82950  0.79740  Biso   1.000  C
  C147     1.0000 0.17050  0.51820  0.29740  Biso   1.000  C
  C148     1.0000 0.48180  0.67050  0.79740  Biso   1.000  C
  C149     1.0000 0.67050  0.01820  0.70260  Biso   1.000  C
  C150     1.0000 0.98180  0.17050  0.20260  Biso   1.000  C
  C151     1.0000 0.82950  0.48180  0.70260  Biso   1.000  C
  C152     1.0000 0.51820  0.32950  0.20260  Biso   1.000  C
  C153     1.0000 0.31150  0.94890  0.20690  Biso   1.000  C
  C154     1.0000 0.05110  0.81150  0.70690  Biso   1.000  C
  C155     1.0000 0.18850  0.55110  0.20690  Biso   1.000  C
  C156     1.0000 0.44890  0.68850  0.70690  Biso   1.000  C
  C157     1.0000 0.68850  0.05110  0.79310  Biso   1.000  C
  C158     1.0000 0.94890  0.18850  0.29310  Biso   1.000  C
  C159     1.0000 0.81150  0.44890  0.79310  Biso   1.000  C
  C160     1.0000 0.55110  0.31150  0.29310  Biso   1.000  C
  C161     1.0000 0.26130  0.90740  0.20580  Biso   1.000  C
  C162     1.0000 0.09260  0.76130  0.70580  Biso   1.000  C
  C163     1.0000 0.23870  0.59260  0.20580  Biso   1.000  C
  C164     1.0000 0.40740  0.73870  0.70580  Biso   1.000  C
  C165     1.0000 0.73870  0.09260  0.79420  Biso   1.000  C
  C166     1.0000 0.90740  0.23870  0.29420  Biso   1.000  C
  C167     1.0000 0.76130  0.40740  0.79420  Biso   1.000  C
  C168     1.0000 0.59260  0.26130  0.29420  Biso   1.000  C
  C169     1.0000 0.25050  0.85920  0.10830  Biso   1.000  C
  C170     1.0000 0.14080  0.75050  0.60830  Biso   1.000  C
  C171     1.0000 0.24950  0.64080  0.10830  Biso   1.000  C
  C172     1.0000 0.35920  0.74950  0.60830  Biso   1.000  C
  C173     1.0000 0.74950  0.14080  0.89170  Biso   1.000  C
  C174     1.0000 0.85920  0.24950  0.39170  Biso   1.000  C
  C175     1.0000 0.75050  0.35920  0.89170  Biso   1.000  C
  C176     1.0000 0.64080  0.25050  0.39170  Biso   1.000  C
  C177     1.0000 0.19060  0.86570  0.06120  Biso   1.000  C
  C178     1.0000 0.13430  0.69060  0.56120  Biso   1.000  C
  C179     1.0000 0.30940  0.63430  0.06120  Biso   1.000  C
  C180     1.0000 0.36570  0.80940  0.56120  Biso   1.000  C
  C181     1.0000 0.80940  0.13430  0.93880  Biso   1.000  C
  C182     1.0000 0.86570  0.30940  0.43880  Biso   1.000  C
  C183     1.0000 0.69060  0.36570  0.93880  Biso   1.000  C
  C184     1.0000 0.63430  0.19060  0.43880  Biso   1.000  C
  C185     1.0000 0.18820  0.81770  0.96020  Biso   1.000  C
  C186     1.0000 0.18230  0.68820  0.46020  Biso   1.000  C
  C187     1.0000 0.31180  0.68230  0.96020  Biso   1.000  C
  C188     1.0000 0.31770  0.81180  0.46020  Biso   1.000  C
  C189     1.0000 0.81180  0.18230  0.03980  Biso   1.000  C
  C190     1.0000 0.81770  0.31180  0.53980  Biso   1.000  C
  C191     1.0000 0.68820  0.31770  0.03980  Biso   1.000  C
  C192     1.0000 0.68230  0.18820  0.53980  Biso   1.000  C
  H1       1.0000 0.31840  0.00800  0.57730  Biso   1.000  H
  H2       1.0000 0.99200  0.81840  0.07730  Biso   1.000  H
  H3       1.0000 0.18160  0.49200  0.57730  Biso   1.000  H
  H4       1.0000 0.50800  0.68160  0.07730  Biso   1.000  H
  H5       1.0000 0.68160  0.99200  0.42270  Biso   1.000  H
  H6       1.0000 0.00800  0.18160  0.92270  Biso   1.000  H
  H7       1.0000 0.81840  0.50800  0.42270  Biso   1.000  H
  H8       1.0000 0.49200  0.31840  0.92270  Biso   1.000  H
  H9       1.0000 0.17890  0.89190  0.66820  Biso   1.000  H
  H10      1.0000 0.10810  0.67890  0.16820  Biso   1.000  H
  H11      1.0000 0.32110  0.60810  0.66820  Biso   1.000  H
  H12      1.0000 0.39190  0.82110  0.16820  Biso   1.000  H
  H13      1.0000 0.82110  0.10810  0.33180  Biso   1.000  H
  H14      1.0000 0.89190  0.32110  0.83180  Biso   1.000  H
  H15      1.0000 0.67890  0.39190  0.33180  Biso   1.000  H
  H16      1.0000 0.60810  0.17890  0.83180  Biso   1.000  H
  H17      1.0000 0.23190  0.93200  0.83280  Biso   1.000  H
  H18      1.0000 0.06800  0.73190  0.33280  Biso   1.000  H
  H19      1.0000 0.26810  0.56800  0.83280  Biso   1.000  H
  H20      1.0000 0.43200  0.76810  0.33280  Biso   1.000  H
  H21      1.0000 0.76810  0.06800  0.16720  Biso   1.000  H
  H22      1.0000 0.93200  0.26810  0.66720  Biso   1.000  H
  H23      1.0000 0.73190  0.43200  0.16720  Biso   1.000  H
  H24      1.0000 0.56800  0.23190  0.66720  Biso   1.000  H
  H25      1.0000 0.38360  0.18420  0.26270  Biso   1.000  H
  H26      1.0000 0.81580  0.88360  0.76270  Biso   1.000  H
  H27      1.0000 0.11640  0.31580  0.26270  Biso   1.000  H
  H28      1.0000 0.68420  0.61640  0.76270  Biso   1.000  H
  H29      1.0000 0.61640  0.81580  0.73730  Biso   1.000  H
  H30      1.0000 0.18420  0.11640  0.23730  Biso   1.000  H
  H31      1.0000 0.88360  0.68420  0.73730  Biso   1.000  H
  H32      1.0000 0.31580  0.38360  0.23730  Biso   1.000  H
  H33      1.0000 0.33370  0.23770  0.24720  Biso   1.000  H
  H34      1.0000 0.76230  0.83370  0.74720  Biso   1.000  H
  H35      1.0000 0.16630  0.26230  0.24720  Biso   1.000  H
  H36      1.0000 0.73770  0.66630  0.74720  Biso   1.000  H
  H37      1.0000 0.66630  0.76230  0.75280  Biso   1.000  H
  H38      1.0000 0.23770  0.16630  0.25280  Biso   1.000  H
  H39      1.0000 0.83370  0.73770  0.75280  Biso   1.000  H
  H40      1.0000 0.26230  0.33370  0.25280  Biso   1.000  H
  H41      1.0000 0.40220  0.24640  0.20300  Biso   1.000  H
  H42      1.0000 0.75360  0.90220  0.70300  Biso   1.000  H
  H43      1.0000 0.09780  0.25360  0.20300  Biso   1.000  H
  H44      1.0000 0.74640  0.59780  0.70300  Biso   1.000  H
  H45      1.0000 0.59780  0.75360  0.79700  Biso   1.000  H
  H46      1.0000 0.24640  0.09780  0.29700  Biso   1.000  H
  H47      1.0000 0.90220  0.74640  0.79700  Biso   1.000  H
  H48      1.0000 0.25360  0.40220  0.29700  Biso   1.000  H
  H49      1.0000 0.33410  0.14520  0.11990  Biso   1.000  H
  H50      1.0000 0.85480  0.83410  0.61990  Biso   1.000  H
  H51      1.0000 0.16590  0.35480  0.11990  Biso   1.000  H
  H52      1.0000 0.64520  0.66590  0.61990  Biso   1.000  H
  H53      1.0000 0.66590  0.85480  0.88010  Biso   1.000  H
  H54      1.0000 0.14520  0.16590  0.38010  Biso   1.000  H
  H55      1.0000 0.83410  0.64520  0.88010  Biso   1.000  H
  H56      1.0000 0.35480  0.33410  0.38010  Biso   1.000  H
  H57      1.0000 0.31610  0.21190  0.07630  Biso   1.000  H
  H58      1.0000 0.78810  0.81610  0.57630  Biso   1.000  H
  H59      1.0000 0.18390  0.28810  0.07630  Biso   1.000  H
  H60      1.0000 0.71190  0.68390  0.57630  Biso   1.000  H
  H61      1.0000 0.68390  0.78810  0.92370  Biso   1.000  H
  H62      1.0000 0.21190  0.18390  0.42370  Biso   1.000  H
  H63      1.0000 0.81610  0.71190  0.92370  Biso   1.000  H
  H64      1.0000 0.28810  0.31610  0.42370  Biso   1.000  H
  H65      1.0000 0.41610  0.22580  0.01020  Biso   1.000  H
  H66      1.0000 0.77420  0.91610  0.51020  Biso   1.000  H
  H67      1.0000 0.08390  0.27420  0.01020  Biso   1.000  H
  H68      1.0000 0.72580  0.58390  0.51020  Biso   1.000  H
  H69      1.0000 0.58390  0.77420  0.98980  Biso   1.000  H
  H70      1.0000 0.22580  0.08390  0.48980  Biso   1.000  H
  H71      1.0000 0.91610  0.72580  0.98980  Biso   1.000  H
  H72      1.0000 0.27420  0.41610  0.48980  Biso   1.000  H
  H73      1.0000 0.43750  0.16160  0.06020  Biso   1.000  H
  H74      1.0000 0.83840  0.93750  0.56020  Biso   1.000  H
  H75      1.0000 0.06250  0.33840  0.06020  Biso   1.000  H
  H76      1.0000 0.66160  0.56250  0.56020  Biso   1.000  H
  H77      1.0000 0.56250  0.83840  0.93980  Biso   1.000  H
  H78      1.0000 0.16160  0.06250  0.43980  Biso   1.000  H
  H79      1.0000 0.93750  0.66160  0.93980  Biso   1.000  H
  H80      1.0000 0.33840  0.43750  0.43980  Biso   1.000  H
  H81      1.0000 0.39180  0.22830  0.82760  Biso   1.000  H
  H82      1.0000 0.77170  0.89180  0.32760  Biso   1.000  H
  H83      1.0000 0.10820  0.27170  0.82760  Biso   1.000  H
  H84      1.0000 0.72830  0.60820  0.32760  Biso   1.000  H
  H85      1.0000 0.60820  0.77170  0.17240  Biso   1.000  H
  H86      1.0000 0.22830  0.10820  0.67240  Biso   1.000  H
  H87      1.0000 0.89180  0.72830  0.17240  Biso   1.000  H
  H88      1.0000 0.27170  0.39180  0.67240  Biso   1.000  H
  H89      1.0000 0.30510  0.20870  0.62670  Biso   1.000  H
  H90      1.0000 0.79130  0.80510  0.12670  Biso   1.000  H
  H91      1.0000 0.19490  0.29130  0.62670  Biso   1.000  H
  H92      1.0000 0.70870  0.69490  0.12670  Biso   1.000  H
  H93      1.0000 0.69490  0.79130  0.37330  Biso   1.000  H
  H94      1.0000 0.20870  0.19490  0.87330  Biso   1.000  H
  H95      1.0000 0.80510  0.70870  0.37330  Biso   1.000  H
  H96      1.0000 0.29130  0.30510  0.87330  Biso   1.000  H
  H97      1.0000 0.37020  0.24130  0.64540  Biso   1.000  H
  H98      1.0000 0.75870  0.87020  0.14540  Biso   1.000  H
  H99      1.0000 0.12980  0.25870  0.64540  Biso   1.000  H
  H100     1.0000 0.74130  0.62980  0.14540  Biso   1.000  H
  H101     1.0000 0.62980  0.75870  0.35460  Biso   1.000  H
  H102     1.0000 0.24130  0.12980  0.85460  Biso   1.000  H
  H103     1.0000 0.87020  0.74130  0.35460  Biso   1.000  H
  H104     1.0000 0.25870  0.37020  0.85460  Biso   1.000  H
  H105     1.0000 0.35850  0.13310  0.51580  Biso   1.000  H
  H106     1.0000 0.86690  0.85850  0.01580  Biso   1.000  H
  H107     1.0000 0.14150  0.36690  0.51580  Biso   1.000  H
  H108     1.0000 0.63310  0.64150  0.01580  Biso   1.000  H
  H109     1.0000 0.64150  0.86690  0.48420  Biso   1.000  H
  H110     1.0000 0.13310  0.14150  0.98420  Biso   1.000  H
  H111     1.0000 0.85850  0.63310  0.48420  Biso   1.000  H
  H112     1.0000 0.36690  0.35850  0.98420  Biso   1.000  H
  H113     1.0000 0.35700  0.20090  0.46680  Biso   1.000  H
  H114     1.0000 0.79910  0.85700  0.96680  Biso   1.000  H
  H115     1.0000 0.14300  0.29910  0.46680  Biso   1.000  H
  H116     1.0000 0.70090  0.64300  0.96680  Biso   1.000  H
  H117     1.0000 0.64300  0.79910  0.53320  Biso   1.000  H
  H118     1.0000 0.20090  0.14300  0.03320  Biso   1.000  H
  H119     1.0000 0.85700  0.70090  0.53320  Biso   1.000  H
  H120     1.0000 0.29910  0.35700  0.03320  Biso   1.000  H
  H121     1.0000 0.45680  0.21500  0.48920  Biso   1.000  H
  H122     1.0000 0.78500  0.95680  0.98920  Biso   1.000  H
  H123     1.0000 0.04320  0.28500  0.48920  Biso   1.000  H
  H124     1.0000 0.71500  0.54320  0.98920  Biso   1.000  H
  H125     1.0000 0.54320  0.78500  0.51080  Biso   1.000  H
  H126     1.0000 0.21500  0.04320  0.01080  Biso   1.000  H
  H127     1.0000 0.95680  0.71500  0.51080  Biso   1.000  H
  H128     1.0000 0.28500  0.45680  0.01080  Biso   1.000  H
  H129     1.0000 0.45650  0.14180  0.47380  Biso   1.000  H
  H130     1.0000 0.85820  0.95650  0.97380  Biso   1.000  H
  H131     1.0000 0.04350  0.35820  0.47380  Biso   1.000  H
  H132     1.0000 0.64180  0.54350  0.97380  Biso   1.000  H
  H133     1.0000 0.54350  0.85820  0.52620  Biso   1.000  H
  H134     1.0000 0.14180  0.04350  0.02620  Biso   1.000  H
  H135     1.0000 0.95650  0.64180  0.52620  Biso   1.000  H
  H136     1.0000 0.35820  0.45650  0.02620  Biso   1.000  H
  H137     1.0000 0.45960  0.17060  0.58950  Biso   1.000  H
  H138     1.0000 0.82940  0.95960  0.08950  Biso   1.000  H
  H139     1.0000 0.04040  0.32940  0.58950  Biso   1.000  H
  H140     1.0000 0.67060  0.54040  0.08950  Biso   1.000  H
  H141     1.0000 0.54040  0.82940  0.41050  Biso   1.000  H
  H142     1.0000 0.17060  0.04040  0.91050  Biso   1.000  H
  H143     1.0000 0.95960  0.67060  0.41050  Biso   1.000  H
  H144     1.0000 0.32940  0.45960  0.91050  Biso   1.000  H
  H145     1.0000 0.35270  0.88270  0.82830  Biso   1.000  H
  H146     1.0000 0.11730  0.85270  0.32830  Biso   1.000  H
  H147     1.0000 0.14730  0.61730  0.82830  Biso   1.000  H
  H148     1.0000 0.38270  0.64730  0.32830  Biso   1.000  H
  H149     1.0000 0.64730  0.11730  0.17170  Biso   1.000  H
  H150     1.0000 0.88270  0.14730  0.67170  Biso   1.000  H
  H151     1.0000 0.85270  0.38270  0.17170  Biso   1.000  H
  H152     1.0000 0.61730  0.35270  0.67170  Biso   1.000  H
  H153     1.0000 0.43860  0.00530  0.02190  Biso   1.000  H
  H154     1.0000 0.99470  0.93860  0.52190  Biso   1.000  H
  H155     1.0000 0.06140  0.49470  0.02190  Biso   1.000  H
  H156     1.0000 0.50530  0.56140  0.52190  Biso   1.000  H
  H157     1.0000 0.56140  0.99470  0.97810  Biso   1.000  H
  H158     1.0000 0.00530  0.06140  0.47810  Biso   1.000  H
  H159     1.0000 0.93860  0.50530  0.97810  Biso   1.000  H
  H160     1.0000 0.49470  0.43860  0.47810  Biso   1.000  H
  H161     1.0000 0.47850  0.89740  0.06460  Biso   1.000  H
  H162     1.0000 0.10260  0.97850  0.56460  Biso   1.000  H
  H163     1.0000 0.02150  0.60260  0.06460  Biso   1.000  H
  H164     1.0000 0.39740  0.52150  0.56460  Biso   1.000  H
  H165     1.0000 0.52150  0.10260  0.93540  Biso   1.000  H
  H166     1.0000 0.89740  0.02150  0.43540  Biso   1.000  H
  H167     1.0000 0.97850  0.39740  0.93540  Biso   1.000  H
  H168     1.0000 0.60260  0.47850  0.43540  Biso   1.000  H
  H169     1.0000 0.53060  0.00750  0.26260  Biso   1.000  H
  H170     1.0000 0.99250  0.03060  0.76260  Biso   1.000  H
  H171     1.0000 0.96940  0.49250  0.26260  Biso   1.000  H
  H172     1.0000 0.50750  0.46940  0.76260  Biso   1.000  H
  H173     1.0000 0.46940  0.99250  0.73740  Biso   1.000  H
  H174     1.0000 0.00750  0.96940  0.23740  Biso   1.000  H
  H175     1.0000 0.03060  0.50750  0.73740  Biso   1.000  H
  H176     1.0000 0.49250  0.53060  0.23740  Biso   1.000  H
  H177     1.0000 0.53730  0.99820  0.38690  Biso   1.000  H
  H178     1.0000 0.00180  0.03730  0.88690  Biso   1.000  H
  H179     1.0000 0.96270  0.50180  0.38690  Biso   1.000  H
  H180     1.0000 0.49820  0.46270  0.88690  Biso   1.000  H
  H181     1.0000 0.46270  0.00180  0.61310  Biso   1.000  H
  H182     1.0000 0.99820  0.96270  0.11310  Biso   1.000  H
  H183     1.0000 0.03730  0.49820  0.61310  Biso   1.000  H
  H184     1.0000 0.50180  0.53730  0.11310  Biso   1.000  H
  H185     1.0000 0.50400  0.05830  0.34160  Biso   1.000  H
  H186     1.0000 0.94170  0.00400  0.84160  Biso   1.000  H
  H187     1.0000 0.99600  0.44170  0.34160  Biso   1.000  H
  H188     1.0000 0.55830  0.49600  0.84160  Biso   1.000  H
  H189     1.0000 0.49600  0.94170  0.65840  Biso   1.000  H
  H190     1.0000 0.05830  0.99600  0.15840  Biso   1.000  H
  H191     1.0000 0.00400  0.55830  0.65840  Biso   1.000  H
  H192     1.0000 0.44170  0.50400  0.15840  Biso   1.000  H
  H193     1.0000 0.45070  0.94340  0.28800  Biso   1.000  H
  H194     1.0000 0.05660  0.95070  0.78800  Biso   1.000  H
  H195     1.0000 0.04930  0.55660  0.28800  Biso   1.000  H
  H196     1.0000 0.44340  0.54930  0.78800  Biso   1.000  H
  H197     1.0000 0.54930  0.05660  0.71200  Biso   1.000  H
  H198     1.0000 0.94340  0.04930  0.21200  Biso   1.000  H
  H199     1.0000 0.95070  0.44340  0.71200  Biso   1.000  H
  H200     1.0000 0.55660  0.45070  0.21200  Biso   1.000  H
  H201     1.0000 0.43920  0.96730  0.40540  Biso   1.000  H
  H202     1.0000 0.03270  0.93920  0.90540  Biso   1.000  H
  H203     1.0000 0.06080  0.53270  0.40540  Biso   1.000  H
  H204     1.0000 0.46730  0.56080  0.90540  Biso   1.000  H
  H205     1.0000 0.56080  0.03270  0.59460  Biso   1.000  H
  H206     1.0000 0.96730  0.06080  0.09460  Biso   1.000  H
  H207     1.0000 0.93920  0.46730  0.59460  Biso   1.000  H
  H208     1.0000 0.53270  0.43920  0.09460  Biso   1.000  H
  H209     1.0000 0.38700  0.05550  0.33880  Biso   1.000  H
  H210     1.0000 0.94450  0.88700  0.83880  Biso   1.000  H
  H211     1.0000 0.11300  0.44450  0.33880  Biso   1.000  H
  H212     1.0000 0.55550  0.61300  0.83880  Biso   1.000  H
  H213     1.0000 0.61300  0.94450  0.66120  Biso   1.000  H
  H214     1.0000 0.05550  0.11300  0.16120  Biso   1.000  H
  H215     1.0000 0.88700  0.55550  0.66120  Biso   1.000  H
  H216     1.0000 0.44450  0.38700  0.16120  Biso   1.000  H
  H217     1.0000 0.39890  0.03200  0.22130  Biso   1.000  H
  H218     1.0000 0.96800  0.89890  0.72130  Biso   1.000  H
  H219     1.0000 0.10110  0.46800  0.22130  Biso   1.000  H
  H220     1.0000 0.53200  0.60110  0.72130  Biso   1.000  H
  H221     1.0000 0.60110  0.96800  0.77870  Biso   1.000  H
  H222     1.0000 0.03200  0.10110  0.27870  Biso   1.000  H
  H223     1.0000 0.89890  0.53200  0.77870  Biso   1.000  H
  H224     1.0000 0.46800  0.39890  0.27870  Biso   1.000  H
  H225     1.0000 0.33480  0.95490  0.14180  Biso   1.000  H
  H226     1.0000 0.04510  0.83480  0.64180  Biso   1.000  H
  H227     1.0000 0.16520  0.54510  0.14180  Biso   1.000  H
  H228     1.0000 0.45490  0.66520  0.64180  Biso   1.000  H
  H229     1.0000 0.66520  0.04510  0.85820  Biso   1.000  H
  H230     1.0000 0.95490  0.16520  0.35820  Biso   1.000  H
  H231     1.0000 0.83480  0.45490  0.85820  Biso   1.000  H
  H232     1.0000 0.54510  0.33480  0.35820  Biso   1.000  H
  H233     1.0000 0.28220  0.86610  0.05490  Biso   1.000  H
  H234     1.0000 0.13390  0.78220  0.55490  Biso   1.000  H
  H235     1.0000 0.21780  0.63390  0.05490  Biso   1.000  H
  H236     1.0000 0.36610  0.71780  0.55490  Biso   1.000  H
  H237     1.0000 0.71780  0.13390  0.94510  Biso   1.000  H
  H238     1.0000 0.86610  0.21780  0.44510  Biso   1.000  H
  H239     1.0000 0.78220  0.36610  0.94510  Biso   1.000  H
  H240     1.0000 0.63390  0.28220  0.44510  Biso   1.000  H
  H241     1.0000 0.25410  0.81710  0.13550  Biso   1.000  H
  H242     1.0000 0.18290  0.75410  0.63550  Biso   1.000  H
  H243     1.0000 0.24590  0.68290  0.13550  Biso   1.000  H
  H244     1.0000 0.31710  0.74590  0.63550  Biso   1.000  H
  H245     1.0000 0.74590  0.18290  0.86450  Biso   1.000  H
  H246     1.0000 0.81710  0.24590  0.36450  Biso   1.000  H
  H247     1.0000 0.75410  0.31710  0.86450  Biso   1.000  H
  H248     1.0000 0.68290  0.25410  0.36450  Biso   1.000  H
  H249     1.0000 0.15810  0.85560  0.11190  Biso   1.000  H
  H250     1.0000 0.14440  0.65810  0.61190  Biso   1.000  H
  H251     1.0000 0.34190  0.64440  0.11190  Biso   1.000  H
  H252     1.0000 0.35560  0.84190  0.61190  Biso   1.000  H
  H253     1.0000 0.84190  0.14440  0.88810  Biso   1.000  H
  H254     1.0000 0.85560  0.34190  0.38810  Biso   1.000  H
  H255     1.0000 0.65810  0.35560  0.88810  Biso   1.000  H
  H256     1.0000 0.64440  0.15810  0.38810  Biso   1.000  H
  H257     1.0000 0.18520  0.90810  0.03670  Biso   1.000  H
  H258     1.0000 0.09190  0.68520  0.53670  Biso   1.000  H
  H259     1.0000 0.31480  0.59190  0.03670  Biso   1.000  H
  H260     1.0000 0.40810  0.81480  0.53670  Biso   1.000  H
  H261     1.0000 0.81480  0.09190  0.96330  Biso   1.000  H
  H262     1.0000 0.90810  0.31480  0.46330  Biso   1.000  H
  H263     1.0000 0.68520  0.40810  0.96330  Biso   1.000  H
  H264     1.0000 0.59190  0.18520  0.46330  Biso   1.000  H
  H265     1.0000 0.20630  0.83750  0.89820  Biso   1.000  H
  H266     1.0000 0.16250  0.70630  0.39820  Biso   1.000  H
  H267     1.0000 0.29370  0.66250  0.89820  Biso   1.000  H
  H268     1.0000 0.33750  0.79370  0.39820  Biso   1.000  H
  H269     1.0000 0.79370  0.16250  0.10180  Biso   1.000  H
  H270     1.0000 0.83750  0.29370  0.60180  Biso   1.000  H
  H271     1.0000 0.70630  0.33750  0.10180  Biso   1.000  H
  H272     1.0000 0.66250  0.20630  0.60180  Biso   1.000  H
  H273     1.0000 0.14540  0.80650  0.94530  Biso   1.000  H
  H274     1.0000 0.19350  0.64540  0.44530  Biso   1.000  H
  H275     1.0000 0.35460  0.69350  0.94530  Biso   1.000  H
  H276     1.0000 0.30650  0.85460  0.44530  Biso   1.000  H
  H277     1.0000 0.85460  0.19350  0.05470  Biso   1.000  H
  H278     1.0000 0.80650  0.35460  0.55470  Biso   1.000  H
  H279     1.0000 0.64540  0.30650  0.05470  Biso   1.000  H
  H280     1.0000 0.69350  0.14540  0.55470  Biso   1.000  H
  H281     1.0000 0.21170  0.78050  0.97740  Biso   1.000  H
  H282     1.0000 0.21950  0.71170  0.47740  Biso   1.000  H
  H283     1.0000 0.28830  0.71950  0.97740  Biso   1.000  H
  H284     1.0000 0.28050  0.78830  0.47740  Biso   1.000  H
  H285     1.0000 0.78830  0.21950  0.02260  Biso   1.000  H
  H286     1.0000 0.78050  0.28830  0.52260  Biso   1.000  H
  H287     1.0000 0.71170  0.28050  0.02260  Biso   1.000  H
  H288     1.0000 0.71950  0.21170  0.52260  Biso   1.000  H
  C193     1.0000 0.23260  0.90300  0.08090  Biso   1.000  C
  C194     1.0000 0.09700  0.73260  0.58090  Biso   1.000  C
  C195     1.0000 0.26740  0.59700  0.08090  Biso   1.000  C
  C196     1.0000 0.40300  0.76740  0.58090  Biso   1.000  C
  C197     1.0000 0.76740  0.09700  0.91910  Biso   1.000  C
  C198     1.0000 0.90300  0.26740  0.41910  Biso   1.000  C
  C199     1.0000 0.73260  0.40300  0.91910  Biso   1.000  C
  C200     1.0000 0.59700  0.23260  0.41910  Biso   1.000  C
  C201     1.0000 0.22600  0.82420  0.08510  Biso   1.000  C
  C202     1.0000 0.17580  0.72600  0.58510  Biso   1.000  C
  C203     1.0000 0.27400  0.67580  0.08510  Biso   1.000  C
  C204     1.0000 0.32420  0.77400  0.58510  Biso   1.000  C
  C205     1.0000 0.77400  0.17580  0.91490  Biso   1.000  C
  C206     1.0000 0.82420  0.27400  0.41490  Biso   1.000  C
  C207     1.0000 0.72600  0.32420  0.91490  Biso   1.000  C
  C208     1.0000 0.67580  0.22600  0.41490  Biso   1.000  C
