data_image0
_cell_length_a       9.9
_cell_length_b       11.018
_cell_length_c       12.861
_cell_angle_alpha    90
_cell_angle_beta     103.55
_cell_angle_gamma    90

_symmetry_space_group_name_H-M    "P 1"
_symmetry_int_tables_number       1

loop_
  _symmetry_equiv_pos_as_xyz
  'x, y, z'

loop_
  _atom_site_label
  _atom_site_occupancy
  _atom_site_fract_x
  _atom_site_fract_y
  _atom_site_fract_z
  _atom_site_thermal_displace_type
  _atom_site_B_iso_or_equiv
  _atom_site_type_symbol
  Cu1      1.0000 0.16607  0.01484  0.31001  Biso   1.000  Cu
  Cu2      1.0000 0.83393  0.51484  0.18999  Biso   1.000  Cu
  Cu3      1.0000 0.83393  0.98516  0.68999  Biso   1.000  Cu
  Cu4      1.0000 0.16607  0.48516  0.81001  Biso   1.000  Cu
  S1       1.0000 0.72117  0.97954  0.10687  Biso   1.000  S
  S2       1.0000 0.27883  0.47954  0.39313  Biso   1.000  S
  S3       1.0000 0.27883  0.02046  0.89313  Biso   1.000  S
  S4       1.0000 0.72117  0.52046  0.60687  Biso   1.000  S
  O1       1.0000 0.26714  0.15066  0.25712  Biso   1.000  O
  O2       1.0000 0.73286  0.65066  0.24288  Biso   1.000  O
  O3       1.0000 0.73286  0.84934  0.74288  Biso   1.000  O
  O4       1.0000 0.26714  0.34934  0.75712  Biso   1.000  O
  N1       1.0000 0.40054  0.14096  0.43154  Biso   1.000  N
  N2       1.0000 0.59946  0.64096  0.06846  Biso   1.000  N
  N3       1.0000 0.59946  0.85904  0.56846  Biso   1.000  N
  N4       1.0000 0.40054  0.35904  0.93154  Biso   1.000  N
  N5       1.0000 0.29726  0.06173  0.44039  Biso   1.000  N
  N6       1.0000 0.70274  0.56173  0.05961  Biso   1.000  N
  N7       1.0000 0.70274  0.93827  0.55961  Biso   1.000  N
  N8       1.0000 0.29726  0.43827  0.94039  Biso   1.000  N
  N9       1.0000 0.09691  0.90841  0.41690  Biso   1.000  N
  N10      1.0000 0.90309  0.40841  0.08310  Biso   1.000  N
  N11      1.0000 0.90309  0.09159  0.58310  Biso   1.000  N
  N12      1.0000 0.09691  0.59159  0.91690  Biso   1.000  N
  N13      1.0000 0.00330  0.01133  0.19485  Biso   1.000  N
  N14      1.0000 0.99670  0.51133  0.30515  Biso   1.000  N
  N15      1.0000 0.99670  0.98867  0.80515  Biso   1.000  N
  N16      1.0000 0.00330  0.48867  0.69485  Biso   1.000  N
  N17      1.0000 0.69434  0.38408  0.24083  Biso   1.000  N
  N18      1.0000 0.30566  0.88408  0.25917  Biso   1.000  N
  N19      1.0000 0.30566  0.61592  0.75917  Biso   1.000  N
  N20      1.0000 0.69434  0.11592  0.74083  Biso   1.000  N
  C1       1.0000 0.48390  0.25320  0.30057  Biso   1.000  C
  C2       1.0000 0.51610  0.75320  0.19943  Biso   1.000  C
  C3       1.0000 0.51610  0.74680  0.69943  Biso   1.000  C
  C4       1.0000 0.48390  0.24680  0.80057  Biso   1.000  C
  C5       1.0000 0.57130  0.32780  0.37308  Biso   1.000  C
  C6       1.0000 0.42870  0.82780  0.12692  Biso   1.000  C
  C7       1.0000 0.42870  0.67220  0.62692  Biso   1.000  C
  C8       1.0000 0.57130  0.17220  0.87308  Biso   1.000  C
  C9       1.0000 0.67340  0.39260  0.34058  Biso   1.000  C
  C10      1.0000 0.32660  0.89260  0.15942  Biso   1.000  C
  C11      1.0000 0.32660  0.60740  0.65942  Biso   1.000  C
  C12      1.0000 0.67340  0.10740  0.84058  Biso   1.000  C
  C13      1.0000 0.61010  0.31170  0.17165  Biso   1.000  C
  C14      1.0000 0.38990  0.81170  0.32835  Biso   1.000  C
  C15      1.0000 0.38990  0.68830  0.82835  Biso   1.000  C
  C16      1.0000 0.61010  0.18830  0.67165  Biso   1.000  C
  C17      1.0000 0.50330  0.24600  0.19689  Biso   1.000  C
  C18      1.0000 0.49670  0.74600  0.30311  Biso   1.000  C
  C19      1.0000 0.49670  0.75400  0.80311  Biso   1.000  C
  C20      1.0000 0.50330  0.25400  0.69689  Biso   1.000  C
  C21      1.0000 0.37390  0.17810  0.33012  Biso   1.000  C
  C22      1.0000 0.62610  0.67810  0.16988  Biso   1.000  C
  C23      1.0000 0.62610  0.82190  0.66988  Biso   1.000  C
  C24      1.0000 0.37390  0.32190  0.83012  Biso   1.000  C
  C25      1.0000 0.28910  0.01040  0.52806  Biso   1.000  C
  C26      1.0000 0.71090  0.51040  0.97194  Biso   1.000  C
  C27      1.0000 0.71090  0.98960  0.47194  Biso   1.000  C
  C28      1.0000 0.28910  0.48960  0.02806  Biso   1.000  C
  C29      1.0000 0.17380  0.92387  0.51832  Biso   1.000  C
  C30      1.0000 0.82620  0.42387  0.98168  Biso   1.000  C
  C31      1.0000 0.82620  0.07613  0.48168  Biso   1.000  C
  C32      1.0000 0.17380  0.57613  0.01832  Biso   1.000  C
  C33      1.0000 0.14530  0.86120  0.60360  Biso   1.000  C
  C34      1.0000 0.85470  0.36120  0.89640  Biso   1.000  C
  C35      1.0000 0.85470  0.13880  0.39640  Biso   1.000  C
  C36      1.0000 0.14530  0.63880  0.10360  Biso   1.000  C
  C37      1.0000 0.03530  0.77950  0.58440  Biso   1.000  C
  C38      1.0000 0.96470  0.27950  0.91560  Biso   1.000  C
  C39      1.0000 0.96470  0.22050  0.41560  Biso   1.000  C
  C40      1.0000 0.03530  0.72050  0.08440  Biso   1.000  C
  C41      1.0000 0.95910  0.76240  0.48180  Biso   1.000  C
  C42      1.0000 0.04090  0.26240  0.01820  Biso   1.000  C
  C43      1.0000 0.04090  0.23760  0.51820  Biso   1.000  C
  C44      1.0000 0.95910  0.73760  0.98180  Biso   1.000  C
  C45      1.0000 0.99190  0.82880  0.39910  Biso   1.000  C
  C46      1.0000 0.00810  0.32880  0.10090  Biso   1.000  C
  C47      1.0000 0.00810  0.17120  0.60090  Biso   1.000  C
  C48      1.0000 0.99190  0.67120  0.89910  Biso   1.000  C
  C49      1.0000 0.88560  0.99916  0.15742  Biso   1.000  C
  C50      1.0000 0.11440  0.49916  0.34258  Biso   1.000  C
  C51      1.0000 0.11440  0.00084  0.84258  Biso   1.000  C
  C52      1.0000 0.88560  0.50084  0.65742  Biso   1.000  C
  H1       1.0000 0.63000  0.31100  0.09500  Biso   1.000  H
  H2       1.0000 0.37000  0.81100  0.40500  Biso   1.000  H
  H3       1.0000 0.37000  0.68900  0.90500  Biso   1.000  H
  H4       1.0000 0.63000  0.18900  0.59500  Biso   1.000  H
  H5       1.0000 0.73400  0.44600  0.38810  Biso   1.000  H
  H6       1.0000 0.26600  0.94600  0.11190  Biso   1.000  H
  H7       1.0000 0.26600  0.55400  0.61190  Biso   1.000  H
  H8       1.0000 0.73400  0.05400  0.88810  Biso   1.000  H
  H9       1.0000 0.56000  0.33700  0.44200  Biso   1.000  H
  H10      1.0000 0.44000  0.83700  0.05800  Biso   1.000  H
  H11      1.0000 0.44000  0.66300  0.55800  Biso   1.000  H
  H12      1.0000 0.56000  0.16300  0.94200  Biso   1.000  H
  H13      1.0000 0.45400  0.19900  0.14900  Biso   1.000  H
  H14      1.0000 0.54600  0.69900  0.35100  Biso   1.000  H
  H15      1.0000 0.54600  0.80100  0.85100  Biso   1.000  H
  H16      1.0000 0.45400  0.30100  0.64900  Biso   1.000  H
  H17      1.0000 0.94300  0.81900  0.32500  Biso   1.000  H
  H18      1.0000 0.05700  0.31900  0.17500  Biso   1.000  H
  H19      1.0000 0.05700  0.18100  0.67500  Biso   1.000  H
  H20      1.0000 0.94300  0.68100  0.82500  Biso   1.000  H
  H21      1.0000 0.20000  0.87400  0.67000  Biso   1.000  H
  H22      1.0000 0.80000  0.37400  0.83000  Biso   1.000  H
  H23      1.0000 0.80000  0.12600  0.33000  Biso   1.000  H
  H24      1.0000 0.20000  0.62600  0.17000  Biso   1.000  H
  H25      1.0000 0.89200  0.70900  0.46700  Biso   1.000  H
  H26      1.0000 0.10800  0.20900  0.03300  Biso   1.000  H
  H27      1.0000 0.10800  0.29100  0.53300  Biso   1.000  H
  H28      1.0000 0.89200  0.79100  0.96700  Biso   1.000  H
  H29      1.0000 0.01100  0.73200  0.64300  Biso   1.000  H
  H30      1.0000 0.98900  0.23200  0.85700  Biso   1.000  H
  H31      1.0000 0.98900  0.26800  0.35700  Biso   1.000  H
  H32      1.0000 0.01100  0.76800  0.14300  Biso   1.000  H
  H33      1.0000 0.35000  0.02400  0.59500  Biso   1.000  H
  H34      1.0000 0.65000  0.52400  0.90500  Biso   1.000  H
  H35      1.0000 0.65000  0.97600  0.40500  Biso   1.000  H
  H36      1.0000 0.35000  0.47600  0.09500  Biso   1.000  H
