data_image0
_cell_length_a       11.655
_cell_length_b       11.648
_cell_length_c       15.101
_cell_angle_alpha    110.92
_cell_angle_beta     110.94
_cell_angle_gamma    93.58

_symmetry_space_group_name_H-M    "P 1"
_symmetry_int_tables_number       1

loop_
  _symmetry_equiv_pos_as_xyz
  'x, y, z'

loop_
  _atom_site_label
  _atom_site_occupancy
  _atom_site_fract_x
  _atom_site_fract_y
  _atom_site_fract_z
  _atom_site_thermal_displace_type
  _atom_site_B_iso_or_equiv
  _atom_site_type_symbol
  Cu1      1.0000 0.41236  0.19192  0.33072  Biso   1.000  Cu
  Cu2      1.0000 0.58764  0.80808  0.66928  Biso   1.000  Cu
  Cu3      1.0000 0.80801  0.58762  0.16920  Biso   1.000  Cu
  Cu4      1.0000 0.19199  0.41238  0.83080  Biso   1.000  Cu
  P1       1.0000 0.22722  0.38055  0.34083  Biso   1.000  P
  P2       1.0000 0.77278  0.61945  0.65917  Biso   1.000  P
  P3       1.0000 0.61948  0.77285  0.15899  Biso   1.000  P
  P4       1.0000 0.38052  0.22715  0.84101  Biso   1.000  P
  C1       1.0000 0.12080  0.24700  0.32070  Biso   1.000  C
  C2       1.0000 0.87920  0.75300  0.67930  Biso   1.000  C
  C3       1.0000 0.12210  0.12930  0.23480  Biso   1.000  C
  C4       1.0000 0.87790  0.87070  0.76520  Biso   1.000  C
  C5       1.0000 0.26100  0.50060  0.46670  Biso   1.000  C
  C6       1.0000 0.73900  0.49940  0.53330  Biso   1.000  C
  C7       1.0000 0.14770  0.43630  0.24350  Biso   1.000  C
  C8       1.0000 0.85230  0.56370  0.75650  Biso   1.000  C
  C9       1.0000 0.36710  0.60910  0.49880  Biso   1.000  C
  C10      1.0000 0.63290  0.39090  0.50120  Biso   1.000  C
  C11      1.0000 0.39050  0.63250  0.00090  Biso   1.000  C
  C12      1.0000 0.60950  0.36750  0.99910  Biso   1.000  C
  C13      1.0000 0.51250  0.96770  0.24750  Biso   1.000  C
  C14      1.0000 0.48750  0.03230  0.75250  Biso   1.000  C
  C15      1.0000 0.56400  0.85250  0.25650  Biso   1.000  C
  C16      1.0000 0.43600  0.14750  0.74350  Biso   1.000  C
  C17      1.0000 0.75250  0.87940  0.17890  Biso   1.000  C
  C18      1.0000 0.24750  0.12060  0.82110  Biso   1.000  C
  C19      1.0000 0.87070  0.87810  0.26540  Biso   1.000  C
  C20      1.0000 0.12930  0.12190  0.73460  Biso   1.000  C
  C21      1.0000 0.49960  0.73870  0.03330  Biso   1.000  C
  C22      1.0000 0.50040  0.26130  0.96670  Biso   1.000  C
  C23      1.0000 0.03220  0.48710  0.25210  Biso   1.000  C
  C24      1.0000 0.96780  0.51290  0.74790  Biso   1.000  C
  O1       1.0000 0.34640  0.34500  0.33230  Biso   1.000  O
  O2       1.0000 0.65360  0.65500  0.66770  Biso   1.000  O
  O3       1.0000 0.65490  0.65380  0.16820  Biso   1.000  O
  O4       1.0000 0.34510  0.34620  0.83180  Biso   1.000  O
  O5       1.0000 0.78370  0.59120  0.99340  Biso   1.000  O
  O6       1.0000 0.21630  0.40880  0.00660  Biso   1.000  O
  O7       1.0000 0.40860  0.21550  0.50750  Biso   1.000  O
  O8       1.0000 0.59140  0.78450  0.49250  Biso   1.000  O
  O9       1.0000 0.40230  0.16730  0.15910  Biso   1.000  O
  O10      1.0000 0.59770  0.83270  0.84090  Biso   1.000  O
  O11      1.0000 0.83240  0.59740  0.34080  Biso   1.000  O
  O12      1.0000 0.16760  0.40260  0.65920  Biso   1.000  O
  N1       1.0000 0.23830  0.08240  0.27070  Biso   1.000  N
  N2       1.0000 0.76170  0.91760  0.72930  Biso   1.000  N
  N3       1.0000 0.48950  0.04280  0.33790  Biso   1.000  N
  N4       1.0000 0.51050  0.95720  0.66210  Biso   1.000  N
  N5       1.0000 0.41610  0.69440  0.61050  Biso   1.000  N
  N6       1.0000 0.58390  0.30560  0.38950  Biso   1.000  N
  N7       1.0000 0.91780  0.76180  0.22940  Biso   1.000  N
  N8       1.0000 0.08220  0.23820  0.77060  Biso   1.000  N
  N9       1.0000 0.95640  0.50950  0.16210  Biso   1.000  N
  N10      1.0000 0.04360  0.49050  0.83790  Biso   1.000  N
  N11      1.0000 0.30580  0.58400  0.88990  Biso   1.000  N
  N12      1.0000 0.69420  0.41600  0.11010  Biso   1.000  N
  H1       1.0000 0.14990  0.24070  0.38540  Biso   1.000  H
  H2       1.0000 0.85010  0.75930  0.61460  Biso   1.000  H
  H3       1.0000 0.04060  0.25090  0.29860  Biso   1.000  H
  H4       1.0000 0.95940  0.74910  0.70140  Biso   1.000  H
  H5       1.0000 0.11800  0.14120  0.17020  Biso   1.000  H
  H6       1.0000 0.88200  0.85880  0.82980  Biso   1.000  H
  H7       1.0000 0.05390  0.05640  0.21180  Biso   1.000  H
  H8       1.0000 0.94610  0.94360  0.78820  Biso   1.000  H
  H9       1.0000 0.18840  0.51990  0.47080  Biso   1.000  H
  H10      1.0000 0.81160  0.48010  0.52920  Biso   1.000  H
  H11      1.0000 0.29820  0.46720  0.51440  Biso   1.000  H
  H12      1.0000 0.70180  0.53280  0.48560  Biso   1.000  H
  H13      1.0000 0.13030  0.36610  0.18190  Biso   1.000  H
  H14      1.0000 0.86970  0.63390  0.81810  Biso   1.000  H
  H15      1.0000 0.43030  0.57500  0.47820  Biso   1.000  H
  H16      1.0000 0.56970  0.42500  0.52180  Biso   1.000  H
  H17      1.0000 0.33710  0.66740  0.46150  Biso   1.000  H
  H18      1.0000 0.66290  0.33260  0.53850  Biso   1.000  H
  H19      1.0000 0.56920  0.01240  0.23800  Biso   1.000  H
  H20      1.0000 0.43080  0.98760  0.76200  Biso   1.000  H
  H21      1.0000 0.41810  0.92680  0.18880  Biso   1.000  H
  H22      1.0000 0.58190  0.07320  0.81120  Biso   1.000  H
  H23      1.0000 0.64830  0.88800  0.32640  Biso   1.000  H
  H24      1.0000 0.35170  0.11200  0.67360  Biso   1.000  H
  H25      1.0000 0.50290  0.78310  0.25100  Biso   1.000  H
  H26      1.0000 0.49710  0.21690  0.74900  Biso   1.000  H
  H27      1.0000 0.74520  0.96390  0.19350  Biso   1.000  H
  H28      1.0000 0.25480  0.03610  0.80650  Biso   1.000  H
  H29      1.0000 0.76440  0.85640  0.11290  Biso   1.000  H
  H30      1.0000 0.23560  0.14360  0.88710  Biso   1.000  H
  H31      1.0000 0.94080  0.94210  0.29230  Biso   1.000  H
  H32      1.0000 0.05920  0.05790  0.70770  Biso   1.000  H
  H33      1.0000 0.84890  0.88470  0.32700  Biso   1.000  H
  H34      1.0000 0.15110  0.11530  0.67300  Biso   1.000  H
  H35      1.0000 0.52730  0.69680  0.98170  Biso   1.000  H
  H36      1.0000 0.47270  0.30320  0.01830  Biso   1.000  H
  H37      1.0000 0.47660  0.81090  0.03150  Biso   1.000  H
  H38      1.0000 0.52340  0.18910  0.96850  Biso   1.000  H
  H39      1.0000 0.05970  0.57350  0.31330  Biso   1.000  H
  H40      1.0000 0.94030  0.42650  0.68670  Biso   1.000  H
  H41      1.0000 0.97430  0.42570  0.25710  Biso   1.000  H
  H42      1.0000 0.02570  0.57430  0.74290  Biso   1.000  H
  H43      1.0000 0.42730  0.56390  0.01700  Biso   1.000  H
  H44      1.0000 0.57270  0.43610  0.98300  Biso   1.000  H
  H45      1.0000 0.33250  0.65990  0.03490  Biso   1.000  H
  H46      1.0000 0.66750  0.34010  0.96510  Biso   1.000  H
  H47      1.0000 0.23670  0.01110  0.22650  Biso   1.000  H
  H48      1.0000 0.76330  0.98890  0.77350  Biso   1.000  H
  H49      1.0000 0.22670  0.05910  0.31220  Biso   1.000  H
  H50      1.0000 0.77330  0.94090  0.68780  Biso   1.000  H
  H51      1.0000 0.43440  0.00660  0.33030  Biso   1.000  H
  H52      1.0000 0.56560  0.99340  0.66970  Biso   1.000  H
  H53      1.0000 0.55540  0.06500  0.37780  Biso   1.000  H
  H54      1.0000 0.44460  0.93500  0.62220  Biso   1.000  H
  H55      1.0000 0.35720  0.74550  0.62170  Biso   1.000  H
  H56      1.0000 0.64280  0.25450  0.37830  Biso   1.000  H
  H57      1.0000 0.44250  0.63480  0.65340  Biso   1.000  H
  H58      1.0000 0.55750  0.36520  0.34660  Biso   1.000  H
  H59      1.0000 0.99150  0.78360  0.27870  Biso   1.000  H
  H60      1.0000 0.00850  0.21640  0.72130  Biso   1.000  H
  H61      1.0000 0.95430  0.77910  0.17880  Biso   1.000  H
  H62      1.0000 0.04570  0.22090  0.82120  Biso   1.000  H
  H63      1.0000 0.99360  0.55390  0.16760  Biso   1.000  H
  H64      1.0000 0.00640  0.44610  0.83240  Biso   1.000  H
  H65      1.0000 0.93340  0.43720  0.12280  Biso   1.000  H
  H66      1.0000 0.06660  0.56280  0.87720  Biso   1.000  H
  H67      1.0000 0.23490  0.63870  0.88040  Biso   1.000  H
  H68      1.0000 0.76510  0.36130  0.11960  Biso   1.000  H
  H69      1.0000 0.34580  0.57110  0.85310  Biso   1.000  H
  H70      1.0000 0.65420  0.42890  0.14690  Biso   1.000  H
  H71      1.0000 0.72950  0.57410  0.93630  Biso   1.000  H
  H72      1.0000 0.27050  0.42590  0.06370  Biso   1.000  H
  H73      1.0000 0.82680  0.66590  0.99990  Biso   1.000  H
  H74      1.0000 0.17320  0.33410  0.00010  Biso   1.000  H
  H75      1.0000 0.37910  0.21040  0.14080  Biso   1.000  H
  H76      1.0000 0.62090  0.78960  0.85920  Biso   1.000  H
  H77      1.0000 0.78200  0.60850  0.35130  Biso   1.000  H
  H78      1.0000 0.21800  0.39150  0.64870  Biso   1.000  H
  O13      1.0000 0.64920  0.16980  0.17490  Biso   1.000  O
  O14      1.0000 0.35080  0.83020  0.82510  Biso   1.000  O
  O15      1.0000 0.18190  0.06980  0.46960  Biso   1.000  O
  O16      1.0000 0.81810  0.93020  0.53040  Biso   1.000  O
  O17      1.0000 0.83040  0.34760  0.32650  Biso   1.000  O
  O18      1.0000 0.16960  0.65240  0.67350  Biso   1.000  O
  O19      1.0000 0.92900  0.81910  0.03040  Biso   1.000  O
  O20      1.0000 0.07100  0.18090  0.96960  Biso   1.000  O
  N13      1.0000 0.88500  0.18530  0.47040  Biso   1.000  N
  N14      1.0000 0.11500  0.81470  0.52960  Biso   1.000  N
  O21      1.0000 0.77990  0.12990  0.40640  Biso   1.000  O
  O22      1.0000 0.22010  0.87010  0.59360  Biso   1.000  O
  O23      1.0000 0.94950  0.13770  0.52400  Biso   1.000  O
  O24      1.0000 0.05050  0.86230  0.47600  Biso   1.000  O
  O25      1.0000 0.93490  0.29040  0.48090  Biso   1.000  O
  O26      1.0000 0.06510  0.70960  0.51910  Biso   1.000  O
  N15      1.0000 0.81530  0.11570  0.03060  Biso   1.000  N
  N16      1.0000 0.18470  0.88430  0.96940  Biso   1.000  N
  O27      1.0000 0.71240  0.06400  0.01910  Biso   1.000  O
  O28      1.0000 0.28760  0.93600  0.98090  Biso   1.000  O
  O29      1.0000 0.86370  0.05000  0.97570  Biso   1.000  O
  O30      1.0000 0.13630  0.95000  0.02430  Biso   1.000  O
  O31      1.0000 0.87010  0.22060  0.09350  Biso   1.000  O
  O32      1.0000 0.12990  0.77940  0.90650  Biso   1.000  O
  N17      1.0000 0.52170  0.47750  0.75010  Biso   1.000  N
  N18      1.0000 0.47830  0.52250  0.24990  Biso   1.000  N
  O33      1.0000 0.54860  0.57310  0.82710  Biso   1.000  O
  O34      1.0000 0.45140  0.42690  0.17290  Biso   1.000  O
  O35      1.0000 0.59170  0.40720  0.74980  Biso   1.000  O
  O36      1.0000 0.40830  0.59280  0.25020  Biso   1.000  O
  O37      1.0000 0.42720  0.45070  0.67210  Biso   1.000  O
  O38      1.0000 0.57280  0.54930  0.32790  Biso   1.000  O
  N19      1.0000 0.82370  0.27440  0.84680  Biso   1.000  N
  N20      1.0000 0.17630  0.72560  0.15320  Biso   1.000  N
  O39      1.0000 0.74330  0.19520  0.84500  Biso   1.000  O
  O40      1.0000 0.25670  0.80480  0.15500  Biso   1.000  O
  O41      1.0000 0.89190  0.36800  0.92210  Biso   1.000  O
  O42      1.0000 0.10810  0.63200  0.07790  Biso   1.000  O
  O43      1.0000 0.83010  0.25600  0.76160  Biso   1.000  O
  O44      1.0000 0.16990  0.74400  0.23840  Biso   1.000  O
  N21      1.0000 0.72600  0.17810  0.65480  Biso   1.000  N
  N22      1.0000 0.27400  0.82190  0.34520  Biso   1.000  N
  O45      1.0000 0.80420  0.25740  0.65570  Biso   1.000  O
  O46      1.0000 0.19580  0.74260  0.34430  Biso   1.000  O
  O47      1.0000 0.63080  0.10870  0.57760  Biso   1.000  O
  O48      1.0000 0.36920  0.89130  0.42240  Biso   1.000  O
  O49      1.0000 0.74500  0.17060  0.73990  Biso   1.000  O
  O50      1.0000 0.25500  0.82940  0.26010  Biso   1.000  O
  H79      1.0000 0.30410  0.50990  0.26590  Biso   1.000  H
  H80      1.0000 0.69590  0.49010  0.73410  Biso   1.000  H
  H81      1.0000 0.44060  0.02710  0.15530  Biso   1.000  H
  H82      1.0000 0.55940  0.97290  0.84470  Biso   1.000  H
  H83      1.0000 0.99620  0.53960  0.50220  Biso   1.000  H
  H84      1.0000 0.00380  0.46040  0.49780  Biso   1.000  H
