data_image0
_cell_length_a       11.008
_cell_length_b       13.057
_cell_length_c       15.752
_cell_angle_alpha    99.07
_cell_angle_beta     100.22
_cell_angle_gamma    105.39

_symmetry_space_group_name_H-M    "P 1"
_symmetry_int_tables_number       1

loop_
  _symmetry_equiv_pos_as_xyz
  'x, y, z'

loop_
  _atom_site_label
  _atom_site_occupancy
  _atom_site_fract_x
  _atom_site_fract_y
  _atom_site_fract_z
  _atom_site_thermal_displace_type
  _atom_site_B_iso_or_equiv
  _atom_site_type_symbol
  Cu1      1.0000 0.98707  0.76511  0.76134  Biso   1.000  Cu
  Cu2      1.0000 0.01293  0.23489  0.23866  Biso   1.000  Cu
  N1       1.0000 0.83320  0.23780  0.24104  Biso   1.000  N
  N2       1.0000 0.16680  0.76220  0.75896  Biso   1.000  N
  N3       1.0000 0.19390  0.23500  0.23954  Biso   1.000  N
  N4       1.0000 0.80610  0.76500  0.76046  Biso   1.000  N
  N5       1.0000 0.01080  0.15090  0.33545  Biso   1.000  N
  N6       1.0000 0.98920  0.84910  0.66455  Biso   1.000  N
  N7       1.0000 0.98700  0.67060  0.85038  Biso   1.000  N
  N8       1.0000 0.01300  0.32940  0.14962  Biso   1.000  N
  N9       1.0000 0.11790  0.00210  0.94170  Biso   1.000  N
  N10      1.0000 0.88210  0.99790  0.05830  Biso   1.000  N
  N11      1.0000 0.80110  0.49910  0.59370  Biso   1.000  N
  N12      1.0000 0.19890  0.50090  0.40630  Biso   1.000  N
  N13      1.0000 0.49850  0.26330  0.56500  Biso   1.000  N
  N14      1.0000 0.50150  0.73670  0.43500  Biso   1.000  N
  H1       1.0000 0.42200  0.26680  0.57600  Biso   1.000  H
  H2       1.0000 0.57800  0.73320  0.42400  Biso   1.000  H
  H3       1.0000 0.57260  0.31270  0.59730  Biso   1.000  H
  H4       1.0000 0.42740  0.68730  0.40270  Biso   1.000  H
  N15      1.0000 0.88310  0.13440  0.83020  Biso   1.000  N
  N16      1.0000 0.11690  0.86560  0.16980  Biso   1.000  N
  H5       1.0000 0.79680  0.12130  0.82120  Biso   1.000  H
  H6       1.0000 0.20320  0.87870  0.17880  Biso   1.000  H
  H7       1.0000 0.92420  0.10480  0.86970  Biso   1.000  H
  H8       1.0000 0.07580  0.89520  0.13030  Biso   1.000  H
  N17      1.0000 0.47880  0.53960  0.22140  Biso   1.000  N
  N18      1.0000 0.52120  0.46040  0.77860  Biso   1.000  N
  H9       1.0000 0.40230  0.54640  0.22980  Biso   1.000  H
  H10      1.0000 0.59770  0.45360  0.77020  Biso   1.000  H
  H11      1.0000 0.55240  0.57770  0.26170  Biso   1.000  H
  H12      1.0000 0.44760  0.42230  0.73830  Biso   1.000  H
  O1       1.0000 0.05960  0.94080  0.86788  Biso   1.000  O
  O2       1.0000 0.94040  0.05920  0.13212  Biso   1.000  O
  O3       1.0000 0.19610  0.97360  0.99180  Biso   1.000  O
  O4       1.0000 0.80390  0.02640  0.00820  Biso   1.000  O
  O5       1.0000 0.09250  0.08850  0.96412  Biso   1.000  O
  O6       1.0000 0.90750  0.91150  0.03588  Biso   1.000  O
  O7       1.0000 0.74000  0.45530  0.64290  Biso   1.000  O
  O8       1.0000 0.26000  0.54470  0.35710  Biso   1.000  O
  O9       1.0000 0.77110  0.45740  0.51490  Biso   1.000  O
  O10      1.0000 0.22890  0.54260  0.48510  Biso   1.000  O
  O11      1.0000 0.89250  0.58430  0.62395  Biso   1.000  O
  O12      1.0000 0.10750  0.41570  0.37605  Biso   1.000  O
  O13      1.0000 0.40440  0.88270  0.23410  Biso   1.000  O
  O14      1.0000 0.59560  0.11730  0.76590  Biso   1.000  O
  O15      1.0000 0.61480  0.93320  0.27910  Biso   1.000  O
  O16      1.0000 0.38520  0.06680  0.72090  Biso   1.000  O
  H13      1.0000 0.63640  0.88400  0.23890  Biso   1.000  H
  H14      1.0000 0.36360  0.11600  0.76110  Biso   1.000  H
  O17      1.0000 0.27240  0.39090  0.63490  Biso   1.000  O
  O18      1.0000 0.72760  0.60910  0.36510  Biso   1.000  O
  O19      1.0000 0.09010  0.42110  0.57670  Biso   1.000  O
  O20      1.0000 0.90990  0.57890  0.42330  Biso   1.000  O
  H15      1.0000 0.14400  0.44210  0.53650  Biso   1.000  H
  H16      1.0000 0.85600  0.55790  0.46350  Biso   1.000  H
  O21      1.0000 0.39330  0.20310  0.86390  Biso   1.000  O
  O22      1.0000 0.60670  0.79690  0.13610  Biso   1.000  O
  O23      1.0000 0.60580  0.25710  0.91110  Biso   1.000  O
  O24      1.0000 0.39420  0.74290  0.08890  Biso   1.000  O
  H17      1.0000 0.60100  0.21520  0.86370  Biso   1.000  H
  H18      1.0000 0.39900  0.78480  0.13630  Biso   1.000  H
  C1       1.0000 0.80770  0.31330  0.29450  Biso   1.000  C
  C2       1.0000 0.19230  0.68670  0.70550  Biso   1.000  C
  H19      1.0000 0.87900  0.37020  0.33360  Biso   1.000  H
  H20      1.0000 0.12100  0.62980  0.66640  Biso   1.000  H
  C3       1.0000 0.68370  0.31520  0.29730  Biso   1.000  C
  C4       1.0000 0.31630  0.68480  0.70270  Biso   1.000  C
  H21      1.0000 0.66930  0.37080  0.33850  Biso   1.000  H
  H22      1.0000 0.33070  0.62920  0.66150  Biso   1.000  H
  C5       1.0000 0.58070  0.23750  0.24010  Biso   1.000  C
  C6       1.0000 0.41930  0.76250  0.75990  Biso   1.000  C
  C7       1.0000 0.60930  0.16130  0.18310  Biso   1.000  C
  C8       1.0000 0.39070  0.83870  0.81690  Biso   1.000  C
  H23      1.0000 0.53960  0.10590  0.14120  Biso   1.000  H
  H24      1.0000 0.46040  0.89410  0.85880  Biso   1.000  H
  C9       1.0000 0.73360  0.16300  0.18540  Biso   1.000  C
  C10      1.0000 0.26640  0.83700  0.81460  Biso   1.000  C
  H25      1.0000 0.75110  0.10790  0.14560  Biso   1.000  H
  H26      1.0000 0.24890  0.89210  0.85440  Biso   1.000  H
  C11      1.0000 0.44710  0.23560  0.24080  Biso   1.000  C
  C12      1.0000 0.55290  0.76440  0.75920  Biso   1.000  C
  C13      1.0000 0.41780  0.29180  0.31010  Biso   1.000  C
  C14      1.0000 0.58220  0.70820  0.68990  Biso   1.000  C
  H27      1.0000 0.48530  0.33320  0.36080  Biso   1.000  H
  H28      1.0000 0.51470  0.66680  0.63920  Biso   1.000  H
  C15      1.0000 0.29180  0.28860  0.30860  Biso   1.000  C
  C16      1.0000 0.70820  0.71140  0.69140  Biso   1.000  C
  H29      1.0000 0.72810  0.67320  0.64110  Biso   1.000  H
  H30      1.0000 0.27190  0.32680  0.35890  Biso   1.000  H
  C17      1.0000 0.77730  0.81940  0.82630  Biso   1.000  C
  C18      1.0000 0.22270  0.18060  0.17370  Biso   1.000  C
  H31      1.0000 0.84650  0.86000  0.87620  Biso   1.000  H
  H32      1.0000 0.15350  0.14000  0.12380  Biso   1.000  H
  C19      1.0000 0.34540  0.17870  0.17040  Biso   1.000  C
  C20      1.0000 0.65460  0.82130  0.82960  Biso   1.000  C
  H33      1.0000 0.36150  0.13740  0.11990  Biso   1.000  H
  H34      1.0000 0.63850  0.86260  0.88010  Biso   1.000  H
  C21      1.0000 0.01850  0.05260  0.32350  Biso   1.000  C
  C22      1.0000 0.98150  0.94740  0.67650  Biso   1.000  C
  H35      1.0000 0.02940  0.02170  0.26700  Biso   1.000  H
  H36      1.0000 0.97060  0.97830  0.73300  Biso   1.000  H
  C23      1.0000 0.01360  0.99130  0.38450  Biso   1.000  C
  C24      1.0000 0.98640  0.00870  0.61550  Biso   1.000  C
  H37      1.0000 0.01920  0.91860  0.37100  Biso   1.000  H
  H38      1.0000 0.98080  0.08140  0.62900  Biso   1.000  H
  C25      1.0000 0.00230  0.03200  0.46560  Biso   1.000  C
  C26      1.0000 0.99770  0.96800  0.53440  Biso   1.000  C
  C27      1.0000 0.00390  0.86560  0.52200  Biso   1.000  C
  C28      1.0000 0.99610  0.13440  0.47800  Biso   1.000  C
  H39      1.0000 0.01570  0.83280  0.46630  Biso   1.000  H
  H40      1.0000 0.98430  0.16720  0.53370  Biso   1.000  H
  C29      1.0000 0.99970  0.80900  0.58710  Biso   1.000  C
  C30      1.0000 0.00030  0.19100  0.41290  Biso   1.000  C
  H41      1.0000 0.00190  0.73530  0.57470  Biso   1.000  H
  H42      1.0000 0.99810  0.26470  0.42530  Biso   1.000  H
  C31      1.0000 0.95830  0.56700  0.82520  Biso   1.000  C
  C32      1.0000 0.04170  0.43300  0.17480  Biso   1.000  C
  H43      1.0000 0.93050  0.53620  0.76290  Biso   1.000  H
  H44      1.0000 0.06950  0.46380  0.23710  Biso   1.000  H
  C33      1.0000 0.96330  0.49840  0.88220  Biso   1.000  C
  C34      1.0000 0.03670  0.50160  0.11780  Biso   1.000  C
  H45      1.0000 0.94050  0.42140  0.85940  Biso   1.000  H
  H46      1.0000 0.05950  0.57860  0.14060  Biso   1.000  H
  C35      1.0000 0.99800  0.53610  0.96870  Biso   1.000  C
  C36      1.0000 0.00200  0.46390  0.03130  Biso   1.000  C
  C37      1.0000 0.97040  0.35550  0.00630  Biso   1.000  C
  C38      1.0000 0.02960  0.64450  0.99370  Biso   1.000  C
  H47      1.0000 0.94250  0.32280  0.94430  Biso   1.000  H
  H48      1.0000 0.05750  0.67720  0.05570  Biso   1.000  H
  C39      1.0000 0.97610  0.29140  0.06570  Biso   1.000  C
  C40      1.0000 0.02390  0.70860  0.93430  Biso   1.000  C
  H49      1.0000 0.95280  0.21410  0.04440  Biso   1.000  H
  H50      1.0000 0.04720  0.78590  0.95560  Biso   1.000  H
  C41      1.0000 0.16030  0.38030  0.63120  Biso   1.000  C
  C42      1.0000 0.83970  0.61970  0.36880  Biso   1.000  C
  C43      1.0000 0.08750  0.32140  0.68580  Biso   1.000  C
  C44      1.0000 0.91250  0.67860  0.31420  Biso   1.000  C
  C45      1.0000 0.95590  0.30440  0.67640  Biso   1.000  C
  C46      1.0000 0.04410  0.69560  0.32360  Biso   1.000  C
  H51      1.0000 0.91360  0.33690  0.63420  Biso   1.000  H
  H52      1.0000 0.08640  0.66310  0.36580  Biso   1.000  H
  C47      1.0000 0.88600  0.24300  0.72370  Biso   1.000  C
  C48      1.0000 0.11400  0.75700  0.27630  Biso   1.000  C
  H53      1.0000 0.79450  0.23160  0.71560  Biso   1.000  H
  H54      1.0000 0.20550  0.76840  0.28440  Biso   1.000  H
  C49      1.0000 0.94940  0.19760  0.78570  Biso   1.000  C
  C50      1.0000 0.05060  0.80240  0.21430  Biso   1.000  C
  C51      1.0000 0.08190  0.21710  0.79690  Biso   1.000  C
  C52      1.0000 0.91810  0.78290  0.20310  Biso   1.000  C
  H55      1.0000 0.12580  0.18880  0.84170  Biso   1.000  H
  H56      1.0000 0.87420  0.81120  0.15830  Biso   1.000  H
  C53      1.0000 0.15140  0.27720  0.74740  Biso   1.000  C
  C54      1.0000 0.84860  0.72280  0.25260  Biso   1.000  C
  H57      1.0000 0.24230  0.28700  0.75360  Biso   1.000  H
  H58      1.0000 0.75770  0.71300  0.24640  Biso   1.000  H
  C55      1.0000 0.50340  0.94130  0.28810  Biso   1.000  C
  C56      1.0000 0.49660  0.05870  0.71190  Biso   1.000  C
  C57      1.0000 0.50350  0.02240  0.36190  Biso   1.000  C
  C58      1.0000 0.49650  0.97760  0.63810  Biso   1.000  C
  C59      1.0000 0.61570  0.09920  0.41390  Biso   1.000  C
  C60      1.0000 0.38430  0.90080  0.58610  Biso   1.000  C
  H59      1.0000 0.69710  0.09640  0.40150  Biso   1.000  H
  H60      1.0000 0.30290  0.90360  0.59850  Biso   1.000  H
  C61      1.0000 0.61190  0.17800  0.48070  Biso   1.000  C
  C62      1.0000 0.38810  0.82200  0.51930  Biso   1.000  C
  H61      1.0000 0.69160  0.23040  0.51450  Biso   1.000  H
  H62      1.0000 0.30840  0.76960  0.48550  Biso   1.000  H
  C63      1.0000 0.38730  0.10690  0.44960  Biso   1.000  C
  C64      1.0000 0.61270  0.89310  0.55040  Biso   1.000  C
  H63      1.0000 0.30620  0.10980  0.46280  Biso   1.000  H
  H64      1.0000 0.69380  0.89020  0.53720  Biso   1.000  H
  C65      1.0000 0.38850  0.02940  0.38160  Biso   1.000  C
  C66      1.0000 0.61150  0.97060  0.61840  Biso   1.000  C
  H65      1.0000 0.30870  0.97750  0.34740  Biso   1.000  H
  H66      1.0000 0.69130  0.02250  0.65260  Biso   1.000  H
  C67      1.0000 0.49070  0.26060  0.91990  Biso   1.000  C
  C68      1.0000 0.50930  0.73940  0.08010  Biso   1.000  C
  C69      1.0000 0.48980  0.33230  0.99870  Biso   1.000  C
  C70      1.0000 0.51020  0.66770  0.00130  Biso   1.000  C
  C71      1.0000 0.37590  0.34520  0.01370  Biso   1.000  C
  C72      1.0000 0.62410  0.65480  0.98630  Biso   1.000  C
  H67      1.0000 0.29730  0.30480  0.97080  Biso   1.000  H
  H68      1.0000 0.70270  0.69520  0.02920  Biso   1.000  H
  C73      1.0000 0.37190  0.41310  0.08610  Biso   1.000  C
  C74      1.0000 0.62810  0.58690  0.91390  Biso   1.000  C
  H69      1.0000 0.28910  0.41940  0.09310  Biso   1.000  H
  H70      1.0000 0.71090  0.58060  0.90690  Biso   1.000  H
  C75      1.0000 0.48300  0.47170  0.14890  Biso   1.000  C
  C76      1.0000 0.51700  0.52830  0.85110  Biso   1.000  C
  C77      1.0000 0.59760  0.46180  0.13500  Biso   1.000  C
  C78      1.0000 0.40240  0.53820  0.86500  Biso   1.000  C
  H71      1.0000 0.67670  0.50330  0.17700  Biso   1.000  H
  H72      1.0000 0.32330  0.49670  0.82300  Biso   1.000  H
  C79      1.0000 0.60110  0.39300  0.06150  Biso   1.000  C
  C80      1.0000 0.39890  0.60700  0.93850  Biso   1.000  C
  H73      1.0000 0.68350  0.38690  0.05350  Biso   1.000  H
  H74      1.0000 0.31650  0.61310  0.94650  Biso   1.000  H
  C81      1.0000 0.49830  0.18250  0.49940  Biso   1.000  C
  C82      1.0000 0.50170  0.81750  0.50060  Biso   1.000  C
