data_image0
_cell_length_a       8.4045
_cell_length_b       12.6831
_cell_length_c       8.031
_cell_angle_alpha    90
_cell_angle_beta     91.203
_cell_angle_gamma    90

_symmetry_space_group_name_H-M    "P 1"
_symmetry_int_tables_number       1

loop_
  _symmetry_equiv_pos_as_xyz
  'x, y, z'

loop_
  _atom_site_label
  _atom_site_occupancy
  _atom_site_fract_x
  _atom_site_fract_y
  _atom_site_fract_z
  _atom_site_thermal_displace_type
  _atom_site_B_iso_or_equiv
  _atom_site_type_symbol
  Cu1      1.0000 0.50000  0.50000  0.00000  Biso   1.000  Cu
  Cu2      1.0000 0.50000  0.00000  0.50000  Biso   1.000  Cu
  N1       1.0000 0.35480  0.61380  0.06790  Biso   1.000  N
  N2       1.0000 0.64520  0.11380  0.43210  Biso   1.000  N
  N3       1.0000 0.64520  0.38620  0.93210  Biso   1.000  N
  N4       1.0000 0.35480  0.88620  0.56790  Biso   1.000  N
  C1       1.0000 0.39380  0.70910  0.14150  Biso   1.000  C
  C2       1.0000 0.60620  0.20910  0.35850  Biso   1.000  C
  C3       1.0000 0.60620  0.29090  0.85850  Biso   1.000  C
  C4       1.0000 0.39380  0.79090  0.64150  Biso   1.000  C
  H1       1.0000 0.49620  0.73140  0.16960  Biso   1.000  H
  H2       1.0000 0.50380  0.23140  0.33040  Biso   1.000  H
  H3       1.0000 0.50380  0.26860  0.83040  Biso   1.000  H
  H4       1.0000 0.49620  0.76860  0.66960  Biso   1.000  H
  C5       1.0000 0.25940  0.76450  0.16620  Biso   1.000  C
  C6       1.0000 0.74060  0.26450  0.33380  Biso   1.000  C
  C7       1.0000 0.74060  0.23550  0.83380  Biso   1.000  C
  C8       1.0000 0.25940  0.73550  0.66620  Biso   1.000  C
  H5       1.0000 0.25210  0.83160  0.21200  Biso   1.000  H
  H6       1.0000 0.74790  0.33160  0.28800  Biso   1.000  H
  H7       1.0000 0.74790  0.16840  0.78800  Biso   1.000  H
  H8       1.0000 0.25210  0.66840  0.71200  Biso   1.000  H
  C9       1.0000 0.19920  0.61310  0.05280  Biso   1.000  C
  C10      1.0000 0.80080  0.11310  0.44720  Biso   1.000  C
  C11      1.0000 0.80080  0.38690  0.94720  Biso   1.000  C
  C12      1.0000 0.19920  0.88690  0.55280  Biso   1.000  C
  H9       1.0000 0.13970  0.55780  0.00780  Biso   1.000  H
  H10      1.0000 0.86030  0.05780  0.49220  Biso   1.000  H
  H11      1.0000 0.86030  0.44220  0.99220  Biso   1.000  H
  H12      1.0000 0.13970  0.94220  0.50780  Biso   1.000  H
  N5       1.0000 0.13720  0.70320  0.11110  Biso   1.000  N
  N6       1.0000 0.86280  0.20320  0.38890  Biso   1.000  N
  N7       1.0000 0.86280  0.29680  0.88890  Biso   1.000  N
  N8       1.0000 0.13720  0.79680  0.61110  Biso   1.000  N
  H13      1.0000 0.03780  0.71920  0.11310  Biso   1.000  H
  H14      1.0000 0.96220  0.21920  0.38690  Biso   1.000  H
  H15      1.0000 0.96220  0.28080  0.88690  Biso   1.000  H
  H16      1.0000 0.03780  0.78080  0.61310  Biso   1.000  H
  O1       1.0000 0.63470  0.52760  0.20090  Biso   1.000  O
  O2       1.0000 0.36530  0.02760  0.29910  Biso   1.000  O
  O3       1.0000 0.36530  0.47240  0.79910  Biso   1.000  O
  O4       1.0000 0.63470  0.97240  0.70090  Biso   1.000  O
  O5       1.0000 0.80240  0.64822  0.10550  Biso   1.000  O
  O6       1.0000 0.19760  0.14822  0.39450  Biso   1.000  O
  O7       1.0000 0.19760  0.35178  0.89450  Biso   1.000  O
  O8       1.0000 0.80240  0.85178  0.60550  Biso   1.000  O
  C13      1.0000 0.74790  0.59220  0.21950  Biso   1.000  C
  C14      1.0000 0.25210  0.09220  0.28050  Biso   1.000  C
  C15      1.0000 0.25210  0.40780  0.78050  Biso   1.000  C
  C16      1.0000 0.74790  0.90780  0.71950  Biso   1.000  C
  C17      1.0000 0.82500  0.60260  0.39010  Biso   1.000  C
  C18      1.0000 0.17500  0.10260  0.10990  Biso   1.000  C
  C19      1.0000 0.17500  0.39740  0.60990  Biso   1.000  C
  C20      1.0000 0.82500  0.89740  0.89010  Biso   1.000  C
  H17      1.0000 0.86970  0.67280  0.40110  Biso   1.000  H
  H18      1.0000 0.13030  0.17280  0.09890  Biso   1.000  H
  H19      1.0000 0.13030  0.32720  0.59890  Biso   1.000  H
  H20      1.0000 0.86970  0.82720  0.90110  Biso   1.000  H
  H21      1.0000 0.91200  0.55260  0.39940  Biso   1.000  H
  H22      1.0000 0.08800  0.05260  0.10060  Biso   1.000  H
  H23      1.0000 0.08800  0.44740  0.60060  Biso   1.000  H
  H24      1.0000 0.91200  0.94740  0.89940  Biso   1.000  H
  C21      1.0000 0.71260  0.58400  0.53150  Biso   1.000  C
  C22      1.0000 0.28740  0.08400  0.96850  Biso   1.000  C
  C23      1.0000 0.28740  0.41600  0.46850  Biso   1.000  C
  C24      1.0000 0.71260  0.91600  0.03150  Biso   1.000  C
  H25      1.0000 0.61940  0.62820  0.51550  Biso   1.000  H
  H26      1.0000 0.38060  0.12820  0.98450  Biso   1.000  H
  H27      1.0000 0.38060  0.37180  0.48450  Biso   1.000  H
  H28      1.0000 0.61940  0.87180  0.01550  Biso   1.000  H
  H29      1.0000 0.67780  0.51110  0.52890  Biso   1.000  H
  H30      1.0000 0.32220  0.01110  0.97110  Biso   1.000  H
  H31      1.0000 0.32220  0.48890  0.47110  Biso   1.000  H
  H32      1.0000 0.67780  0.98890  0.02890  Biso   1.000  H
  C25      1.0000 0.78660  0.60710  0.69870  Biso   1.000  C
  C26      1.0000 0.21340  0.10710  0.80130  Biso   1.000  C
  C27      1.0000 0.21340  0.39290  0.30130  Biso   1.000  C
  C28      1.0000 0.78660  0.89290  0.19870  Biso   1.000  C
  O9       1.0000 0.67980  0.62798  0.81350  Biso   1.000  O
  O10      1.0000 0.32020  0.12798  0.68650  Biso   1.000  O
  O11      1.0000 0.32020  0.37202  0.18650  Biso   1.000  O
  O12      1.0000 0.67980  0.87202  0.31350  Biso   1.000  O
  H33      1.0000 0.74460  0.62830  0.89130  Biso   1.000  H
  H34      1.0000 0.25540  0.12830  0.60870  Biso   1.000  H
  H35      1.0000 0.25540  0.37170  0.10870  Biso   1.000  H
  H36      1.0000 0.74460  0.87170  0.39130  Biso   1.000  H
  O13      1.0000 0.92780  0.60700  0.72810  Biso   1.000  O
  O14      1.0000 0.07220  0.10700  0.77190  Biso   1.000  O
  O15      1.0000 0.07220  0.39300  0.27190  Biso   1.000  O
  O16      1.0000 0.92780  0.89300  0.22810  Biso   1.000  O
