data_image0
_cell_length_a       8.9216
_cell_length_b       8.8643
_cell_length_c       11.41
_cell_angle_alpha    90
_cell_angle_beta     111.799
_cell_angle_gamma    90

_symmetry_space_group_name_H-M    "P 1"
_symmetry_int_tables_number       1

loop_
  _symmetry_equiv_pos_as_xyz
  'x, y, z'

loop_
  _atom_site_label
  _atom_site_occupancy
  _atom_site_fract_x
  _atom_site_fract_y
  _atom_site_fract_z
  _atom_site_thermal_displace_type
  _atom_site_B_iso_or_equiv
  _atom_site_type_symbol
  Cu1      1.0000 0.00000  0.00000  0.00000  Biso   1.000  Cu
  Cu2      1.0000 0.50000  0.50000  0.50000  Biso   1.000  Cu
  Cu3      1.0000 0.11930  0.29110  0.88640  Biso   1.000  Cu
  Cu4      1.0000 0.38070  0.79110  0.61360  Biso   1.000  Cu
  Cu5      1.0000 0.88070  0.70890  0.11360  Biso   1.000  Cu
  Cu6      1.0000 0.61930  0.20890  0.38640  Biso   1.000  Cu
  V1       1.0000 0.80210  0.31860  0.98260  Biso   1.000  V
  V2       1.0000 0.69790  0.81860  0.51740  Biso   1.000  V
  V3       1.0000 0.19790  0.68140  0.01740  Biso   1.000  V
  V4       1.0000 0.30210  0.18140  0.48260  Biso   1.000  V
  V5       1.0000 0.91570  0.15190  0.26590  Biso   1.000  V
  V6       1.0000 0.58430  0.65190  0.23410  Biso   1.000  V
  V7       1.0000 0.08430  0.84810  0.73410  Biso   1.000  V
  V8       1.0000 0.41570  0.34810  0.76590  Biso   1.000  V
  O1       1.0000 0.82390  0.28380  0.14100  Biso   1.000  O
  O2       1.0000 0.67610  0.78380  0.35900  Biso   1.000  O
  O3       1.0000 0.17610  0.71620  0.85900  Biso   1.000  O
  O4       1.0000 0.32390  0.21620  0.64100  Biso   1.000  O
  O5       1.0000 0.60570  0.27460  0.87570  Biso   1.000  O
  O6       1.0000 0.89430  0.77460  0.62430  Biso   1.000  O
  O7       1.0000 0.39430  0.72540  0.12430  Biso   1.000  O
  O8       1.0000 0.10570  0.22540  0.37570  Biso   1.000  O
  O9       1.0000 0.94430  0.21610  0.94580  Biso   1.000  O
  O10      1.0000 0.55570  0.71610  0.55420  Biso   1.000  O
  O11      1.0000 0.05570  0.78390  0.05420  Biso   1.000  O
  O12      1.0000 0.44430  0.28390  0.44580  Biso   1.000  O
  O13      1.0000 0.83430  0.49570  0.97090  Biso   1.000  O
  O14      1.0000 0.66570  0.99570  0.52910  Biso   1.000  O
  O15      1.0000 0.16570  0.50430  0.02910  Biso   1.000  O
  O16      1.0000 0.33430  0.00430  0.47090  Biso   1.000  O
  O17      1.0000 0.79460  0.12220  0.34350  Biso   1.000  O
  O18      1.0000 0.70540  0.62220  0.15650  Biso   1.000  O
  O19      1.0000 0.20540  0.87780  0.65650  Biso   1.000  O
  O20      1.0000 0.29460  0.37780  0.84350  Biso   1.000  O
  O21      1.0000 0.05420  0.00610  0.79720  Biso   1.000  O
  O22      1.0000 0.44580  0.50610  0.70280  Biso   1.000  O
  O23      1.0000 0.94580  0.99390  0.20280  Biso   1.000  O
  O24      1.0000 0.55420  0.49390  0.29720  Biso   1.000  O
  N1       1.0000 0.27400  0.18600  0.03340  Biso   1.000  N
  N2       1.0000 0.22600  0.68600  0.46660  Biso   1.000  N
  N3       1.0000 0.72600  0.81400  0.96660  Biso   1.000  N
  N4       1.0000 0.77400  0.31400  0.53340  Biso   1.000  N
  N5       1.0000 0.22010  0.07090  0.08630  Biso   1.000  N
  N6       1.0000 0.27990  0.57090  0.41370  Biso   1.000  N
  N7       1.0000 0.77990  0.92910  0.91370  Biso   1.000  N
  N8       1.0000 0.72010  0.42910  0.58630  Biso   1.000  N
  N9       1.0000 0.45660  0.14280  0.22380  Biso   1.000  N
  N10      1.0000 0.04340  0.64280  0.27620  Biso   1.000  N
  N11      1.0000 0.54340  0.85720  0.77620  Biso   1.000  N
  N12      1.0000 0.95660  0.35720  0.72380  Biso   1.000  N
  C1       1.0000 0.41690  0.22730  0.11730  Biso   1.000  C
  C2       1.0000 0.08310  0.72730  0.38270  Biso   1.000  C
  C3       1.0000 0.58310  0.77270  0.88270  Biso   1.000  C
  C4       1.0000 0.91690  0.27270  0.61730  Biso   1.000  C
  C5       1.0000 0.33170  0.04790  0.19900  Biso   1.000  C
  C6       1.0000 0.16830  0.54790  0.30100  Biso   1.000  C
  C7       1.0000 0.66830  0.95210  0.80100  Biso   1.000  C
  C8       1.0000 0.83170  0.45210  0.69900  Biso   1.000  C
  H1       1.0000 0.49060  0.31310  0.10450  Biso   1.000  H
  H2       1.0000 0.00940  0.81310  0.39550  Biso   1.000  H
  H3       1.0000 0.50940  0.68690  0.89550  Biso   1.000  H
  H4       1.0000 0.99060  0.18690  0.60450  Biso   1.000  H
  H5       1.0000 0.31840  0.98090  0.25140  Biso   1.000  H
  H6       1.0000 0.18160  0.48090  0.24860  Biso   1.000  H
  H7       1.0000 0.68160  0.01910  0.74860  Biso   1.000  H
  H8       1.0000 0.81840  0.51910  0.75140  Biso   1.000  H
