data_image0
_cell_length_a       11.1428
_cell_length_b       8.1425
_cell_length_c       16.062
_cell_angle_alpha    90
_cell_angle_beta     108.618
_cell_angle_gamma    90

_symmetry_space_group_name_H-M    "P 1"
_symmetry_int_tables_number       1

loop_
  _symmetry_equiv_pos_as_xyz
  'x, y, z'

loop_
  _atom_site_label
  _atom_site_occupancy
  _atom_site_fract_x
  _atom_site_fract_y
  _atom_site_fract_z
  _atom_site_thermal_displace_type
  _atom_site_B_iso_or_equiv
  _atom_site_type_symbol
  Cu1      1.0000 0.71062  0.89252  0.18721  Biso   1.000  Cu
  Cu2      1.0000 0.78938  0.39252  0.31279  Biso   1.000  Cu
  Cu3      1.0000 0.28938  0.10748  0.81279  Biso   1.000  Cu
  Cu4      1.0000 0.21062  0.60748  0.68721  Biso   1.000  Cu
  C1       1.0000 0.34770  0.68510  0.11846  Biso   1.000  C
  C2       1.0000 0.15230  0.18510  0.38154  Biso   1.000  C
  C3       1.0000 0.65230  0.31490  0.88154  Biso   1.000  C
  C4       1.0000 0.84770  0.81490  0.61846  Biso   1.000  C
  C5       1.0000 0.30820  0.75450  0.18453  Biso   1.000  C
  C6       1.0000 0.19180  0.25450  0.31547  Biso   1.000  C
  C7       1.0000 0.69180  0.24550  0.81547  Biso   1.000  C
  C8       1.0000 0.80820  0.74550  0.68453  Biso   1.000  C
  H1       1.0000 0.35880  0.83240  0.22190  Biso   1.000  H
  H2       1.0000 0.14120  0.33240  0.27810  Biso   1.000  H
  H3       1.0000 0.64120  0.16760  0.77810  Biso   1.000  H
  H4       1.0000 0.85880  0.66760  0.72190  Biso   1.000  H
  C9       1.0000 0.19420  0.70840  0.19515  Biso   1.000  C
  C10      1.0000 0.30580  0.20840  0.30485  Biso   1.000  C
  C11      1.0000 0.80580  0.29160  0.80485  Biso   1.000  C
  C12      1.0000 0.69420  0.79160  0.69515  Biso   1.000  C
  H5       1.0000 0.16830  0.75630  0.23920  Biso   1.000  H
  H6       1.0000 0.33170  0.25630  0.26080  Biso   1.000  H
  H7       1.0000 0.83170  0.24370  0.76080  Biso   1.000  H
  H8       1.0000 0.66830  0.74370  0.73920  Biso   1.000  H
  C13      1.0000 0.11880  0.59140  0.14040  Biso   1.000  C
  C14      1.0000 0.38120  0.09140  0.35960  Biso   1.000  C
  C15      1.0000 0.88120  0.40860  0.85960  Biso   1.000  C
  C16      1.0000 0.61880  0.90860  0.64040  Biso   1.000  C
  H9       1.0000 0.04200  0.56090  0.14720  Biso   1.000  H
  H10      1.0000 0.45800  0.06090  0.35280  Biso   1.000  H
  H11      1.0000 0.95800  0.43910  0.85280  Biso   1.000  H
  H12      1.0000 0.54200  0.93910  0.64720  Biso   1.000  H
  C17      1.0000 0.15790  0.52020  0.07555  Biso   1.000  C
  C18      1.0000 0.34210  0.02020  0.42445  Biso   1.000  C
  C19      1.0000 0.84210  0.47980  0.92445  Biso   1.000  C
  C20      1.0000 0.65790  0.97980  0.57555  Biso   1.000  C
  H13      1.0000 0.10810  0.43980  0.03970  Biso   1.000  H
  H14      1.0000 0.39190  0.93980  0.46030  Biso   1.000  H
  H15      1.0000 0.89190  0.56020  0.96030  Biso   1.000  H
  H16      1.0000 0.60810  0.06020  0.53970  Biso   1.000  H
  C21      1.0000 0.27100  0.56720  0.06319  Biso   1.000  C
  C22      1.0000 0.22900  0.06720  0.43681  Biso   1.000  C
  C23      1.0000 0.72900  0.43280  0.93681  Biso   1.000  C
  C24      1.0000 0.77100  0.93280  0.56319  Biso   1.000  C
  H17      1.0000 0.29550  0.52040  0.01830  Biso   1.000  H
  H18      1.0000 0.20450  0.02040  0.48170  Biso   1.000  H
  H19      1.0000 0.70450  0.47960  0.98170  Biso   1.000  H
  H20      1.0000 0.79550  0.97960  0.51830  Biso   1.000  H
  C25      1.0000 0.46930  0.74190  0.10750  Biso   1.000  C
  C26      1.0000 0.03070  0.24190  0.39250  Biso   1.000  C
  C27      1.0000 0.53070  0.25810  0.89250  Biso   1.000  C
  C28      1.0000 0.96930  0.75810  0.60750  Biso   1.000  C
  C29      1.0000 0.48100  0.74740  0.02496  Biso   1.000  C
  C30      1.0000 0.01900  0.24740  0.47504  Biso   1.000  C
  C31      1.0000 0.51900  0.25260  0.97504  Biso   1.000  C
  C32      1.0000 0.98100  0.75260  0.52496  Biso   1.000  C
  H21      1.0000 0.41520  0.70270  0.97930  Biso   1.000  H
  H22      1.0000 0.08480  0.20270  0.52070  Biso   1.000  H
  H23      1.0000 0.58480  0.29730  0.02070  Biso   1.000  H
  H24      1.0000 0.91520  0.79730  0.47930  Biso   1.000  H
  C33      1.0000 0.58490  0.81550  0.00283  Biso   1.000  C
  C34      1.0000 0.91510  0.31550  0.49717  Biso   1.000  C
  C35      1.0000 0.41510  0.18450  0.99717  Biso   1.000  C
  C36      1.0000 0.08490  0.68450  0.50283  Biso   1.000  C
  C37      1.0000 0.57380  0.81150  0.90637  Biso   1.000  C
  C38      1.0000 0.92620  0.31150  0.59363  Biso   1.000  C
  C39      1.0000 0.42620  0.18850  0.09363  Biso   1.000  C
  C40      1.0000 0.07380  0.68850  0.40637  Biso   1.000  C
  H25      1.0000 0.55830  0.92050  0.88260  Biso   1.000  H
  H26      1.0000 0.94170  0.42050  0.61740  Biso   1.000  H
  H27      1.0000 0.44170  0.07950  0.11740  Biso   1.000  H
  H28      1.0000 0.05830  0.57950  0.38260  Biso   1.000  H
  H29      1.0000 0.50490  0.74110  0.87540  Biso   1.000  H
  H30      1.0000 0.99510  0.24110  0.62460  Biso   1.000  H
  H31      1.0000 0.49510  0.25890  0.12460  Biso   1.000  H
  H32      1.0000 0.00490  0.75890  0.37540  Biso   1.000  H
  H33      1.0000 0.65110  0.77040  0.90000  Biso   1.000  H
  H34      1.0000 0.84890  0.27040  0.60000  Biso   1.000  H
  H35      1.0000 0.34890  0.22960  0.10000  Biso   1.000  H
  H36      1.0000 0.15110  0.72960  0.40000  Biso   1.000  H
  C41      1.0000 0.78650  0.95010  0.03631  Biso   1.000  C
  C42      1.0000 0.71350  0.45010  0.46369  Biso   1.000  C
  C43      1.0000 0.21350  0.04990  0.96369  Biso   1.000  C
  C44      1.0000 0.28650  0.54990  0.53631  Biso   1.000  C
  H37      1.0000 0.75460  0.00110  0.97890  Biso   1.000  H
  H38      1.0000 0.74540  0.50110  0.52110  Biso   1.000  H
  H39      1.0000 0.24540  0.99890  0.02110  Biso   1.000  H
  H40      1.0000 0.25460  0.49890  0.47890  Biso   1.000  H
  H41      1.0000 0.84390  0.86240  0.03320  Biso   1.000  H
  H42      1.0000 0.65610  0.36240  0.46680  Biso   1.000  H
  H43      1.0000 0.15610  0.13760  0.96680  Biso   1.000  H
  H44      1.0000 0.34390  0.63760  0.53320  Biso   1.000  H
  C45      1.0000 0.85470  0.07330  0.10230  Biso   1.000  C
  C46      1.0000 0.64530  0.57330  0.39770  Biso   1.000  C
  C47      1.0000 0.14530  0.92670  0.89770  Biso   1.000  C
  C48      1.0000 0.35470  0.42670  0.60230  Biso   1.000  C
  H45      1.0000 0.79950  0.16970  0.09430  Biso   1.000  H
  H46      1.0000 0.70050  0.66970  0.40570  Biso   1.000  H
  H47      1.0000 0.20050  0.83030  0.90570  Biso   1.000  H
  H48      1.0000 0.29950  0.33030  0.59430  Biso   1.000  H
  C49      1.0000 0.97710  0.13050  0.09040  Biso   1.000  C
  C50      1.0000 0.52290  0.63050  0.40960  Biso   1.000  C
  C51      1.0000 0.02290  0.86950  0.90960  Biso   1.000  C
  C52      1.0000 0.47710  0.36950  0.59040  Biso   1.000  C
  H49      1.0000 0.03630  0.04100  0.10210  Biso   1.000  H
  H50      1.0000 0.46370  0.54100  0.39790  Biso   1.000  H
  H51      1.0000 0.96370  0.95900  0.89790  Biso   1.000  H
  H52      1.0000 0.53630  0.45900  0.60210  Biso   1.000  H
  H53      1.0000 0.01180  0.21880  0.13050  Biso   1.000  H
  H54      1.0000 0.48820  0.71880  0.36950  Biso   1.000  H
  H55      1.0000 0.98820  0.78120  0.86950  Biso   1.000  H
  H56      1.0000 0.51180  0.28120  0.63050  Biso   1.000  H
  H57      1.0000 0.96100  0.16800  0.03120  Biso   1.000  H
  H58      1.0000 0.53900  0.66800  0.46880  Biso   1.000  H
  H59      1.0000 0.03900  0.83200  0.96880  Biso   1.000  H
  H60      1.0000 0.46100  0.33200  0.53120  Biso   1.000  H
  N1       1.0000 0.68153  0.88320  0.06138  Biso   1.000  N
  N2       1.0000 0.81847  0.38320  0.43862  Biso   1.000  N
  N3       1.0000 0.31847  0.11680  0.93862  Biso   1.000  N
  N4       1.0000 0.18153  0.61680  0.56138  Biso   1.000  N
  N5       1.0000 0.87105  0.00750  0.19254  Biso   1.000  N
  N6       1.0000 0.62895  0.50750  0.30746  Biso   1.000  N
  N7       1.0000 0.12895  0.99250  0.80746  Biso   1.000  N
  N8       1.0000 0.37105  0.49250  0.69254  Biso   1.000  N
  H61      1.0000 0.88620  0.09020  0.23170  Biso   1.000  H
  H62      1.0000 0.61380  0.59020  0.26830  Biso   1.000  H
  H63      1.0000 0.11380  0.90980  0.76830  Biso   1.000  H
  H64      1.0000 0.38620  0.40980  0.73170  Biso   1.000  H
  H65      1.0000 0.93670  0.93710  0.20890  Biso   1.000  H
  H66      1.0000 0.56330  0.43710  0.29110  Biso   1.000  H
  H67      1.0000 0.06330  0.06290  0.79110  Biso   1.000  H
  H68      1.0000 0.43670  0.56290  0.70890  Biso   1.000  H
  O1       1.0000 0.75075  0.89368  0.31851  Biso   1.000  O
  O2       1.0000 0.74925  0.39368  0.18149  Biso   1.000  O
  O3       1.0000 0.24925  0.10632  0.68149  Biso   1.000  O
  O4       1.0000 0.25075  0.60632  0.81851  Biso   1.000  O
  O5       1.0000 0.66120  0.12353  0.28153  Biso   1.000  O
  O6       1.0000 0.83880  0.62353  0.21847  Biso   1.000  O
  O7       1.0000 0.33880  0.87647  0.71847  Biso   1.000  O
  O8       1.0000 0.16120  0.37647  0.78153  Biso   1.000  O
  O9       1.0000 0.55366  0.78980  0.18024  Biso   1.000  O
  O10      1.0000 0.94634  0.28980  0.31976  Biso   1.000  O
  O11      1.0000 0.44634  0.21020  0.81976  Biso   1.000  O
  O12      1.0000 0.05366  0.71020  0.68024  Biso   1.000  O
  N9       1.0000 0.71039  0.02650  0.34295  Biso   1.000  N
  N10      1.0000 0.78961  0.52650  0.15705  Biso   1.000  N
  N11      1.0000 0.28961  0.97350  0.65705  Biso   1.000  N
  N12      1.0000 0.21039  0.47350  0.84295  Biso   1.000  N
  C53      1.0000 0.90400  0.98370  0.11550  Biso   1.000  C
  C54      1.0000 0.59600  0.48370  0.38450  Biso   1.000  C
  C55      1.0000 0.09600  0.01630  0.88450  Biso   1.000  C
  C56      1.0000 0.40400  0.51630  0.61550  Biso   1.000  C
  C57      1.0000 0.99900  0.10700  0.10400  Biso   1.000  C
  C58      1.0000 0.50100  0.60700  0.39600  Biso   1.000  C
  C59      1.0000 0.00100  0.89300  0.89600  Biso   1.000  C
  C60      1.0000 0.49900  0.39300  0.60400  Biso   1.000  C
  H69      1.0000 0.95010  0.87930  0.12550  Biso   1.000  H
  H70      1.0000 0.54990  0.37930  0.37450  Biso   1.000  H
  H71      1.0000 0.04990  0.12070  0.87450  Biso   1.000  H
  H72      1.0000 0.45010  0.62070  0.62550  Biso   1.000  H
  H73      1.0000 0.96970  0.21640  0.10870  Biso   1.000  H
  H74      1.0000 0.53030  0.71640  0.39130  Biso   1.000  H
  H75      1.0000 0.03030  0.78360  0.89130  Biso   1.000  H
  H76      1.0000 0.46970  0.28360  0.60870  Biso   1.000  H
  H77      1.0000 0.00840  0.09320  0.04680  Biso   1.000  H
  H78      1.0000 0.49160  0.59320  0.45320  Biso   1.000  H
  H79      1.0000 0.99160  0.90680  0.95320  Biso   1.000  H
  H80      1.0000 0.50840  0.40680  0.54680  Biso   1.000  H
  H81      1.0000 0.07930  0.09010  0.14820  Biso   1.000  H
  H82      1.0000 0.42070  0.59010  0.35180  Biso   1.000  H
  H83      1.0000 0.92070  0.90990  0.85180  Biso   1.000  H
  H84      1.0000 0.57930  0.40990  0.64820  Biso   1.000  H
