data_image0
_cell_length_a       15.0919
_cell_length_b       8.5096
_cell_length_c       17.6759
_cell_angle_alpha    90
_cell_angle_beta     90
_cell_angle_gamma    90

_symmetry_space_group_name_H-M    "P 1"
_symmetry_int_tables_number       1

loop_
  _symmetry_equiv_pos_as_xyz
  'x, y, z'

loop_
  _atom_site_label
  _atom_site_occupancy
  _atom_site_fract_x
  _atom_site_fract_y
  _atom_site_fract_z
  _atom_site_thermal_displace_type
  _atom_site_B_iso_or_equiv
  _atom_site_type_symbol
  Cu1      1.0000 0.60473  0.61698  0.72700  Biso   1.000  Cu
  Cu2      1.0000 0.39527  0.38302  0.22700  Biso   1.000  Cu
  Cu3      1.0000 0.10473  0.38302  0.72700  Biso   1.000  Cu
  Cu4      1.0000 0.89527  0.61698  0.22700  Biso   1.000  Cu
  S1       1.0000 0.40668  0.68318  0.83678  Biso   1.000  S
  S2       1.0000 0.59332  0.31682  0.33678  Biso   1.000  S
  S3       1.0000 0.90668  0.31682  0.83678  Biso   1.000  S
  S4       1.0000 0.09332  0.68318  0.33678  Biso   1.000  S
  S5       1.0000 0.30345  0.33020  0.61834  Biso   1.000  S
  S6       1.0000 0.69655  0.66980  0.11834  Biso   1.000  S
  S7       1.0000 0.80345  0.66980  0.61834  Biso   1.000  S
  S8       1.0000 0.19655  0.33020  0.11834  Biso   1.000  S
  N1       1.0000 0.56190  0.77850  0.65360  Biso   1.000  N
  N2       1.0000 0.43810  0.22150  0.15360  Biso   1.000  N
  N3       1.0000 0.06190  0.22150  0.65360  Biso   1.000  N
  N4       1.0000 0.93810  0.77850  0.15360  Biso   1.000  N
  N5       1.0000 0.63820  0.80710  0.78490  Biso   1.000  N
  N6       1.0000 0.36180  0.19290  0.28490  Biso   1.000  N
  N7       1.0000 0.13820  0.19290  0.78490  Biso   1.000  N
  N8       1.0000 0.86180  0.80710  0.28490  Biso   1.000  N
  O1       1.0000 0.45890  0.60490  0.77990  Biso   1.000  O
  O2       1.0000 0.54110  0.39510  0.27990  Biso   1.000  O
  O3       1.0000 0.95890  0.39510  0.77990  Biso   1.000  O
  O4       1.0000 0.04110  0.60490  0.27990  Biso   1.000  O
  O5       1.0000 0.31880  0.61910  0.84350  Biso   1.000  O
  O6       1.0000 0.68120  0.38090  0.34350  Biso   1.000  O
  O7       1.0000 0.81880  0.38090  0.84350  Biso   1.000  O
  O8       1.0000 0.18120  0.61910  0.34350  Biso   1.000  O
  O9       1.0000 0.45150  0.69000  0.91030  Biso   1.000  O
  O10      1.0000 0.54850  0.31000  0.41030  Biso   1.000  O
  O11      1.0000 0.95150  0.31000  0.91030  Biso   1.000  O
  O12      1.0000 0.04850  0.69000  0.41030  Biso   1.000  O
  O13      1.0000 0.25030  0.41460  0.67290  Biso   1.000  O
  O14      1.0000 0.74970  0.58540  0.17290  Biso   1.000  O
  O15      1.0000 0.75030  0.58540  0.67290  Biso   1.000  O
  O16      1.0000 0.24970  0.41460  0.17290  Biso   1.000  O
  O17      1.0000 0.39440  0.38420  0.61580  Biso   1.000  O
  O18      1.0000 0.60560  0.61580  0.11580  Biso   1.000  O
  O19      1.0000 0.89440  0.61580  0.61580  Biso   1.000  O
  O20      1.0000 0.10560  0.38420  0.11580  Biso   1.000  O
  O21      1.0000 0.26430  0.32720  0.54390  Biso   1.000  O
  O22      1.0000 0.73570  0.67280  0.04390  Biso   1.000  O
  O23      1.0000 0.76430  0.67280  0.54390  Biso   1.000  O
  O24      1.0000 0.23570  0.32720  0.04390  Biso   1.000  O
  O25      1.0000 0.65150  0.46720  0.80310  Biso   1.000  O
  O26      1.0000 0.34850  0.53280  0.30310  Biso   1.000  O
  O27      1.0000 0.15150  0.53280  0.80310  Biso   1.000  O
  O28      1.0000 0.84850  0.46720  0.30310  Biso   1.000  O
  H1       1.0000 0.62630  0.47420  0.84590  Biso   1.000  H
  H2       1.0000 0.37370  0.52580  0.34590  Biso   1.000  H
  H3       1.0000 0.12630  0.52580  0.84590  Biso   1.000  H
  H4       1.0000 0.87370  0.47420  0.34590  Biso   1.000  H
  H5       1.0000 0.70510  0.44040  0.81030  Biso   1.000  H
  H6       1.0000 0.29490  0.55960  0.31030  Biso   1.000  H
  H7       1.0000 0.20510  0.55960  0.81030  Biso   1.000  H
  H8       1.0000 0.79490  0.44040  0.31030  Biso   1.000  H
  O29      1.0000 0.56510  0.43640  0.66650  Biso   1.000  O
  O30      1.0000 0.43490  0.56360  0.16650  Biso   1.000  O
  O31      1.0000 0.06510  0.56360  0.66650  Biso   1.000  O
  O32      1.0000 0.93490  0.43640  0.16650  Biso   1.000  O
  H9       1.0000 0.51090  0.42110  0.65540  Biso   1.000  H
  H10      1.0000 0.48910  0.57890  0.15540  Biso   1.000  H
  H11      1.0000 0.01090  0.57890  0.65540  Biso   1.000  H
  H12      1.0000 0.98910  0.42110  0.15540  Biso   1.000  H
  H13      1.0000 0.59500  0.43290  0.62580  Biso   1.000  H
  H14      1.0000 0.40500  0.56710  0.12580  Biso   1.000  H
  H15      1.0000 0.09500  0.56710  0.62580  Biso   1.000  H
  H16      1.0000 0.90500  0.43290  0.12580  Biso   1.000  H
  C1       1.0000 0.39560  0.88250  0.80840  Biso   1.000  C
  C2       1.0000 0.60440  0.11750  0.30840  Biso   1.000  C
  C3       1.0000 0.89560  0.11750  0.80840  Biso   1.000  C
  C4       1.0000 0.10440  0.88250  0.30840  Biso   1.000  C
  C5       1.0000 0.42680  0.99710  0.85580  Biso   1.000  C
  C6       1.0000 0.57320  0.00290  0.35580  Biso   1.000  C
  C7       1.0000 0.92680  0.00290  0.85580  Biso   1.000  C
  C8       1.0000 0.07320  0.99710  0.35580  Biso   1.000  C
  H17      1.0000 0.45320  0.96830  0.90130  Biso   1.000  H
  H18      1.0000 0.54680  0.03170  0.40130  Biso   1.000  H
  H19      1.0000 0.95320  0.03170  0.90130  Biso   1.000  H
  H20      1.0000 0.04680  0.96830  0.40130  Biso   1.000  H
  C9       1.0000 0.42010  0.15610  0.83730  Biso   1.000  C
  C10      1.0000 0.57990  0.84390  0.33730  Biso   1.000  C
  C11      1.0000 0.92010  0.84390  0.83730  Biso   1.000  C
  C12      1.0000 0.07990  0.15610  0.33730  Biso   1.000  C
  H21      1.0000 0.44160  0.23150  0.87070  Biso   1.000  H
  H22      1.0000 0.55840  0.76850  0.37070  Biso   1.000  H
  H23      1.0000 0.94160  0.76850  0.87070  Biso   1.000  H
  H24      1.0000 0.05840  0.23150  0.37070  Biso   1.000  H
  C13      1.0000 0.38240  0.20190  0.77110  Biso   1.000  C
  C14      1.0000 0.61760  0.79810  0.27110  Biso   1.000  C
  C15      1.0000 0.88240  0.79810  0.77110  Biso   1.000  C
  C16      1.0000 0.11760  0.20190  0.27110  Biso   1.000  C
  H25      1.0000 0.37880  0.30830  0.75930  Biso   1.000  H
  H26      1.0000 0.62120  0.69170  0.25930  Biso   1.000  H
  H27      1.0000 0.87880  0.69170  0.75930  Biso   1.000  H
  H28      1.0000 0.12120  0.30830  0.25930  Biso   1.000  H
  C17      1.0000 0.34880  0.08930  0.71990  Biso   1.000  C
  C18      1.0000 0.65120  0.91070  0.21990  Biso   1.000  C
  C19      1.0000 0.84880  0.91070  0.71990  Biso   1.000  C
  C20      1.0000 0.15120  0.08930  0.21990  Biso   1.000  C
  C21      1.0000 0.35490  0.92740  0.73760  Biso   1.000  C
  C22      1.0000 0.64510  0.07260  0.23760  Biso   1.000  C
  C23      1.0000 0.85490  0.07260  0.73760  Biso   1.000  C
  C24      1.0000 0.14510  0.92740  0.23760  Biso   1.000  C
  C25      1.0000 0.31840  0.81270  0.68820  Biso   1.000  C
  C26      1.0000 0.68160  0.18730  0.18820  Biso   1.000  C
  C27      1.0000 0.81840  0.18730  0.68820  Biso   1.000  C
  C28      1.0000 0.18160  0.81270  0.18820  Biso   1.000  C
  H29      1.0000 0.32300  0.70640  0.69980  Biso   1.000  H
  H30      1.0000 0.67700  0.29360  0.19980  Biso   1.000  H
  H31      1.0000 0.82300  0.29360  0.69980  Biso   1.000  H
  H32      1.0000 0.17700  0.70640  0.19980  Biso   1.000  H
  C29      1.0000 0.27700  0.85900  0.62420  Biso   1.000  C
  C30      1.0000 0.72300  0.14100  0.12420  Biso   1.000  C
  C31      1.0000 0.77700  0.14100  0.62420  Biso   1.000  C
  C32      1.0000 0.22300  0.85900  0.12420  Biso   1.000  C
  H33      1.0000 0.25180  0.78370  0.59270  Biso   1.000  H
  H34      1.0000 0.74820  0.21630  0.09270  Biso   1.000  H
  H35      1.0000 0.75180  0.21630  0.59270  Biso   1.000  H
  H36      1.0000 0.24820  0.78370  0.09270  Biso   1.000  H
  C33      1.0000 0.27120  0.01710  0.60430  Biso   1.000  C
  C34      1.0000 0.72880  0.98290  0.10430  Biso   1.000  C
  C35      1.0000 0.77120  0.98290  0.60430  Biso   1.000  C
  C36      1.0000 0.22880  0.01710  0.10430  Biso   1.000  C
  H37      1.0000 0.24210  0.04580  0.56010  Biso   1.000  H
  H38      1.0000 0.75790  0.95420  0.06010  Biso   1.000  H
  H39      1.0000 0.74210  0.95420  0.56010  Biso   1.000  H
  H40      1.0000 0.25790  0.04580  0.06010  Biso   1.000  H
  C37      1.0000 0.30790  0.13030  0.64920  Biso   1.000  C
  C38      1.0000 0.69210  0.86970  0.14920  Biso   1.000  C
  C39      1.0000 0.80790  0.86970  0.64920  Biso   1.000  C
  C40      1.0000 0.19210  0.13030  0.14920  Biso   1.000  C
  C41      1.0000 0.52140  0.75370  0.58690  Biso   1.000  C
  C42      1.0000 0.47860  0.24630  0.08690  Biso   1.000  C
  C43      1.0000 0.02140  0.24630  0.58690  Biso   1.000  C
  C44      1.0000 0.97860  0.75370  0.08690  Biso   1.000  C
  H41      1.0000 0.51280  0.65080  0.57070  Biso   1.000  H
  H42      1.0000 0.48720  0.34920  0.07070  Biso   1.000  H
  H43      1.0000 0.01280  0.34920  0.57070  Biso   1.000  H
  H44      1.0000 0.98720  0.65080  0.07070  Biso   1.000  H
  C45      1.0000 0.49250  0.87350  0.54220  Biso   1.000  C
  C46      1.0000 0.50750  0.12650  0.04220  Biso   1.000  C
  C47      1.0000 0.99250  0.12650  0.54220  Biso   1.000  C
  C48      1.0000 0.00750  0.87350  0.04220  Biso   1.000  C
  H45      1.0000 0.46430  0.85200  0.49660  Biso   1.000  H
  H46      1.0000 0.53570  0.14800  0.99660  Biso   1.000  H
  H47      1.0000 0.96430  0.14800  0.49660  Biso   1.000  H
  H48      1.0000 0.03570  0.85200  0.99660  Biso   1.000  H
  C49      1.0000 0.50540  0.02610  0.56470  Biso   1.000  C
  C50      1.0000 0.49460  0.97390  0.06470  Biso   1.000  C
  C51      1.0000 0.00540  0.97390  0.56470  Biso   1.000  C
  C52      1.0000 0.99460  0.02610  0.06470  Biso   1.000  C
  H49      1.0000 0.48720  0.10950  0.53440  Biso   1.000  H
  H50      1.0000 0.51280  0.89050  0.03440  Biso   1.000  H
  H51      1.0000 0.98720  0.89050  0.53440  Biso   1.000  H
  H52      1.0000 0.01280  0.10950  0.03440  Biso   1.000  H
  C53      1.0000 0.54550  0.05230  0.63280  Biso   1.000  C
  C54      1.0000 0.45450  0.94770  0.13280  Biso   1.000  C
  C55      1.0000 0.04550  0.94770  0.63280  Biso   1.000  C
  C56      1.0000 0.95450  0.05230  0.13280  Biso   1.000  C
  H53      1.0000 0.55380  0.15460  0.64980  Biso   1.000  H
  H54      1.0000 0.44620  0.84540  0.14980  Biso   1.000  H
  H55      1.0000 0.05380  0.84540  0.64980  Biso   1.000  H
  H56      1.0000 0.94620  0.15460  0.14980  Biso   1.000  H
  C57      1.0000 0.57370  0.92720  0.67660  Biso   1.000  C
  C58      1.0000 0.42630  0.07280  0.17660  Biso   1.000  C
  C59      1.0000 0.07370  0.07280  0.67660  Biso   1.000  C
  C60      1.0000 0.92630  0.92720  0.17660  Biso   1.000  C
  C61      1.0000 0.61690  0.94420  0.75120  Biso   1.000  C
  C62      1.0000 0.38310  0.05580  0.25120  Biso   1.000  C
  C63      1.0000 0.11690  0.05580  0.75120  Biso   1.000  C
  C64      1.0000 0.88310  0.94420  0.25120  Biso   1.000  C
  C65      1.0000 0.63210  0.08730  0.78600  Biso   1.000  C
  C66      1.0000 0.36790  0.91270  0.28600  Biso   1.000  C
  C67      1.0000 0.13210  0.91270  0.78600  Biso   1.000  C
  C68      1.0000 0.86790  0.08730  0.28600  Biso   1.000  C
  H57      1.0000 0.61660  0.18020  0.76170  Biso   1.000  H
  H58      1.0000 0.38340  0.81980  0.26170  Biso   1.000  H
  H59      1.0000 0.11660  0.81980  0.76170  Biso   1.000  H
  H60      1.0000 0.88340  0.18020  0.26170  Biso   1.000  H
  C69      1.0000 0.66980  0.09170  0.85580  Biso   1.000  C
  C70      1.0000 0.33020  0.90830  0.35580  Biso   1.000  C
  C71      1.0000 0.16980  0.90830  0.85580  Biso   1.000  C
  C72      1.0000 0.83020  0.09170  0.35580  Biso   1.000  C
  H61      1.0000 0.68000  0.18710  0.88000  Biso   1.000  H
  H62      1.0000 0.32000  0.81290  0.38000  Biso   1.000  H
  H63      1.0000 0.18000  0.81290  0.88000  Biso   1.000  H
  H64      1.0000 0.82000  0.18710  0.38000  Biso   1.000  H
  C73      1.0000 0.69220  0.95390  0.88960  Biso   1.000  C
  C74      1.0000 0.30780  0.04610  0.38960  Biso   1.000  C
  C75      1.0000 0.19220  0.04610  0.88960  Biso   1.000  C
  C76      1.0000 0.80780  0.95390  0.38960  Biso   1.000  C
  H65      1.0000 0.71870  0.95450  0.93720  Biso   1.000  H
  H66      1.0000 0.28130  0.04550  0.43720  Biso   1.000  H
  H67      1.0000 0.21870  0.04550  0.93720  Biso   1.000  H
  H68      1.0000 0.78130  0.95450  0.43720  Biso   1.000  H
  C77      1.0000 0.67570  0.81210  0.85320  Biso   1.000  C
  C78      1.0000 0.32430  0.18790  0.35320  Biso   1.000  C
  C79      1.0000 0.17570  0.18790  0.85320  Biso   1.000  C
  C80      1.0000 0.82430  0.81210  0.35320  Biso   1.000  C
  H69      1.0000 0.69110  0.71850  0.87690  Biso   1.000  H
  H70      1.0000 0.30890  0.28150  0.37690  Biso   1.000  H
  H71      1.0000 0.19110  0.28150  0.87690  Biso   1.000  H
  H72      1.0000 0.80890  0.71850  0.37690  Biso   1.000  H
  O33      1.0000 0.58880  0.47850  0.94690  Biso   1.000  O
  O34      1.0000 0.41120  0.52150  0.44690  Biso   1.000  O
  O35      1.0000 0.08880  0.52150  0.94690  Biso   1.000  O
  O36      1.0000 0.91120  0.47850  0.44690  Biso   1.000  O
  H73      1.0000 0.54740  0.53610  0.92980  Biso   1.000  H
  H74      1.0000 0.45260  0.46390  0.42980  Biso   1.000  H
  H75      1.0000 0.04740  0.46390  0.92980  Biso   1.000  H
  H76      1.0000 0.95260  0.53610  0.42980  Biso   1.000  H
  H77      1.0000 0.59880  0.50560  0.99240  Biso   1.000  H
  H78      1.0000 0.40120  0.49440  0.49240  Biso   1.000  H
  H79      1.0000 0.09880  0.49440  0.99240  Biso   1.000  H
  H80      1.0000 0.90120  0.50560  0.49240  Biso   1.000  H
  O37      1.0000 0.64360  0.41840  0.53490  Biso   1.000  O
  O38      1.0000 0.35640  0.58160  0.03490  Biso   1.000  O
  O39      1.0000 0.14360  0.58160  0.53490  Biso   1.000  O
  O40      1.0000 0.85640  0.41840  0.03490  Biso   1.000  O
  H81      1.0000 0.67810  0.49660  0.52940  Biso   1.000  H
  H82      1.0000 0.32190  0.50340  0.02940  Biso   1.000  H
  H83      1.0000 0.17810  0.50340  0.52940  Biso   1.000  H
  H84      1.0000 0.82190  0.49660  0.02940  Biso   1.000  H
  H85      1.0000 0.61940  0.39840  0.49260  Biso   1.000  H
  H86      1.0000 0.38060  0.60160  0.99260  Biso   1.000  H
  H87      1.0000 0.11940  0.60160  0.49260  Biso   1.000  H
  H88      1.0000 0.88060  0.39840  0.99260  Biso   1.000  H
