data_image0
_cell_length_a       10.687
_cell_length_b       9.772
_cell_length_c       12.678
_cell_angle_alpha    90
_cell_angle_beta     107
_cell_angle_gamma    90

_symmetry_space_group_name_H-M    "P 1"
_symmetry_int_tables_number       1

loop_
  _symmetry_equiv_pos_as_xyz
  'x, y, z'

loop_
  _atom_site_label
  _atom_site_occupancy
  _atom_site_fract_x
  _atom_site_fract_y
  _atom_site_fract_z
  _atom_site_thermal_displace_type
  _atom_site_B_iso_or_equiv
  _atom_site_type_symbol
  Cu1      1.0000 0.00000  0.50000  0.00000  Biso   1.000  Cu
  Cu2      1.0000 0.00000  0.00000  0.50000  Biso   1.000  Cu
  O1       1.0000 0.84213  0.41970  0.02305  Biso   1.000  O
  O2       1.0000 0.15787  0.91970  0.47695  Biso   1.000  O
  O3       1.0000 0.15787  0.58030  0.97695  Biso   1.000  O
  O4       1.0000 0.84213  0.08030  0.52305  Biso   1.000  O
  O5       1.0000 0.78906  0.42273  0.83895  Biso   1.000  O
  O6       1.0000 0.21094  0.92273  0.66105  Biso   1.000  O
  O7       1.0000 0.21094  0.57727  0.16105  Biso   1.000  O
  O8       1.0000 0.78906  0.07727  0.33895  Biso   1.000  O
  N1       1.0000 0.20803  0.15735  0.96624  Biso   1.000  N
  N2       1.0000 0.79197  0.65735  0.53376  Biso   1.000  N
  N3       1.0000 0.79197  0.84265  0.03376  Biso   1.000  N
  N4       1.0000 0.20803  0.34265  0.46624  Biso   1.000  N
  N5       1.0000 0.08309  0.31676  0.00800  Biso   1.000  N
  N6       1.0000 0.91691  0.81676  0.49200  Biso   1.000  N
  N7       1.0000 0.91691  0.68324  0.99200  Biso   1.000  N
  N8       1.0000 0.08309  0.18324  0.50800  Biso   1.000  N
  C1       1.0000 0.76380  0.39580  0.92580  Biso   1.000  C
  C2       1.0000 0.23620  0.89580  0.57420  Biso   1.000  C
  C3       1.0000 0.23620  0.60420  0.07420  Biso   1.000  C
  C4       1.0000 0.76380  0.10420  0.42580  Biso   1.000  C
  C5       1.0000 0.63610  0.32650  0.92117  Biso   1.000  C
  C6       1.0000 0.36390  0.82650  0.57883  Biso   1.000  C
  C7       1.0000 0.36390  0.67350  0.07883  Biso   1.000  C
  C8       1.0000 0.63610  0.17350  0.42117  Biso   1.000  C
  C9       1.0000 0.16050  0.10070  0.04681  Biso   1.000  C
  C10      1.0000 0.83950  0.60070  0.45319  Biso   1.000  C
  C11      1.0000 0.83950  0.89930  0.95319  Biso   1.000  C
  C12      1.0000 0.16050  0.39930  0.54681  Biso   1.000  C
  C13      1.0000 0.60190  0.30260  0.01610  Biso   1.000  C
  C14      1.0000 0.39810  0.80260  0.48390  Biso   1.000  C
  C15      1.0000 0.39810  0.69740  0.98390  Biso   1.000  C
  C16      1.0000 0.60190  0.19740  0.51610  Biso   1.000  C
  H1       1.0000 0.65380  0.33570  0.08350  Biso   1.000  H
  H2       1.0000 0.34620  0.83570  0.41650  Biso   1.000  H
  H3       1.0000 0.34620  0.66430  0.91650  Biso   1.000  H
  H4       1.0000 0.65380  0.16430  0.58350  Biso   1.000  H
  C17      1.0000 0.17980  0.97360  0.09840  Biso   1.000  C
  C18      1.0000 0.82020  0.47360  0.40160  Biso   1.000  C
  C19      1.0000 0.82020  0.02640  0.90160  Biso   1.000  C
  C20      1.0000 0.17980  0.52640  0.59840  Biso   1.000  C
  H5       1.0000 0.23340  0.90780  0.08080  Biso   1.000  H
  H6       1.0000 0.76660  0.40780  0.41920  Biso   1.000  H
  H7       1.0000 0.76660  0.09220  0.91920  Biso   1.000  H
  H8       1.0000 0.23340  0.59220  0.58080  Biso   1.000  H
  C21      1.0000 0.40960  0.17740  0.91150  Biso   1.000  C
  C22      1.0000 0.59040  0.67740  0.58850  Biso   1.000  C
  C23      1.0000 0.59040  0.82260  0.08850  Biso   1.000  C
  C24      1.0000 0.40960  0.32260  0.41150  Biso   1.000  C
  C25      1.0000 0.16030  0.28520  0.94713  Biso   1.000  C
  C26      1.0000 0.83970  0.78520  0.55287  Biso   1.000  C
  C27      1.0000 0.83970  0.71480  0.05287  Biso   1.000  C
  C28      1.0000 0.16030  0.21480  0.44713  Biso   1.000  C
  C29      1.0000 0.29090  0.09100  0.90760  Biso   1.000  C
  C30      1.0000 0.70910  0.59100  0.59240  Biso   1.000  C
  C31      1.0000 0.70910  0.90900  0.09240  Biso   1.000  C
  C32      1.0000 0.29090  0.40900  0.40760  Biso   1.000  C
  H9       1.0000 0.24060  0.07600  0.83140  Biso   1.000  H
  H10      1.0000 0.75940  0.57600  0.66860  Biso   1.000  H
  H11      1.0000 0.75940  0.92400  0.16860  Biso   1.000  H
  H12      1.0000 0.24060  0.42400  0.33140  Biso   1.000  H
  H13      1.0000 0.31910  0.00260  0.94080  Biso   1.000  H
  H14      1.0000 0.68090  0.50260  0.55920  Biso   1.000  H
  H15      1.0000 0.68090  0.99740  0.05920  Biso   1.000  H
  H16      1.0000 0.31910  0.49740  0.44080  Biso   1.000  H
  C33      1.0000 0.01630  0.17480  0.15011  Biso   1.000  C
  C34      1.0000 0.98370  0.67480  0.34989  Biso   1.000  C
  C35      1.0000 0.98370  0.82520  0.84989  Biso   1.000  C
  C36      1.0000 0.01630  0.32520  0.65011  Biso   1.000  C
  H17      1.0000 0.96210  0.23990  0.16760  Biso   1.000  H
  H18      1.0000 0.03790  0.73990  0.33240  Biso   1.000  H
  H19      1.0000 0.03790  0.76010  0.83240  Biso   1.000  H
  H20      1.0000 0.96210  0.26010  0.66760  Biso   1.000  H
  C37      1.0000 0.08130  0.20110  0.07203  Biso   1.000  C
  C38      1.0000 0.91870  0.70110  0.42797  Biso   1.000  C
  C39      1.0000 0.91870  0.79890  0.92797  Biso   1.000  C
  C40      1.0000 0.08130  0.29890  0.57203  Biso   1.000  C
  C41      1.0000 0.03530  0.04840  0.20070  Biso   1.000  C
  C42      1.0000 0.96470  0.54840  0.29930  Biso   1.000  C
  C43      1.0000 0.96470  0.95160  0.79930  Biso   1.000  C
  C44      1.0000 0.03530  0.45160  0.70070  Biso   1.000  C
  H21      1.0000 0.99250  0.02840  0.25310  Biso   1.000  H
  H22      1.0000 0.00750  0.52840  0.24690  Biso   1.000  H
  H23      1.0000 0.00750  0.97160  0.74690  Biso   1.000  H
  H24      1.0000 0.99250  0.47160  0.75310  Biso   1.000  H
  C45      1.0000 0.44250  0.20320  0.81660  Biso   1.000  C
  C46      1.0000 0.55750  0.70320  0.68340  Biso   1.000  C
  C47      1.0000 0.55750  0.79680  0.18340  Biso   1.000  C
  C48      1.0000 0.44250  0.29680  0.31660  Biso   1.000  C
  H25      1.0000 0.38970  0.17120  0.74910  Biso   1.000  H
  H26      1.0000 0.61030  0.67120  0.75090  Biso   1.000  H
  H27      1.0000 0.61030  0.82880  0.25090  Biso   1.000  H
  H28      1.0000 0.38970  0.32880  0.24910  Biso   1.000  H
  C49      1.0000 0.11670  0.94950  0.17580  Biso   1.000  C
  C50      1.0000 0.88330  0.44950  0.32420  Biso   1.000  C
  C51      1.0000 0.88330  0.05050  0.82420  Biso   1.000  C
  C52      1.0000 0.11670  0.55050  0.67580  Biso   1.000  C
  H29      1.0000 0.12800  0.86590  0.21250  Biso   1.000  H
  H30      1.0000 0.87200  0.36590  0.28750  Biso   1.000  H
  H31      1.0000 0.87200  0.13410  0.78750  Biso   1.000  H
  H32      1.0000 0.12800  0.63410  0.71250  Biso   1.000  H
  C53      1.0000 0.48940  0.22880  0.01030  Biso   1.000  C
  C54      1.0000 0.51060  0.72880  0.48970  Biso   1.000  C
  C55      1.0000 0.51060  0.77120  0.98970  Biso   1.000  C
  C56      1.0000 0.48940  0.27120  0.51030  Biso   1.000  C
  H33      1.0000 0.46670  0.21320  0.07470  Biso   1.000  H
  H34      1.0000 0.53330  0.71320  0.42530  Biso   1.000  H
  H35      1.0000 0.53330  0.78680  0.92530  Biso   1.000  H
  H36      1.0000 0.46670  0.28680  0.57470  Biso   1.000  H
  C57      1.0000 0.55530  0.27770  0.82190  Biso   1.000  C
  C58      1.0000 0.44470  0.77770  0.67810  Biso   1.000  C
  C59      1.0000 0.44470  0.72230  0.17810  Biso   1.000  C
  C60      1.0000 0.55530  0.22230  0.32190  Biso   1.000  C
  H37      1.0000 0.57700  0.29500  0.75730  Biso   1.000  H
  H38      1.0000 0.42300  0.79500  0.74270  Biso   1.000  H
  H39      1.0000 0.42300  0.70500  0.24270  Biso   1.000  H
  H40      1.0000 0.57700  0.20500  0.25730  Biso   1.000  H
