data_image0
_cell_length_a       9.3696
_cell_length_b       16.034
_cell_length_c       22.7991
_cell_angle_alpha    90
_cell_angle_beta     92.9561
_cell_angle_gamma    90

_symmetry_space_group_name_H-M    "P 1"
_symmetry_int_tables_number       1

loop_
  _symmetry_equiv_pos_as_xyz
  'x, y, z'

loop_
  _atom_site_label
  _atom_site_occupancy
  _atom_site_fract_x
  _atom_site_fract_y
  _atom_site_fract_z
  _atom_site_thermal_displace_type
  _atom_site_B_iso_or_equiv
  _atom_site_type_symbol
  Cu1      1.0000 0.54594  0.66665  0.24510  Biso   1.000  Cu
  Cu2      1.0000 0.95406  0.16665  0.25490  Biso   1.000  Cu
  Cu3      1.0000 0.45406  0.33335  0.75490  Biso   1.000  Cu
  Cu4      1.0000 0.04594  0.83335  0.74510  Biso   1.000  Cu
  Cu5      1.0000 0.04787  0.50612  0.24709  Biso   1.000  Cu
  Cu6      1.0000 0.45213  0.00612  0.25291  Biso   1.000  Cu
  Cu7      1.0000 0.95213  0.49388  0.75291  Biso   1.000  Cu
  Cu8      1.0000 0.54787  0.99388  0.74709  Biso   1.000  Cu
  O1       1.0000 0.42200  0.56723  0.19041  Biso   1.000  O
  O2       1.0000 0.07800  0.06723  0.30959  Biso   1.000  O
  O3       1.0000 0.57800  0.43277  0.80959  Biso   1.000  O
  O4       1.0000 0.92200  0.93277  0.69041  Biso   1.000  O
  O5       1.0000 0.37500  0.64980  0.29249  Biso   1.000  O
  O6       1.0000 0.12500  0.14980  0.20751  Biso   1.000  O
  O7       1.0000 0.62500  0.35020  0.70751  Biso   1.000  O
  O8       1.0000 0.87500  0.85020  0.79249  Biso   1.000  O
  O9       1.0000 0.21330  0.50355  0.19745  Biso   1.000  O
  O10      1.0000 0.28670  0.00355  0.30255  Biso   1.000  O
  O11      1.0000 0.78670  0.49645  0.80255  Biso   1.000  O
  O12      1.0000 0.71330  0.99645  0.69745  Biso   1.000  O
  O13      1.0000 0.16310  0.58810  0.29339  Biso   1.000  O
  O14      1.0000 0.33690  0.08810  0.20661  Biso   1.000  O
  O15      1.0000 0.83690  0.41190  0.70661  Biso   1.000  O
  O16      1.0000 0.66310  0.91190  0.79339  Biso   1.000  O
  O17      1.0000 0.45000  0.75686  0.19937  Biso   1.000  O
  O18      1.0000 0.05000  0.25686  0.30063  Biso   1.000  O
  O19      1.0000 0.55000  0.24314  0.80063  Biso   1.000  O
  O20      1.0000 0.95000  0.74314  0.69937  Biso   1.000  O
  O21      1.0000 0.60710  0.78307  0.30109  Biso   1.000  O
  O22      1.0000 0.89290  0.28307  0.19891  Biso   1.000  O
  O23      1.0000 0.39290  0.21693  0.69891  Biso   1.000  O
  O24      1.0000 0.10710  0.71693  0.80109  Biso   1.000  O
  O25      1.0000 0.39340  0.89108  0.19690  Biso   1.000  O
  O26      1.0000 0.10660  0.39108  0.30310  Biso   1.000  O
  O27      1.0000 0.60660  0.10892  0.80310  Biso   1.000  O
  O28      1.0000 0.89340  0.60892  0.69690  Biso   1.000  O
  O29      1.0000 0.54950  0.91577  0.29881  Biso   1.000  O
  O30      1.0000 0.95050  0.41577  0.20119  Biso   1.000  O
  O31      1.0000 0.45050  0.08423  0.70119  Biso   1.000  O
  O32      1.0000 0.04950  0.58423  0.79881  Biso   1.000  O
  O33      1.0000 0.71480  0.67129  0.19677  Biso   1.000  O
  O34      1.0000 0.78520  0.17129  0.30323  Biso   1.000  O
  O35      1.0000 0.28520  0.32871  0.80323  Biso   1.000  O
  O36      1.0000 0.21480  0.82871  0.69677  Biso   1.000  O
  O37      1.0000 0.66070  0.58365  0.29097  Biso   1.000  O
  O38      1.0000 0.83930  0.08365  0.20903  Biso   1.000  O
  O39      1.0000 0.33930  0.41635  0.70903  Biso   1.000  O
  O40      1.0000 0.16070  0.91635  0.79097  Biso   1.000  O
  O41      1.0000 0.92360  0.60694  0.18980  Biso   1.000  O
  O42      1.0000 0.57640  0.10694  0.31020  Biso   1.000  O
  O43      1.0000 0.07640  0.39306  0.81020  Biso   1.000  O
  O44      1.0000 0.42360  0.89306  0.68980  Biso   1.000  O
  O45      1.0000 0.87290  0.52332  0.29155  Biso   1.000  O
  O46      1.0000 0.62710  0.02332  0.20845  Biso   1.000  O
  O47      1.0000 0.12710  0.47668  0.70845  Biso   1.000  O
  O48      1.0000 0.37290  0.97668  0.79155  Biso   1.000  O
  C1       1.0000 0.31030  0.55350  0.21458  Biso   1.000  C
  C2       1.0000 0.18970  0.05350  0.28542  Biso   1.000  C
  C3       1.0000 0.68970  0.44650  0.78542  Biso   1.000  C
  C4       1.0000 0.81030  0.94650  0.71458  Biso   1.000  C
  C5       1.0000 0.28100  0.60120  0.27143  Biso   1.000  C
  C6       1.0000 0.21900  0.10120  0.22857  Biso   1.000  C
  C7       1.0000 0.71900  0.39880  0.72857  Biso   1.000  C
  C8       1.0000 0.78100  0.89880  0.77143  Biso   1.000  C
  C9       1.0000 0.45490  0.83050  0.21969  Biso   1.000  C
  C10      1.0000 0.04510  0.33050  0.28031  Biso   1.000  C
  C11      1.0000 0.54510  0.16950  0.78031  Biso   1.000  C
  C12      1.0000 0.95490  0.66950  0.71969  Biso   1.000  C
  C13      1.0000 0.54570  0.84390  0.27772  Biso   1.000  C
  C14      1.0000 0.95430  0.34390  0.22228  Biso   1.000  C
  C15      1.0000 0.45430  0.15610  0.72228  Biso   1.000  C
  C16      1.0000 0.04570  0.65610  0.77772  Biso   1.000  C
  C17      1.0000 0.81070  0.62030  0.21333  Biso   1.000  C
  C18      1.0000 0.68930  0.12030  0.28667  Biso   1.000  C
  C19      1.0000 0.18930  0.37970  0.78667  Biso   1.000  C
  C20      1.0000 0.31070  0.87970  0.71333  Biso   1.000  C
  C21      1.0000 0.77960  0.57120  0.27032  Biso   1.000  C
  C22      1.0000 0.72040  0.07120  0.22968  Biso   1.000  C
  C23      1.0000 0.22040  0.42880  0.72968  Biso   1.000  C
  C24      1.0000 0.27960  0.92880  0.77032  Biso   1.000  C
  N1       1.0000 0.96910  0.87120  0.14685  Biso   1.000  N
  N2       1.0000 0.53090  0.37120  0.35315  Biso   1.000  N
  N3       1.0000 0.03090  0.12880  0.85315  Biso   1.000  N
  N4       1.0000 0.46910  0.62880  0.64685  Biso   1.000  N
  H1       1.0000 0.00030  0.82310  0.13070  Biso   1.000  H
  H2       1.0000 0.49970  0.32310  0.36930  Biso   1.000  H
  H3       1.0000 0.99970  0.17690  0.86930  Biso   1.000  H
  H4       1.0000 0.50030  0.67690  0.63070  Biso   1.000  H
  C25      1.0000 0.80910  0.89400  0.12050  Biso   1.000  C
  C26      1.0000 0.69090  0.39400  0.37950  Biso   1.000  C
  C27      1.0000 0.19090  0.10600  0.87950  Biso   1.000  C
  C28      1.0000 0.30910  0.60600  0.62050  Biso   1.000  C
  H5       1.0000 0.76290  0.92470  0.15090  Biso   1.000  H
  H6       1.0000 0.73710  0.42470  0.34910  Biso   1.000  H
  H7       1.0000 0.23710  0.07530  0.84910  Biso   1.000  H
  H8       1.0000 0.26290  0.57530  0.65090  Biso   1.000  H
  H9       1.0000 0.82070  0.93280  0.08840  Biso   1.000  H
  H10      1.0000 0.67930  0.43280  0.41160  Biso   1.000  H
  H11      1.0000 0.17930  0.06720  0.91160  Biso   1.000  H
  H12      1.0000 0.32070  0.56720  0.58840  Biso   1.000  H
  C29      1.0000 0.72380  0.84100  0.10230  Biso   1.000  C
  C30      1.0000 0.77620  0.34100  0.39770  Biso   1.000  C
  C31      1.0000 0.27620  0.15900  0.89770  Biso   1.000  C
  C32      1.0000 0.22380  0.65900  0.60230  Biso   1.000  C
  H13      1.0000 0.69990  0.80950  0.13680  Biso   1.000  H
  H14      1.0000 0.80010  0.30950  0.36320  Biso   1.000  H
  H15      1.0000 0.30010  0.19050  0.86320  Biso   1.000  H
  H16      1.0000 0.19990  0.69050  0.63680  Biso   1.000  H
  H17      1.0000 0.77890  0.80350  0.07890  Biso   1.000  H
  H18      1.0000 0.72110  0.30350  0.42110  Biso   1.000  H
  H19      1.0000 0.22110  0.19650  0.92110  Biso   1.000  H
  H20      1.0000 0.27890  0.69650  0.57890  Biso   1.000  H
  C33      1.0000 0.59770  0.85160  0.07090  Biso   1.000  C
  C34      1.0000 0.90230  0.35160  0.42910  Biso   1.000  C
  C35      1.0000 0.40230  0.14840  0.92910  Biso   1.000  C
  C36      1.0000 0.09770  0.64840  0.57090  Biso   1.000  C
  H21      1.0000 0.54640  0.79980  0.06920  Biso   1.000  H
  H22      1.0000 0.95360  0.29980  0.43080  Biso   1.000  H
  H23      1.0000 0.45360  0.20020  0.93080  Biso   1.000  H
  H24      1.0000 0.04640  0.70020  0.56920  Biso   1.000  H
  H25      1.0000 0.61610  0.86950  0.03180  Biso   1.000  H
  H26      1.0000 0.88390  0.36950  0.46820  Biso   1.000  H
  H27      1.0000 0.38390  0.13050  0.96820  Biso   1.000  H
  H28      1.0000 0.11610  0.63050  0.53180  Biso   1.000  H
  H29      1.0000 0.54170  0.89300  0.08960  Biso   1.000  H
  H30      1.0000 0.95830  0.39300  0.41040  Biso   1.000  H
  H31      1.0000 0.45830  0.10700  0.91040  Biso   1.000  H
  H32      1.0000 0.04170  0.60700  0.58960  Biso   1.000  H
  C37      1.0000 0.06490  0.94130  0.13370  Biso   1.000  C
  C38      1.0000 0.43510  0.44130  0.36630  Biso   1.000  C
  C39      1.0000 0.93510  0.05870  0.86630  Biso   1.000  C
  C40      1.0000 0.56490  0.55870  0.63370  Biso   1.000  C
  H33      1.0000 0.01070  0.99260  0.13630  Biso   1.000  H
  H34      1.0000 0.48930  0.49260  0.36370  Biso   1.000  H
  H35      1.0000 0.98930  0.00740  0.86370  Biso   1.000  H
  H36      1.0000 0.51070  0.50740  0.63630  Biso   1.000  H
  H37      1.0000 0.14060  0.94320  0.16430  Biso   1.000  H
  H38      1.0000 0.35940  0.44320  0.33570  Biso   1.000  H
  H39      1.0000 0.85940  0.05680  0.83570  Biso   1.000  H
  H40      1.0000 0.64060  0.55680  0.66430  Biso   1.000  H
  C41      1.0000 0.12900  0.94090  0.07920  Biso   1.000  C
  C42      1.0000 0.37100  0.44090  0.42080  Biso   1.000  C
  C43      1.0000 0.87100  0.05910  0.92080  Biso   1.000  C
  C44      1.0000 0.62900  0.55910  0.57920  Biso   1.000  C
  H41      1.0000 0.05530  0.93220  0.04830  Biso   1.000  H
  H42      1.0000 0.44470  0.43220  0.45170  Biso   1.000  H
  H43      1.0000 0.94470  0.06780  0.95170  Biso   1.000  H
  H44      1.0000 0.55530  0.56780  0.54830  Biso   1.000  H
  H45      1.0000 0.19460  0.89420  0.07830  Biso   1.000  H
  H46      1.0000 0.30540  0.39420  0.42170  Biso   1.000  H
  H47      1.0000 0.80540  0.10580  0.92170  Biso   1.000  H
  H48      1.0000 0.69460  0.60580  0.57830  Biso   1.000  H
  C45      1.0000 0.20810  0.01890  0.06640  Biso   1.000  C
  C46      1.0000 0.29190  0.51890  0.43360  Biso   1.000  C
  C47      1.0000 0.79190  0.98110  0.93360  Biso   1.000  C
  C48      1.0000 0.70810  0.48110  0.56640  Biso   1.000  C
  H49      1.0000 0.23510  0.01810  0.02640  Biso   1.000  H
  H50      1.0000 0.26490  0.51810  0.47360  Biso   1.000  H
  H51      1.0000 0.76490  0.98190  0.97360  Biso   1.000  H
  H52      1.0000 0.73510  0.48190  0.52640  Biso   1.000  H
  H53      1.0000 0.29220  0.02260  0.09220  Biso   1.000  H
  H54      1.0000 0.20780  0.52260  0.40780  Biso   1.000  H
  H55      1.0000 0.70780  0.97740  0.90780  Biso   1.000  H
  H56      1.0000 0.79220  0.47740  0.59220  Biso   1.000  H
  H57      1.0000 0.14780  0.06620  0.07250  Biso   1.000  H
  H58      1.0000 0.35220  0.56620  0.42750  Biso   1.000  H
  H59      1.0000 0.85220  0.93380  0.92750  Biso   1.000  H
  H60      1.0000 0.64780  0.43380  0.57250  Biso   1.000  H
  C49      1.0000 0.96270  0.86210  0.21230  Biso   1.000  C
  C50      1.0000 0.53730  0.36210  0.28770  Biso   1.000  C
  C51      1.0000 0.03730  0.13790  0.78770  Biso   1.000  C
  C52      1.0000 0.46270  0.63790  0.71230  Biso   1.000  C
  H61      1.0000 0.97430  0.91750  0.22900  Biso   1.000  H
  H62      1.0000 0.52570  0.41750  0.27100  Biso   1.000  H
  H63      1.0000 0.02570  0.08250  0.77100  Biso   1.000  H
  H64      1.0000 0.47430  0.58250  0.72900  Biso   1.000  H
  H65      1.0000 0.86660  0.84420  0.21990  Biso   1.000  H
  H66      1.0000 0.63340  0.34420  0.28010  Biso   1.000  H
  H67      1.0000 0.13340  0.15580  0.78010  Biso   1.000  H
  H68      1.0000 0.36660  0.65580  0.71990  Biso   1.000  H
  C53      1.0000 0.05050  0.81290  0.24260  Biso   1.000  C
  C54      1.0000 0.44950  0.31290  0.25740  Biso   1.000  C
  C55      1.0000 0.94950  0.18710  0.75740  Biso   1.000  C
  C56      1.0000 0.55050  0.68710  0.74260  Biso   1.000  C
  H69      1.0000 0.14660  0.83030  0.23440  Biso   1.000  H
  H70      1.0000 0.35340  0.33030  0.26560  Biso   1.000  H
  H71      1.0000 0.85340  0.16970  0.76560  Biso   1.000  H
  H72      1.0000 0.64660  0.66970  0.73440  Biso   1.000  H
  H73      1.0000 0.03780  0.75740  0.22610  Biso   1.000  H
  H74      1.0000 0.46220  0.25740  0.27390  Biso   1.000  H
  H75      1.0000 0.96220  0.24260  0.77390  Biso   1.000  H
  H76      1.0000 0.53780  0.74260  0.72610  Biso   1.000  H
  C57      1.0000 0.04720  0.80410  0.30570  Biso   1.000  C
  C58      1.0000 0.45280  0.30410  0.19430  Biso   1.000  C
  C59      1.0000 0.95280  0.19590  0.69430  Biso   1.000  C
  C60      1.0000 0.54720  0.69590  0.80570  Biso   1.000  C
  H77      1.0000 0.12670  0.77070  0.31990  Biso   1.000  H
  H78      1.0000 0.37330  0.27070  0.18010  Biso   1.000  H
  H79      1.0000 0.87330  0.22930  0.68010  Biso   1.000  H
  H80      1.0000 0.62670  0.72930  0.81990  Biso   1.000  H
  H81      1.0000 0.95960  0.77760  0.31540  Biso   1.000  H
  H82      1.0000 0.54040  0.27760  0.18460  Biso   1.000  H
  H83      1.0000 0.04040  0.22240  0.68460  Biso   1.000  H
  H84      1.0000 0.45960  0.72240  0.81540  Biso   1.000  H
  H85      1.0000 0.05310  0.85820  0.32370  Biso   1.000  H
  H86      1.0000 0.44690  0.35820  0.17630  Biso   1.000  H
  H87      1.0000 0.94690  0.14180  0.67630  Biso   1.000  H
  H88      1.0000 0.55310  0.64180  0.82370  Biso   1.000  H
  N5       1.0000 0.65720  0.81970  0.42210  Biso   1.000  N
  N6       1.0000 0.84280  0.31970  0.07790  Biso   1.000  N
  N7       1.0000 0.34280  0.18030  0.57790  Biso   1.000  N
  N8       1.0000 0.15720  0.68030  0.92210  Biso   1.000  N
  H89      1.0000 0.64860  0.81830  0.38210  Biso   1.000  H
  H90      1.0000 0.85140  0.31830  0.11790  Biso   1.000  H
  H91      1.0000 0.35140  0.18170  0.61790  Biso   1.000  H
  H92      1.0000 0.14860  0.68170  0.88210  Biso   1.000  H
  C61      1.0000 0.70760  0.90210  0.44020  Biso   1.000  C
  C62      1.0000 0.79240  0.40210  0.05980  Biso   1.000  C
  C63      1.0000 0.29240  0.09790  0.55980  Biso   1.000  C
  C64      1.0000 0.20760  0.59790  0.94020  Biso   1.000  C
  H93      1.0000 0.62330  0.93690  0.44210  Biso   1.000  H
  H94      1.0000 0.87670  0.43690  0.05790  Biso   1.000  H
  H95      1.0000 0.37670  0.06310  0.55790  Biso   1.000  H
  H96      1.0000 0.12330  0.56310  0.94210  Biso   1.000  H
  H97      1.0000 0.74670  0.89620  0.48020  Biso   1.000  H
  H98      1.0000 0.75330  0.39620  0.01980  Biso   1.000  H
  H99      1.0000 0.25330  0.10380  0.51980  Biso   1.000  H
  H100     1.0000 0.24670  0.60380  0.98020  Biso   1.000  H
  C65      1.0000 0.80140  0.94590  0.41210  Biso   1.000  C
  C66      1.0000 0.69860  0.44590  0.08790  Biso   1.000  C
  C67      1.0000 0.19860  0.05410  0.58790  Biso   1.000  C
  C68      1.0000 0.30140  0.55410  0.91210  Biso   1.000  C
  H101     1.0000 0.76260  0.95160  0.37200  Biso   1.000  H
  H102     1.0000 0.73740  0.45160  0.12800  Biso   1.000  H
  H103     1.0000 0.23740  0.04840  0.62800  Biso   1.000  H
  H104     1.0000 0.26260  0.54840  0.87200  Biso   1.000  H
  H105     1.0000 0.88600  0.91130  0.41030  Biso   1.000  H
  H106     1.0000 0.61400  0.41130  0.08970  Biso   1.000  H
  H107     1.0000 0.11400  0.08870  0.58970  Biso   1.000  H
  H108     1.0000 0.38600  0.58870  0.91030  Biso   1.000  H
  C69      1.0000 0.85400  0.03310  0.43120  Biso   1.000  C
  C70      1.0000 0.64600  0.53310  0.06880  Biso   1.000  C
  C71      1.0000 0.14600  0.96690  0.56880  Biso   1.000  C
  C72      1.0000 0.35400  0.46690  0.93120  Biso   1.000  C
  H109     1.0000 0.93630  0.04770  0.41000  Biso   1.000  H
  H110     1.0000 0.56370  0.54770  0.09000  Biso   1.000  H
  H111     1.0000 0.06370  0.95230  0.59000  Biso   1.000  H
  H112     1.0000 0.43630  0.45230  0.91000  Biso   1.000  H
  H113     1.0000 0.87920  0.03280  0.47260  Biso   1.000  H
  H114     1.0000 0.62080  0.53280  0.02740  Biso   1.000  H
  H115     1.0000 0.12080  0.96720  0.52740  Biso   1.000  H
  H116     1.0000 0.37920  0.46720  0.97260  Biso   1.000  H
  H117     1.0000 0.77950  0.07310  0.42300  Biso   1.000  H
  H118     1.0000 0.72050  0.57310  0.07700  Biso   1.000  H
  H119     1.0000 0.22050  0.92690  0.57700  Biso   1.000  H
  H120     1.0000 0.27950  0.42690  0.92300  Biso   1.000  H
  C73      1.0000 0.51740  0.81010  0.44440  Biso   1.000  C
  C74      1.0000 0.98260  0.31010  0.05560  Biso   1.000  C
  C75      1.0000 0.48260  0.18990  0.55560  Biso   1.000  C
  C76      1.0000 0.01740  0.68990  0.94440  Biso   1.000  C
  H121     1.0000 0.52220  0.75550  0.46260  Biso   1.000  H
  H122     1.0000 0.97780  0.25550  0.03740  Biso   1.000  H
  H123     1.0000 0.47780  0.24450  0.53740  Biso   1.000  H
  H124     1.0000 0.02220  0.74450  0.96260  Biso   1.000  H
  H125     1.0000 0.51860  0.84930  0.47680  Biso   1.000  H
  H126     1.0000 0.98140  0.34930  0.02320  Biso   1.000  H
  H127     1.0000 0.48140  0.15070  0.52320  Biso   1.000  H
  H128     1.0000 0.01860  0.65070  0.97680  Biso   1.000  H
  C77      1.0000 0.39760  0.81370  0.42500  Biso   1.000  C
  C78      1.0000 0.10240  0.31370  0.07500  Biso   1.000  C
  C79      1.0000 0.60240  0.18630  0.57500  Biso   1.000  C
  C80      1.0000 0.89760  0.68630  0.92500  Biso   1.000  C
  H129     1.0000 0.39600  0.77480  0.39240  Biso   1.000  H
  H130     1.0000 0.10400  0.27480  0.10760  Biso   1.000  H
  H131     1.0000 0.60400  0.22520  0.60760  Biso   1.000  H
  H132     1.0000 0.89600  0.72520  0.89240  Biso   1.000  H
  H133     1.0000 0.39180  0.86860  0.40720  Biso   1.000  H
  H134     1.0000 0.10820  0.36860  0.09280  Biso   1.000  H
  H135     1.0000 0.60820  0.13140  0.59280  Biso   1.000  H
  H136     1.0000 0.89180  0.63140  0.90720  Biso   1.000  H
  C81      1.0000 0.25660  0.80290  0.44900  Biso   1.000  C
  C82      1.0000 0.24340  0.30290  0.05100  Biso   1.000  C
  C83      1.0000 0.74340  0.19710  0.55100  Biso   1.000  C
  C84      1.0000 0.75660  0.69710  0.94900  Biso   1.000  C
  H137     1.0000 0.19130  0.84300  0.43150  Biso   1.000  H
  H138     1.0000 0.30870  0.34300  0.06850  Biso   1.000  H
  H139     1.0000 0.80870  0.15700  0.56850  Biso   1.000  H
  H140     1.0000 0.69130  0.65700  0.93150  Biso   1.000  H
  H141     1.0000 0.26400  0.81110  0.49080  Biso   1.000  H
  H142     1.0000 0.23600  0.31110  0.00920  Biso   1.000  H
  H143     1.0000 0.73600  0.18890  0.50920  Biso   1.000  H
  H144     1.0000 0.76400  0.68890  0.99080  Biso   1.000  H
  H145     1.0000 0.22210  0.74770  0.44050  Biso   1.000  H
  H146     1.0000 0.27790  0.24770  0.05950  Biso   1.000  H
  H147     1.0000 0.77790  0.25230  0.55950  Biso   1.000  H
  H148     1.0000 0.72210  0.75230  0.94050  Biso   1.000  H
  C85      1.0000 0.75440  0.75230  0.44230  Biso   1.000  C
  C86      1.0000 0.74560  0.25230  0.05770  Biso   1.000  C
  C87      1.0000 0.24560  0.24770  0.55770  Biso   1.000  C
  C88      1.0000 0.25440  0.74770  0.94230  Biso   1.000  C
  H149     1.0000 0.84520  0.77990  0.45070  Biso   1.000  H
  H150     1.0000 0.65480  0.27990  0.04930  Biso   1.000  H
  H151     1.0000 0.15480  0.22010  0.54930  Biso   1.000  H
  H152     1.0000 0.34520  0.72010  0.95070  Biso   1.000  H
  H153     1.0000 0.72050  0.73620  0.48020  Biso   1.000  H
  H154     1.0000 0.77950  0.23620  0.01980  Biso   1.000  H
  H155     1.0000 0.27950  0.26380  0.51980  Biso   1.000  H
  H156     1.0000 0.22050  0.76380  0.98020  Biso   1.000  H
  C89      1.0000 0.78720  0.68400  0.41850  Biso   1.000  C
  C90      1.0000 0.71280  0.18400  0.08150  Biso   1.000  C
  C91      1.0000 0.21280  0.31600  0.58150  Biso   1.000  C
  C92      1.0000 0.28720  0.81600  0.91850  Biso   1.000  C
  H157     1.0000 0.81530  0.70110  0.38000  Biso   1.000  H
  H158     1.0000 0.68470  0.20110  0.12000  Biso   1.000  H
  H159     1.0000 0.18470  0.29890  0.62000  Biso   1.000  H
  H160     1.0000 0.31530  0.79890  0.88000  Biso   1.000  H
  H161     1.0000 0.69550  0.65670  0.41160  Biso   1.000  H
  H162     1.0000 0.80450  0.15670  0.08840  Biso   1.000  H
  H163     1.0000 0.30450  0.34330  0.58840  Biso   1.000  H
  H164     1.0000 0.19550  0.84330  0.91160  Biso   1.000  H
  C93      1.0000 0.87860  0.61810  0.43210  Biso   1.000  C
  C94      1.0000 0.62140  0.11810  0.06790  Biso   1.000  C
  C95      1.0000 0.12140  0.38190  0.56790  Biso   1.000  C
  C96      1.0000 0.37860  0.88190  0.93210  Biso   1.000  C
  H165     1.0000 0.84140  0.56810  0.41390  Biso   1.000  H
  H166     1.0000 0.65860  0.06810  0.08610  Biso   1.000  H
  H167     1.0000 0.15860  0.43190  0.58610  Biso   1.000  H
  H168     1.0000 0.34140  0.93190  0.91390  Biso   1.000  H
  H169     1.0000 0.88670  0.61060  0.47390  Biso   1.000  H
  H170     1.0000 0.61330  0.11060  0.02610  Biso   1.000  H
  H171     1.0000 0.11330  0.38940  0.52610  Biso   1.000  H
  H172     1.0000 0.38670  0.88940  0.97390  Biso   1.000  H
  H173     1.0000 0.97120  0.62990  0.41790  Biso   1.000  H
  H174     1.0000 0.52880  0.12990  0.08210  Biso   1.000  H
  H175     1.0000 0.02880  0.37010  0.58210  Biso   1.000  H
  H176     1.0000 0.47120  0.87010  0.91790  Biso   1.000  H
  O49      1.0000 0.02490  0.71460  0.10380  Biso   1.000  O
  O50      1.0000 0.47510  0.21460  0.39620  Biso   1.000  O
  O51      1.0000 0.97510  0.28540  0.89620  Biso   1.000  O
  O52      1.0000 0.52490  0.78540  0.60380  Biso   1.000  O
  O53      1.0000 0.22510  0.74350  0.10850  Biso   1.000  O
  O54      1.0000 0.27490  0.24350  0.39150  Biso   1.000  O
  O55      1.0000 0.77490  0.25650  0.89150  Biso   1.000  O
  O56      1.0000 0.72510  0.75650  0.60850  Biso   1.000  O
  O57      1.0000 0.09420  0.58560  0.09130  Biso   1.000  O
  O58      1.0000 0.40580  0.08560  0.40870  Biso   1.000  O
  O59      1.0000 0.90580  0.41440  0.90870  Biso   1.000  O
  O60      1.0000 0.59420  0.91440  0.59130  Biso   1.000  O
  H177     1.0000 0.04310  0.83450  0.14640  Biso   1.000  H
  H178     1.0000 0.45690  0.33450  0.35360  Biso   1.000  H
  H179     1.0000 0.95690  0.16550  0.85360  Biso   1.000  H
  H180     1.0000 0.54310  0.66550  0.64640  Biso   1.000  H
  C97      1.0000 0.89400  0.82530  0.11570  Biso   1.000  C
  C98      1.0000 0.60600  0.32530  0.38430  Biso   1.000  C
  C99      1.0000 0.10600  0.17470  0.88430  Biso   1.000  C
  C100     1.0000 0.39400  0.67470  0.61570  Biso   1.000  C
  H181     1.0000 0.90370  0.76990  0.13250  Biso   1.000  H
  H182     1.0000 0.59630  0.26990  0.36750  Biso   1.000  H
  H183     1.0000 0.09630  0.23010  0.86750  Biso   1.000  H
  H184     1.0000 0.40370  0.73010  0.63250  Biso   1.000  H
  H185     1.0000 0.93710  0.82320  0.07790  Biso   1.000  H
  H186     1.0000 0.56290  0.32320  0.42210  Biso   1.000  H
  H187     1.0000 0.06290  0.17680  0.92210  Biso   1.000  H
  H188     1.0000 0.43710  0.67680  0.57790  Biso   1.000  H
  H189     1.0000 0.69120  0.79720  0.12770  Biso   1.000  H
  H190     1.0000 0.80880  0.29720  0.37230  Biso   1.000  H
  H191     1.0000 0.30880  0.20280  0.87230  Biso   1.000  H
  H192     1.0000 0.19120  0.70280  0.62770  Biso   1.000  H
  H193     1.0000 0.71720  0.89090  0.12610  Biso   1.000  H
  H194     1.0000 0.78280  0.39090  0.37390  Biso   1.000  H
  H195     1.0000 0.28280  0.10910  0.87390  Biso   1.000  H
  H196     1.0000 0.21720  0.60910  0.62610  Biso   1.000  H
  O61      1.0000 0.32000  0.68990  0.09650  Biso   1.000  O
  O62      1.0000 0.18000  0.18990  0.40350  Biso   1.000  O
  O63      1.0000 0.68000  0.31010  0.90350  Biso   1.000  O
  O64      1.0000 0.82000  0.81010  0.59650  Biso   1.000  O
  O65      1.0000 0.23000  0.51400  0.07920  Biso   1.000  O
  O66      1.0000 0.27000  0.01400  0.42080  Biso   1.000  O
  O67      1.0000 0.77000  0.48600  0.92080  Biso   1.000  O
  O68      1.0000 0.73000  0.98600  0.57920  Biso   1.000  O
