data_image0
_cell_length_a       12.9406
_cell_length_b       19.0638
_cell_length_c       13.2244
_cell_angle_alpha    90
_cell_angle_beta     107.734
_cell_angle_gamma    90

_symmetry_space_group_name_H-M    "P 1"
_symmetry_int_tables_number       1

loop_
  _symmetry_equiv_pos_as_xyz
  'x, y, z'

loop_
  _atom_site_label
  _atom_site_occupancy
  _atom_site_fract_x
  _atom_site_fract_y
  _atom_site_fract_z
  _atom_site_thermal_displace_type
  _atom_site_B_iso_or_equiv
  _atom_site_type_symbol
  Cu1      1.0000 0.02927  0.14358  0.74342  Biso   1.000  Cu
  Cu2      1.0000 0.97073  0.64358  0.75658  Biso   1.000  Cu
  Cu3      1.0000 0.97073  0.85642  0.25658  Biso   1.000  Cu
  Cu4      1.0000 0.02927  0.35642  0.24342  Biso   1.000  Cu
  N1       1.0000 0.92449  0.04801  0.83673  Biso   1.000  N
  N2       1.0000 0.07551  0.54801  0.66327  Biso   1.000  N
  N3       1.0000 0.07551  0.95199  0.16327  Biso   1.000  N
  N4       1.0000 0.92449  0.45199  0.33673  Biso   1.000  N
  O1       1.0000 0.86767  0.02427  0.88787  Biso   1.000  O
  O2       1.0000 0.13233  0.52427  0.61213  Biso   1.000  O
  O3       1.0000 0.13233  0.97573  0.11213  Biso   1.000  O
  O4       1.0000 0.86767  0.47573  0.38787  Biso   1.000  O
  O5       1.0000 0.97062  0.01058  0.78657  Biso   1.000  O
  O6       1.0000 0.02938  0.51058  0.71343  Biso   1.000  O
  O7       1.0000 0.02938  0.98942  0.21343  Biso   1.000  O
  O8       1.0000 0.97062  0.48942  0.28657  Biso   1.000  O
  O9       1.0000 0.93884  0.11490  0.83556  Biso   1.000  O
  O10      1.0000 0.06116  0.61490  0.66444  Biso   1.000  O
  O11      1.0000 0.06116  0.88510  0.16444  Biso   1.000  O
  O12      1.0000 0.93884  0.38510  0.33556  Biso   1.000  O
  N5       1.0000 0.14669  0.13062  0.60822  Biso   1.000  N
  N6       1.0000 0.85331  0.63062  0.89178  Biso   1.000  N
  N7       1.0000 0.85331  0.86938  0.39178  Biso   1.000  N
  N8       1.0000 0.14669  0.36938  0.10822  Biso   1.000  N
  O13      1.0000 0.11233  0.18260  0.65124  Biso   1.000  O
  O14      1.0000 0.88767  0.68260  0.84876  Biso   1.000  O
  O15      1.0000 0.88767  0.81740  0.34876  Biso   1.000  O
  O16      1.0000 0.11233  0.31740  0.15124  Biso   1.000  O
  O17      1.0000 0.13048  0.07053  0.63828  Biso   1.000  O
  O18      1.0000 0.86952  0.57053  0.86172  Biso   1.000  O
  O19      1.0000 0.86952  0.92947  0.36172  Biso   1.000  O
  O20      1.0000 0.13048  0.42947  0.13828  Biso   1.000  O
  O21      1.0000 0.19355  0.14137  0.54251  Biso   1.000  O
  O22      1.0000 0.80645  0.64137  0.95749  Biso   1.000  O
  O23      1.0000 0.80645  0.85863  0.45749  Biso   1.000  O
  O24      1.0000 0.19355  0.35863  0.04251  Biso   1.000  O
  O25      1.0000 0.99264  0.25554  0.78191  Biso   1.000  O
  O26      1.0000 0.00736  0.75554  0.71809  Biso   1.000  O
  O27      1.0000 0.00736  0.74446  0.21809  Biso   1.000  O
  O28      1.0000 0.99264  0.24446  0.28191  Biso   1.000  O
  H1       1.0000 0.02100  0.29450  0.75190  Biso   1.000  H
  H2       1.0000 0.97900  0.79450  0.74810  Biso   1.000  H
  H3       1.0000 0.97900  0.70550  0.24810  Biso   1.000  H
  H4       1.0000 0.02100  0.20550  0.25190  Biso   1.000  H
  C1       1.0000 0.96480  0.27590  0.87350  Biso   1.000  C
  C2       1.0000 0.03520  0.77590  0.62650  Biso   1.000  C
  C3       1.0000 0.03520  0.72410  0.12650  Biso   1.000  C
  C4       1.0000 0.96480  0.22410  0.37350  Biso   1.000  C
  H5       1.0000 0.89600  0.25390  0.87220  Biso   1.000  H
  H6       1.0000 0.10400  0.75390  0.62780  Biso   1.000  H
  H7       1.0000 0.10400  0.74610  0.12780  Biso   1.000  H
  H8       1.0000 0.89600  0.24610  0.37220  Biso   1.000  H
  H9       1.0000 0.95740  0.32700  0.87440  Biso   1.000  H
  H10      1.0000 0.04260  0.82700  0.62560  Biso   1.000  H
  H11      1.0000 0.04260  0.67300  0.12560  Biso   1.000  H
  H12      1.0000 0.95740  0.17300  0.37440  Biso   1.000  H
  H13      1.0000 0.02190  0.26080  0.93730  Biso   1.000  H
  H14      1.0000 0.97810  0.76080  0.56270  Biso   1.000  H
  H15      1.0000 0.97810  0.73920  0.06270  Biso   1.000  H
  H16      1.0000 0.02190  0.23920  0.43730  Biso   1.000  H
  N9       1.0000 0.89754  0.13354  0.61424  Biso   1.000  N
  N10      1.0000 0.10246  0.63354  0.88576  Biso   1.000  N
  N11      1.0000 0.10246  0.86646  0.38576  Biso   1.000  N
  N12      1.0000 0.89754  0.36646  0.11424  Biso   1.000  N
  C5       1.0000 0.87462  0.07351  0.55891  Biso   1.000  C
  C6       1.0000 0.12538  0.57351  0.94109  Biso   1.000  C
  C7       1.0000 0.12538  0.92649  0.44109  Biso   1.000  C
  C8       1.0000 0.87462  0.42649  0.05891  Biso   1.000  C
  H17      1.0000 0.92140  0.03450  0.58280  Biso   1.000  H
  H18      1.0000 0.07860  0.53450  0.91720  Biso   1.000  H
  H19      1.0000 0.07860  0.96550  0.41720  Biso   1.000  H
  H20      1.0000 0.92140  0.46550  0.08280  Biso   1.000  H
  C9       1.0000 0.78665  0.06552  0.46910  Biso   1.000  C
  C10      1.0000 0.21335  0.56552  0.03090  Biso   1.000  C
  C11      1.0000 0.21335  0.93448  0.53090  Biso   1.000  C
  C12      1.0000 0.78665  0.43448  0.96910  Biso   1.000  C
  H21      1.0000 0.77350  0.02170  0.43310  Biso   1.000  H
  H22      1.0000 0.22650  0.52170  0.06690  Biso   1.000  H
  H23      1.0000 0.22650  0.97830  0.56690  Biso   1.000  H
  H24      1.0000 0.77350  0.47830  0.93310  Biso   1.000  H
  C13      1.0000 0.71758  0.12189  0.43170  Biso   1.000  C
  C14      1.0000 0.28242  0.62189  0.06830  Biso   1.000  C
  C15      1.0000 0.28242  0.87811  0.56830  Biso   1.000  C
  C16      1.0000 0.71758  0.37811  0.93170  Biso   1.000  C
  C17      1.0000 0.74068  0.18385  0.48978  Biso   1.000  C
  C18      1.0000 0.25932  0.68385  0.01022  Biso   1.000  C
  C19      1.0000 0.25932  0.81615  0.51022  Biso   1.000  C
  C20      1.0000 0.74068  0.31615  0.98978  Biso   1.000  C
  H25      1.0000 0.69500  0.22360  0.46770  Biso   1.000  H
  H26      1.0000 0.30500  0.72360  0.03230  Biso   1.000  H
  H27      1.0000 0.30500  0.77640  0.53230  Biso   1.000  H
  H28      1.0000 0.69500  0.27640  0.96770  Biso   1.000  H
  C21      1.0000 0.82956  0.18794  0.57931  Biso   1.000  C
  C22      1.0000 0.17044  0.68794  0.92069  Biso   1.000  C
  C23      1.0000 0.17044  0.81206  0.42069  Biso   1.000  C
  C24      1.0000 0.82956  0.31206  0.07931  Biso   1.000  C
  H29      1.0000 0.84340  0.23080  0.61780  Biso   1.000  H
  H30      1.0000 0.15660  0.73080  0.88220  Biso   1.000  H
  H31      1.0000 0.15660  0.76920  0.38220  Biso   1.000  H
  H32      1.0000 0.84340  0.26920  0.11780  Biso   1.000  H
  C25      1.0000 0.62329  0.11819  0.33311  Biso   1.000  C
  C26      1.0000 0.37671  0.61819  0.16689  Biso   1.000  C
  C27      1.0000 0.37671  0.88181  0.66689  Biso   1.000  C
  C28      1.0000 0.62329  0.38181  0.83311  Biso   1.000  C
  C29      1.0000 0.64015  0.11701  0.23322  Biso   1.000  C
  C30      1.0000 0.35985  0.61701  0.26678  Biso   1.000  C
  C31      1.0000 0.35985  0.88299  0.76678  Biso   1.000  C
  C32      1.0000 0.64015  0.38299  0.73322  Biso   1.000  C
  C33      1.0000 0.54916  0.12133  0.13839  Biso   1.000  C
  C34      1.0000 0.45084  0.62133  0.36161  Biso   1.000  C
  C35      1.0000 0.45084  0.87867  0.86161  Biso   1.000  C
  C36      1.0000 0.54916  0.37867  0.63839  Biso   1.000  C
  C37      1.0000 0.44289  0.12428  0.14652  Biso   1.000  C
  C38      1.0000 0.55711  0.62428  0.35348  Biso   1.000  C
  C39      1.0000 0.55711  0.87572  0.85348  Biso   1.000  C
  C40      1.0000 0.44289  0.37572  0.64652  Biso   1.000  C
  C41      1.0000 0.42606  0.12204  0.24649  Biso   1.000  C
  C42      1.0000 0.57394  0.62204  0.25351  Biso   1.000  C
  C43      1.0000 0.57394  0.87796  0.75351  Biso   1.000  C
  C44      1.0000 0.42606  0.37796  0.74649  Biso   1.000  C
  C45      1.0000 0.51719  0.11901  0.34158  Biso   1.000  C
  C46      1.0000 0.48281  0.61901  0.15842  Biso   1.000  C
  C47      1.0000 0.48281  0.88099  0.65842  Biso   1.000  C
  C48      1.0000 0.51719  0.38099  0.84158  Biso   1.000  C
  C49      1.0000 0.49689  0.11499  0.44169  Biso   1.000  C
  C50      1.0000 0.50311  0.61499  0.05831  Biso   1.000  C
  C51      1.0000 0.50311  0.88501  0.55831  Biso   1.000  C
  C52      1.0000 0.49689  0.38501  0.94169  Biso   1.000  C
  H33      1.0000 0.55640  0.11260  0.50490  Biso   1.000  H
  H34      1.0000 0.44360  0.61260  0.99510  Biso   1.000  H
  H35      1.0000 0.44360  0.88740  0.49510  Biso   1.000  H
  H36      1.0000 0.55640  0.38740  0.00490  Biso   1.000  H
  C53      1.0000 0.39415  0.11456  0.44843  Biso   1.000  C
  C54      1.0000 0.60585  0.61456  0.05157  Biso   1.000  C
  C55      1.0000 0.60585  0.88544  0.55157  Biso   1.000  C
  C56      1.0000 0.39415  0.38544  0.94843  Biso   1.000  C
  H37      1.0000 0.38260  0.11120  0.51590  Biso   1.000  H
  H38      1.0000 0.61740  0.61120  0.98410  Biso   1.000  H
  H39      1.0000 0.61740  0.88880  0.48410  Biso   1.000  H
  H40      1.0000 0.38260  0.38880  0.01590  Biso   1.000  H
  C57      1.0000 0.30444  0.11904  0.35536  Biso   1.000  C
  C58      1.0000 0.69556  0.61904  0.14464  Biso   1.000  C
  C59      1.0000 0.69556  0.88096  0.64464  Biso   1.000  C
  C60      1.0000 0.30444  0.38096  0.85536  Biso   1.000  C
  H41      1.0000 0.23300  0.11950  0.36090  Biso   1.000  H
  H42      1.0000 0.76700  0.61950  0.13910  Biso   1.000  H
  H43      1.0000 0.76700  0.88050  0.63910  Biso   1.000  H
  H44      1.0000 0.23300  0.38050  0.86090  Biso   1.000  H
  C61      1.0000 0.31920  0.12276  0.25805  Biso   1.000  C
  C62      1.0000 0.68080  0.62276  0.24195  Biso   1.000  C
  C63      1.0000 0.68080  0.87724  0.74195  Biso   1.000  C
  C64      1.0000 0.31920  0.37724  0.75805  Biso   1.000  C
  H45      1.0000 0.25780  0.12590  0.19660  Biso   1.000  H
  H46      1.0000 0.74220  0.62590  0.30340  Biso   1.000  H
  H47      1.0000 0.74220  0.87410  0.80340  Biso   1.000  H
  H48      1.0000 0.25780  0.37410  0.69660  Biso   1.000  H
  C65      1.0000 0.74665  0.11282  0.22094  Biso   1.000  C
  C66      1.0000 0.25335  0.61282  0.27906  Biso   1.000  C
  C67      1.0000 0.25335  0.88718  0.77906  Biso   1.000  C
  C68      1.0000 0.74665  0.38718  0.72094  Biso   1.000  C
  H49      1.0000 0.80820  0.10890  0.28220  Biso   1.000  H
  H50      1.0000 0.19180  0.60890  0.21780  Biso   1.000  H
  H51      1.0000 0.19180  0.89110  0.71780  Biso   1.000  H
  H52      1.0000 0.80820  0.39110  0.78220  Biso   1.000  H
  C69      1.0000 0.76080  0.11433  0.12343  Biso   1.000  C
  C70      1.0000 0.23920  0.61433  0.37657  Biso   1.000  C
  C71      1.0000 0.23920  0.88567  0.87657  Biso   1.000  C
  C72      1.0000 0.76080  0.38567  0.62343  Biso   1.000  C
  H53      1.0000 0.83210  0.11170  0.11770  Biso   1.000  H
  H54      1.0000 0.16790  0.61170  0.38230  Biso   1.000  H
  H55      1.0000 0.16790  0.88830  0.88230  Biso   1.000  H
  H56      1.0000 0.83210  0.38830  0.61770  Biso   1.000  H
  C73      1.0000 0.67153  0.11970  0.03040  Biso   1.000  C
  C74      1.0000 0.32847  0.61970  0.46960  Biso   1.000  C
  C75      1.0000 0.32847  0.88030  0.96960  Biso   1.000  C
  C76      1.0000 0.67153  0.38030  0.53040  Biso   1.000  C
  H57      1.0000 0.68290  0.12120  0.96280  Biso   1.000  H
  H58      1.0000 0.31710  0.62120  0.53720  Biso   1.000  H
  H59      1.0000 0.31710  0.87880  0.03720  Biso   1.000  H
  H60      1.0000 0.68290  0.37880  0.46280  Biso   1.000  H
  C77      1.0000 0.56908  0.12272  0.03796  Biso   1.000  C
  C78      1.0000 0.43092  0.62272  0.46204  Biso   1.000  C
  C79      1.0000 0.43092  0.87728  0.96204  Biso   1.000  C
  C80      1.0000 0.56908  0.37728  0.53796  Biso   1.000  C
  H61      1.0000 0.50940  0.12580  0.97490  Biso   1.000  H
  H62      1.0000 0.49060  0.62580  0.52510  Biso   1.000  H
  H63      1.0000 0.49060  0.87420  0.02510  Biso   1.000  H
  H64      1.0000 0.50940  0.37420  0.47490  Biso   1.000  H
  N13      1.0000 0.16639  0.13732  0.86758  Biso   1.000  N
  N14      1.0000 0.83361  0.63732  0.63242  Biso   1.000  N
  N15      1.0000 0.83361  0.86268  0.13242  Biso   1.000  N
  N16      1.0000 0.16639  0.36268  0.36758  Biso   1.000  N
  C81      1.0000 0.20296  0.07584  0.91258  Biso   1.000  C
  C82      1.0000 0.79704  0.57584  0.58742  Biso   1.000  C
  C83      1.0000 0.79704  0.92416  0.08742  Biso   1.000  C
  C84      1.0000 0.20296  0.42416  0.41258  Biso   1.000  C
  H65      1.0000 0.16580  0.03440  0.88180  Biso   1.000  H
  H66      1.0000 0.83420  0.53440  0.61820  Biso   1.000  H
  H67      1.0000 0.83420  0.96560  0.11820  Biso   1.000  H
  H68      1.0000 0.16580  0.46560  0.38180  Biso   1.000  H
  C85      1.0000 0.29241  0.06951  0.00195  Biso   1.000  C
  C86      1.0000 0.70759  0.56951  0.49805  Biso   1.000  C
  C87      1.0000 0.70759  0.93049  0.99805  Biso   1.000  C
  C88      1.0000 0.29241  0.43049  0.50195  Biso   1.000  C
  H69      1.0000 0.31530  0.02460  0.03130  Biso   1.000  H
  H70      1.0000 0.68470  0.52460  0.46870  Biso   1.000  H
  H71      1.0000 0.68470  0.97540  0.96870  Biso   1.000  H
  H72      1.0000 0.31530  0.47540  0.53130  Biso   1.000  H
  C89      1.0000 0.34821  0.12884  0.04826  Biso   1.000  C
  C90      1.0000 0.65179  0.62884  0.45174  Biso   1.000  C
  C91      1.0000 0.65179  0.87116  0.95174  Biso   1.000  C
  C92      1.0000 0.34821  0.37116  0.54826  Biso   1.000  C
  C93      1.0000 0.31183  0.19267  0.99984  Biso   1.000  C
  C94      1.0000 0.68817  0.69267  0.50016  Biso   1.000  C
  C95      1.0000 0.68817  0.80733  0.00016  Biso   1.000  C
  C96      1.0000 0.31183  0.30733  0.49984  Biso   1.000  C
  H73      1.0000 0.34870  0.23480  0.02780  Biso   1.000  H
  H74      1.0000 0.65130  0.73480  0.47220  Biso   1.000  H
  H75      1.0000 0.65130  0.76520  0.97220  Biso   1.000  H
  H76      1.0000 0.34870  0.26520  0.52780  Biso   1.000  H
  C97      1.0000 0.22182  0.19467  0.91080  Biso   1.000  C
  C98      1.0000 0.77818  0.69467  0.58920  Biso   1.000  C
  C99      1.0000 0.77818  0.80533  0.08920  Biso   1.000  C
  C100     1.0000 0.22182  0.30533  0.41080  Biso   1.000  C
  H77      1.0000 0.19830  0.23880  0.87880  Biso   1.000  H
  H78      1.0000 0.80170  0.73880  0.62120  Biso   1.000  H
  H79      1.0000 0.80170  0.76120  0.12120  Biso   1.000  H
  H80      1.0000 0.19830  0.26120  0.37880  Biso   1.000  H
  O29      1.0000 0.95069  0.63247  0.30756  Biso   1.000  O
  O30      1.0000 0.04931  0.13247  0.19244  Biso   1.000  O
  O31      1.0000 0.04931  0.36753  0.69244  Biso   1.000  O
  O32      1.0000 0.95069  0.86753  0.80756  Biso   1.000  O
  H81      1.0000 0.96150  0.58640  0.29390  Biso   1.000  H
  H82      1.0000 0.03850  0.08640  0.20610  Biso   1.000  H
  H83      1.0000 0.03850  0.41360  0.70610  Biso   1.000  H
  H84      1.0000 0.96150  0.91360  0.79390  Biso   1.000  H
  C101     1.0000 0.96302  0.64415  0.41603  Biso   1.000  C
  C102     1.0000 0.03698  0.14415  0.08397  Biso   1.000  C
  C103     1.0000 0.03698  0.35585  0.58397  Biso   1.000  C
  C104     1.0000 0.96302  0.85585  0.91603  Biso   1.000  C
  H85      1.0000 0.04040  0.64460  0.45620  Biso   1.000  H
  H86      1.0000 0.95960  0.14460  0.04380  Biso   1.000  H
  H87      1.0000 0.95960  0.35540  0.54380  Biso   1.000  H
  H88      1.0000 0.04040  0.85540  0.95620  Biso   1.000  H
  H89      1.0000 0.92670  0.60660  0.44280  Biso   1.000  H
  H90      1.0000 0.07330  0.10660  0.05720  Biso   1.000  H
  H91      1.0000 0.07330  0.39340  0.55720  Biso   1.000  H
  H92      1.0000 0.92670  0.89340  0.94280  Biso   1.000  H
  H93      1.0000 0.93060  0.68940  0.42440  Biso   1.000  H
  H94      1.0000 0.06940  0.18940  0.07560  Biso   1.000  H
  H95      1.0000 0.06940  0.31060  0.57560  Biso   1.000  H
  H96      1.0000 0.93060  0.81060  0.92440  Biso   1.000  H
  C105     1.0000 0.43220  0.80580  0.26030  Biso   1.000  C
  C106     1.0000 0.56780  0.30580  0.23970  Biso   1.000  C
  C107     1.0000 0.56780  0.19420  0.73970  Biso   1.000  C
  C108     1.0000 0.43220  0.69420  0.76030  Biso   1.000  C
  H97      1.0000 0.40390  0.76010  0.26280  Biso   1.000  H
  H98      1.0000 0.59610  0.26010  0.23720  Biso   1.000  H
  H99      1.0000 0.59610  0.23990  0.73720  Biso   1.000  H
  H100     1.0000 0.40390  0.73990  0.76280  Biso   1.000  H
  C109     1.0000 0.37220  0.86443  0.26670  Biso   1.000  C
  C110     1.0000 0.62780  0.36443  0.23330  Biso   1.000  C
  C111     1.0000 0.62780  0.13557  0.73330  Biso   1.000  C
  C112     1.0000 0.37220  0.63557  0.76670  Biso   1.000  C
  H101     1.0000 0.30170  0.85930  0.27380  Biso   1.000  H
  H102     1.0000 0.69830  0.35930  0.22620  Biso   1.000  H
  H103     1.0000 0.69830  0.14070  0.72620  Biso   1.000  H
  H104     1.0000 0.30170  0.64070  0.77380  Biso   1.000  H
  C113     1.0000 0.41360  0.92973  0.26300  Biso   1.000  C
  C114     1.0000 0.58640  0.42973  0.23700  Biso   1.000  C
  C115     1.0000 0.58640  0.07027  0.73700  Biso   1.000  C
  C116     1.0000 0.41360  0.57027  0.76300  Biso   1.000  C
  H105     1.0000 0.37250  0.97020  0.26760  Biso   1.000  H
  H106     1.0000 0.62750  0.47020  0.23240  Biso   1.000  H
  H107     1.0000 0.62750  0.02980  0.73240  Biso   1.000  H
  H108     1.0000 0.37250  0.52980  0.76760  Biso   1.000  H
  C117     1.0000 0.51540  0.93617  0.25260  Biso   1.000  C
  C118     1.0000 0.48460  0.43617  0.24740  Biso   1.000  C
  C119     1.0000 0.48460  0.06383  0.74740  Biso   1.000  C
  C120     1.0000 0.51540  0.56383  0.75260  Biso   1.000  C
  H109     1.0000 0.54500  0.98150  0.25010  Biso   1.000  H
  H110     1.0000 0.45500  0.48150  0.24990  Biso   1.000  H
  H111     1.0000 0.45500  0.01850  0.74990  Biso   1.000  H
  H112     1.0000 0.54500  0.51850  0.75010  Biso   1.000  H
  C121     1.0000 0.57420  0.87892  0.24590  Biso   1.000  C
  C122     1.0000 0.42580  0.37892  0.25410  Biso   1.000  C
  C123     1.0000 0.42580  0.12108  0.75410  Biso   1.000  C
  C124     1.0000 0.57420  0.62108  0.74590  Biso   1.000  C
  H113     1.0000 0.64440  0.88400  0.23800  Biso   1.000  H
  H114     1.0000 0.35560  0.38400  0.26200  Biso   1.000  H
  H115     1.0000 0.35560  0.11600  0.76200  Biso   1.000  H
  H116     1.0000 0.64440  0.61600  0.73800  Biso   1.000  H
  C125     1.0000 0.53330  0.81500  0.25030  Biso   1.000  C
  C126     1.0000 0.46670  0.31500  0.24970  Biso   1.000  C
  C127     1.0000 0.46670  0.18500  0.74970  Biso   1.000  C
  C128     1.0000 0.53330  0.68500  0.75030  Biso   1.000  C
  H117     1.0000 0.57560  0.77500  0.24630  Biso   1.000  H
  H118     1.0000 0.42440  0.27500  0.25370  Biso   1.000  H
  H119     1.0000 0.42440  0.22500  0.75370  Biso   1.000  H
  H120     1.0000 0.57560  0.72500  0.74630  Biso   1.000  H
