data_image0
_cell_length_a       25.142
_cell_length_b       7.3605
_cell_length_c       11.8715
_cell_angle_alpha    90
_cell_angle_beta     109.488
_cell_angle_gamma    90

_symmetry_space_group_name_H-M    "P 1"
_symmetry_int_tables_number       1

loop_
  _symmetry_equiv_pos_as_xyz
  'x, y, z'

loop_
  _atom_site_label
  _atom_site_occupancy
  _atom_site_fract_x
  _atom_site_fract_y
  _atom_site_fract_z
  _atom_site_thermal_displace_type
  _atom_site_B_iso_or_equiv
  _atom_site_type_symbol
  Cu1      1.0000 0.50000  0.90757  0.75000  Biso   1.000  Cu
  Cu2      1.0000 0.00000  0.40757  0.75000  Biso   1.000  Cu
  Cu3      1.0000 0.50000  0.09243  0.25000  Biso   1.000  Cu
  Cu4      1.0000 0.00000  0.59243  0.25000  Biso   1.000  Cu
  N1       1.0000 0.50584  0.16730  0.90591  Biso   1.000  N
  N2       1.0000 0.00584  0.66730  0.90591  Biso   1.000  N
  N3       1.0000 0.49416  0.16730  0.59409  Biso   1.000  N
  N4       1.0000 0.99416  0.66730  0.59409  Biso   1.000  N
  N5       1.0000 0.49416  0.83270  0.09409  Biso   1.000  N
  N6       1.0000 0.99416  0.33270  0.09409  Biso   1.000  N
  N7       1.0000 0.50584  0.83270  0.40591  Biso   1.000  N
  N8       1.0000 0.00584  0.33270  0.40591  Biso   1.000  N
  O1       1.0000 0.51631  0.30680  0.96519  Biso   1.000  O
  O2       1.0000 0.01631  0.80680  0.96519  Biso   1.000  O
  O3       1.0000 0.48369  0.30680  0.53481  Biso   1.000  O
  O4       1.0000 0.98369  0.80680  0.53481  Biso   1.000  O
  O5       1.0000 0.48369  0.69320  0.03481  Biso   1.000  O
  O6       1.0000 0.98369  0.19320  0.03481  Biso   1.000  O
  O7       1.0000 0.51631  0.69320  0.46519  Biso   1.000  O
  O8       1.0000 0.01631  0.19320  0.46519  Biso   1.000  O
  O9       1.0000 0.46125  0.08010  0.88565  Biso   1.000  O
  O10      1.0000 0.96125  0.58010  0.88565  Biso   1.000  O
  O11      1.0000 0.53875  0.08010  0.61435  Biso   1.000  O
  O12      1.0000 0.03875  0.58010  0.61435  Biso   1.000  O
  O13      1.0000 0.53875  0.91990  0.11435  Biso   1.000  O
  O14      1.0000 0.03875  0.41990  0.11435  Biso   1.000  O
  O15      1.0000 0.46125  0.91990  0.38565  Biso   1.000  O
  O16      1.0000 0.96125  0.41990  0.38565  Biso   1.000  O
  O17      1.0000 0.54196  0.10600  0.85954  Biso   1.000  O
  O18      1.0000 0.04196  0.60600  0.85954  Biso   1.000  O
  O19      1.0000 0.45804  0.10600  0.64046  Biso   1.000  O
  O20      1.0000 0.95804  0.60600  0.64046  Biso   1.000  O
  O21      1.0000 0.45804  0.89400  0.14046  Biso   1.000  O
  O22      1.0000 0.95804  0.39400  0.14046  Biso   1.000  O
  O23      1.0000 0.54196  0.89400  0.35954  Biso   1.000  O
  O24      1.0000 0.04196  0.39400  0.35954  Biso   1.000  O
  N9       1.0000 0.93862  0.77280  0.18181  Biso   1.000  N
  N10      1.0000 0.43862  0.27280  0.18181  Biso   1.000  N
  N11      1.0000 0.06138  0.77280  0.31819  Biso   1.000  N
  N12      1.0000 0.56138  0.27280  0.31819  Biso   1.000  N
  N13      1.0000 0.06138  0.22720  0.81819  Biso   1.000  N
  N14      1.0000 0.56138  0.72720  0.81819  Biso   1.000  N
  N15      1.0000 0.93862  0.22720  0.68181  Biso   1.000  N
  N16      1.0000 0.43862  0.72720  0.68181  Biso   1.000  N
  C1       1.0000 0.89876  0.74510  0.07550  Biso   1.000  C
  C2       1.0000 0.39876  0.24510  0.07550  Biso   1.000  C
  C3       1.0000 0.10124  0.74510  0.42450  Biso   1.000  C
  C4       1.0000 0.60124  0.24510  0.42450  Biso   1.000  C
  C5       1.0000 0.10124  0.25490  0.92450  Biso   1.000  C
  C6       1.0000 0.60124  0.75490  0.92450  Biso   1.000  C
  C7       1.0000 0.89876  0.25490  0.57550  Biso   1.000  C
  C8       1.0000 0.39876  0.75490  0.57550  Biso   1.000  C
  H1       1.0000 0.90230  0.64410  0.02880  Biso   1.000  H
  H2       1.0000 0.40230  0.14410  0.02880  Biso   1.000  H
  H3       1.0000 0.09770  0.64410  0.47120  Biso   1.000  H
  H4       1.0000 0.59770  0.14410  0.47120  Biso   1.000  H
  H5       1.0000 0.09770  0.35590  0.97120  Biso   1.000  H
  H6       1.0000 0.59770  0.85590  0.97120  Biso   1.000  H
  H7       1.0000 0.90230  0.35590  0.52880  Biso   1.000  H
  H8       1.0000 0.40230  0.85590  0.52880  Biso   1.000  H
  C9       1.0000 0.85244  0.85870  0.03140  Biso   1.000  C
  C10      1.0000 0.35244  0.35870  0.03140  Biso   1.000  C
  C11      1.0000 0.14756  0.85870  0.46860  Biso   1.000  C
  C12      1.0000 0.64756  0.35870  0.46860  Biso   1.000  C
  C13      1.0000 0.14756  0.14130  0.96860  Biso   1.000  C
  C14      1.0000 0.64756  0.64130  0.96860  Biso   1.000  C
  C15      1.0000 0.85244  0.14130  0.53140  Biso   1.000  C
  C16      1.0000 0.35244  0.64130  0.53140  Biso   1.000  C
  H9       1.0000 0.82490  0.83390  0.95600  Biso   1.000  H
  H10      1.0000 0.32490  0.33390  0.95600  Biso   1.000  H
  H11      1.0000 0.17510  0.83390  0.54400  Biso   1.000  H
  H12      1.0000 0.67510  0.33390  0.54400  Biso   1.000  H
  H13      1.0000 0.17510  0.16610  0.04400  Biso   1.000  H
  H14      1.0000 0.67510  0.66610  0.04400  Biso   1.000  H
  H15      1.0000 0.82490  0.16610  0.45600  Biso   1.000  H
  H16      1.0000 0.32490  0.66610  0.45600  Biso   1.000  H
  C17      1.0000 0.84614  0.00890  0.09710  Biso   1.000  C
  C18      1.0000 0.34614  0.50890  0.09710  Biso   1.000  C
  C19      1.0000 0.15386  0.00890  0.40290  Biso   1.000  C
  C20      1.0000 0.65386  0.50890  0.40290  Biso   1.000  C
  C21      1.0000 0.15386  0.99110  0.90290  Biso   1.000  C
  C22      1.0000 0.65386  0.49110  0.90290  Biso   1.000  C
  C23      1.0000 0.84614  0.99110  0.59710  Biso   1.000  C
  C24      1.0000 0.34614  0.49110  0.59710  Biso   1.000  C
  C25      1.0000 0.88822  0.03730  0.20720  Biso   1.000  C
  C26      1.0000 0.38822  0.53730  0.20720  Biso   1.000  C
  C27      1.0000 0.11178  0.03730  0.29280  Biso   1.000  C
  C28      1.0000 0.61178  0.53730  0.29280  Biso   1.000  C
  C29      1.0000 0.11178  0.96270  0.79280  Biso   1.000  C
  C30      1.0000 0.61178  0.46270  0.79280  Biso   1.000  C
  C31      1.0000 0.88822  0.96270  0.70720  Biso   1.000  C
  C32      1.0000 0.38822  0.46270  0.70720  Biso   1.000  C
  H17      1.0000 0.88600  0.13820  0.25540  Biso   1.000  H
  H18      1.0000 0.38600  0.63820  0.25540  Biso   1.000  H
  H19      1.0000 0.11400  0.13820  0.24460  Biso   1.000  H
  H20      1.0000 0.61400  0.63820  0.24460  Biso   1.000  H
  H21      1.0000 0.11400  0.86180  0.74460  Biso   1.000  H
  H22      1.0000 0.61400  0.36180  0.74460  Biso   1.000  H
  H23      1.0000 0.88600  0.86180  0.75540  Biso   1.000  H
  H24      1.0000 0.38600  0.36180  0.75540  Biso   1.000  H
  C33      1.0000 0.93295  0.91840  0.24590  Biso   1.000  C
  C34      1.0000 0.43295  0.41840  0.24590  Biso   1.000  C
  C35      1.0000 0.06705  0.91840  0.25410  Biso   1.000  C
  C36      1.0000 0.56705  0.41840  0.25410  Biso   1.000  C
  C37      1.0000 0.06705  0.08160  0.75410  Biso   1.000  C
  C38      1.0000 0.56705  0.58160  0.75410  Biso   1.000  C
  C39      1.0000 0.93295  0.08160  0.74590  Biso   1.000  C
  C40      1.0000 0.43295  0.58160  0.74590  Biso   1.000  C
  H25      1.0000 0.96110  0.94000  0.32110  Biso   1.000  H
  H26      1.0000 0.46110  0.44000  0.32110  Biso   1.000  H
  H27      1.0000 0.03890  0.94000  0.17890  Biso   1.000  H
  H28      1.0000 0.53890  0.44000  0.17890  Biso   1.000  H
  H29      1.0000 0.03890  0.06000  0.67890  Biso   1.000  H
  H30      1.0000 0.53890  0.56000  0.67890  Biso   1.000  H
  H31      1.0000 0.96110  0.06000  0.82110  Biso   1.000  H
  H32      1.0000 0.46110  0.56000  0.82110  Biso   1.000  H
  C41      1.0000 0.79688  0.13320  0.04860  Biso   1.000  C
  C42      1.0000 0.29688  0.63320  0.04860  Biso   1.000  C
  C43      1.0000 0.20312  0.13320  0.45140  Biso   1.000  C
  C44      1.0000 0.70312  0.63320  0.45140  Biso   1.000  C
  C45      1.0000 0.20312  0.86680  0.95140  Biso   1.000  C
  C46      1.0000 0.70312  0.36680  0.95140  Biso   1.000  C
  C47      1.0000 0.79688  0.86680  0.54860  Biso   1.000  C
  C48      1.0000 0.29688  0.36680  0.54860  Biso   1.000  C
  C49      1.0000 0.79755  0.26230  0.96130  Biso   1.000  C
  C50      1.0000 0.29755  0.76230  0.96130  Biso   1.000  C
  C51      1.0000 0.20245  0.26230  0.53870  Biso   1.000  C
  C52      1.0000 0.70245  0.76230  0.53870  Biso   1.000  C
  C53      1.0000 0.20245  0.73770  0.03870  Biso   1.000  C
  C54      1.0000 0.70245  0.23770  0.03870  Biso   1.000  C
  C55      1.0000 0.79755  0.73770  0.46130  Biso   1.000  C
  C56      1.0000 0.29755  0.23770  0.46130  Biso   1.000  C
  C57      1.0000 0.75011  0.11940  0.08860  Biso   1.000  C
  C58      1.0000 0.25011  0.61940  0.08860  Biso   1.000  C
  C59      1.0000 0.24989  0.11940  0.41140  Biso   1.000  C
  C60      1.0000 0.74989  0.61940  0.41140  Biso   1.000  C
  C61      1.0000 0.24989  0.88060  0.91140  Biso   1.000  C
  C62      1.0000 0.74989  0.38060  0.91140  Biso   1.000  C
  C63      1.0000 0.75011  0.88060  0.58860  Biso   1.000  C
  C64      1.0000 0.25011  0.38060  0.58860  Biso   1.000  C
  C65      1.0000 0.74879  0.99520  0.17960  Biso   1.000  C
  C66      1.0000 0.24879  0.49520  0.17960  Biso   1.000  C
  C67      1.0000 0.25121  0.99520  0.32040  Biso   1.000  C
  C68      1.0000 0.75121  0.49520  0.32040  Biso   1.000  C
  C69      1.0000 0.25121  0.00480  0.82040  Biso   1.000  C
  C70      1.0000 0.75121  0.50480  0.82040  Biso   1.000  C
  C71      1.0000 0.74879  0.00480  0.67960  Biso   1.000  C
  C72      1.0000 0.24879  0.50480  0.67960  Biso   1.000  C
  H33      1.0000 0.77960  0.91480  0.21280  Biso   1.000  H
  H34      1.0000 0.27960  0.41480  0.21280  Biso   1.000  H
  H35      1.0000 0.22040  0.91480  0.28720  Biso   1.000  H
  H36      1.0000 0.72040  0.41480  0.28720  Biso   1.000  H
  H37      1.0000 0.22040  0.08520  0.78720  Biso   1.000  H
  H38      1.0000 0.72040  0.58520  0.78720  Biso   1.000  H
  H39      1.0000 0.77960  0.08520  0.71280  Biso   1.000  H
  H40      1.0000 0.27960  0.58520  0.71280  Biso   1.000  H
  C73      1.0000 0.70424  0.98990  0.21950  Biso   1.000  C
  C74      1.0000 0.20424  0.48990  0.21950  Biso   1.000  C
  C75      1.0000 0.29576  0.98990  0.28050  Biso   1.000  C
  C76      1.0000 0.79576  0.48990  0.28050  Biso   1.000  C
  C77      1.0000 0.29576  0.01010  0.78050  Biso   1.000  C
  C78      1.0000 0.79576  0.51010  0.78050  Biso   1.000  C
  C79      1.0000 0.70424  0.01010  0.71950  Biso   1.000  C
  C80      1.0000 0.20424  0.51010  0.71950  Biso   1.000  C
  H41      1.0000 0.70480  0.90900  0.28230  Biso   1.000  H
  H42      1.0000 0.20480  0.40900  0.28230  Biso   1.000  H
  H43      1.0000 0.29520  0.90900  0.21770  Biso   1.000  H
  H44      1.0000 0.79520  0.40900  0.21770  Biso   1.000  H
  H45      1.0000 0.29520  0.09100  0.71770  Biso   1.000  H
  H46      1.0000 0.79520  0.59100  0.71770  Biso   1.000  H
  H47      1.0000 0.70480  0.09100  0.78230  Biso   1.000  H
  H48      1.0000 0.20480  0.59100  0.78230  Biso   1.000  H
  C81      1.0000 0.65710  0.10290  0.16910  Biso   1.000  C
  C82      1.0000 0.15710  0.60290  0.16910  Biso   1.000  C
  C83      1.0000 0.34290  0.10290  0.33090  Biso   1.000  C
  C84      1.0000 0.84290  0.60290  0.33090  Biso   1.000  C
  C85      1.0000 0.34290  0.89710  0.83090  Biso   1.000  C
  C86      1.0000 0.84290  0.39710  0.83090  Biso   1.000  C
  C87      1.0000 0.65710  0.89710  0.66910  Biso   1.000  C
  C88      1.0000 0.15710  0.39710  0.66910  Biso   1.000  C
  H49      1.0000 0.62590  0.09560  0.19710  Biso   1.000  H
  H50      1.0000 0.12590  0.59560  0.19710  Biso   1.000  H
  H51      1.0000 0.37410  0.09560  0.30290  Biso   1.000  H
  H52      1.0000 0.87410  0.59560  0.30290  Biso   1.000  H
  H53      1.0000 0.37410  0.90440  0.80290  Biso   1.000  H
  H54      1.0000 0.87410  0.40440  0.80290  Biso   1.000  H
  H55      1.0000 0.62590  0.90440  0.69710  Biso   1.000  H
  H56      1.0000 0.12590  0.40440  0.69710  Biso   1.000  H
  C89      1.0000 0.84428  0.27820  0.91890  Biso   1.000  C
  C90      1.0000 0.34428  0.77820  0.91890  Biso   1.000  C
  C91      1.0000 0.15572  0.27820  0.58110  Biso   1.000  C
  C92      1.0000 0.65572  0.77820  0.58110  Biso   1.000  C
  C93      1.0000 0.15572  0.72180  0.08110  Biso   1.000  C
  C94      1.0000 0.65572  0.22180  0.08110  Biso   1.000  C
  C95      1.0000 0.84428  0.72180  0.41890  Biso   1.000  C
  C96      1.0000 0.34428  0.22180  0.41890  Biso   1.000  C
  H57      1.0000 0.87670  0.20460  0.95290  Biso   1.000  H
  H58      1.0000 0.37670  0.70460  0.95290  Biso   1.000  H
  H59      1.0000 0.12330  0.20460  0.54710  Biso   1.000  H
  H60      1.0000 0.62330  0.70460  0.54710  Biso   1.000  H
  H61      1.0000 0.12330  0.79540  0.04710  Biso   1.000  H
  H62      1.0000 0.62330  0.29540  0.04710  Biso   1.000  H
  H63      1.0000 0.87670  0.79540  0.45290  Biso   1.000  H
  H64      1.0000 0.37670  0.29540  0.45290  Biso   1.000  H
