data_image0
_cell_length_a       8.6874
_cell_length_b       8.7747
_cell_length_c       9.3138
_cell_angle_alpha    87.585
_cell_angle_beta     82.471
_cell_angle_gamma    73.597

_symmetry_space_group_name_H-M    "P 1"
_symmetry_int_tables_number       1

loop_
  _symmetry_equiv_pos_as_xyz
  'x, y, z'

loop_
  _atom_site_label
  _atom_site_occupancy
  _atom_site_fract_x
  _atom_site_fract_y
  _atom_site_fract_z
  _atom_site_thermal_displace_type
  _atom_site_B_iso_or_equiv
  _atom_site_type_symbol
  Cu1      1.0000 0.00000  0.00000  0.00000  Biso   1.000  Cu
  Cl1      1.0000 0.25930  0.95241  0.89004  Biso   1.000  Cl
  Cl2      1.0000 0.74070  0.04759  0.10996  Biso   1.000  Cl
  N1       1.0000 0.07760  0.93492  0.18892  Biso   1.000  N
  N2       1.0000 0.92240  0.06508  0.81108  Biso   1.000  N
  N3       1.0000 0.15628  0.02395  0.24926  Biso   1.000  N
  N4       1.0000 0.84372  0.97605  0.75074  Biso   1.000  N
  C1       1.0000 0.99220  0.69140  0.25160  Biso   1.000  C
  C2       1.0000 0.00780  0.30860  0.74840  Biso   1.000  C
  H1       1.0000 0.93300  0.72430  0.16780  Biso   1.000  H
  H2       1.0000 0.06700  0.27570  0.83220  Biso   1.000  H
  H3       1.0000 0.91680  0.67860  0.33620  Biso   1.000  H
  H4       1.0000 0.08320  0.32140  0.66380  Biso   1.000  H
  H5       1.0000 0.07490  0.59010  0.23080  Biso   1.000  H
  H6       1.0000 0.92510  0.40990  0.76920  Biso   1.000  H
  C3       1.0000 0.07155  0.81510  0.28250  Biso   1.000  C
  C4       1.0000 0.92845  0.18490  0.71750  Biso   1.000  C
  C5       1.0000 0.14735  0.82971  0.40331  Biso   1.000  C
  C6       1.0000 0.85265  0.17029  0.59669  Biso   1.000  C
  C7       1.0000 0.19834  0.96500  0.37858  Biso   1.000  C
  C8       1.0000 0.80166  0.03500  0.62142  Biso   1.000  C
  C9       1.0000 0.28800  0.04250  0.46370  Biso   1.000  C
  C10      1.0000 0.71200  0.95750  0.53630  Biso   1.000  C
  H7       1.0000 0.40430  0.00120  0.43310  Biso   1.000  H
  H8       1.0000 0.59570  0.99880  0.56690  Biso   1.000  H
  H9       1.0000 0.26460  0.02000  0.56690  Biso   1.000  H
  H10      1.0000 0.73540  0.98000  0.43310  Biso   1.000  H
  H11      1.0000 0.25420  0.15760  0.44710  Biso   1.000  H
  H12      1.0000 0.74580  0.84240  0.55290  Biso   1.000  H
  C11      1.0000 0.17350  0.71990  0.53300  Biso   1.000  C
  C12      1.0000 0.82650  0.28010  0.46700  Biso   1.000  C
  H13      1.0000 0.09200  0.65950  0.54400  Biso   1.000  H
  H14      1.0000 0.90800  0.34050  0.45600  Biso   1.000  H
  H15      1.0000 0.15730  0.78410  0.62150  Biso   1.000  H
  H16      1.0000 0.84270  0.21590  0.37850  Biso   1.000  H
  C13      1.0000 0.34170  0.60410  0.51853  Biso   1.000  C
  C14      1.0000 0.65830  0.39590  0.48147  Biso   1.000  C
  C15      1.0000 0.46730  0.63940  0.57669  Biso   1.000  C
  C16      1.0000 0.53270  0.36060  0.42331  Biso   1.000  C
  H17      1.0000 0.44610  0.73480  0.62970  Biso   1.000  H
  H18      1.0000 0.55390  0.26520  0.37030  Biso   1.000  H
  C17      1.0000 0.62330  0.53720  0.55835  Biso   1.000  C
  C18      1.0000 0.37670  0.46280  0.44165  Biso   1.000  C
  H19      1.0000 0.70710  0.56400  0.59870  Biso   1.000  H
  H20      1.0000 0.29290  0.43600  0.40130  Biso   1.000  H
  H21      1.0000 0.16800  0.11000  0.20600  Biso   1.000  H
  H22      1.0000 0.83200  0.89000  0.79400  Biso   1.000  H
  O1       1.0000 0.18651  0.30365  0.12795  Biso   1.000  O
  O2       1.0000 0.81349  0.69635  0.87205  Biso   1.000  O
  N5       1.0000 0.35255  0.36987  0.94045  Biso   1.000  N
  N6       1.0000 0.64745  0.63013  0.05955  Biso   1.000  N
  C19      1.0000 0.23880  0.51910  0.90660  Biso   1.000  C
  C20      1.0000 0.76120  0.48090  0.09340  Biso   1.000  C
  H23      1.0000 0.13710  0.53310  0.97100  Biso   1.000  H
  H24      1.0000 0.86290  0.46690  0.02900  Biso   1.000  H
  H25      1.0000 0.21810  0.51810  0.80580  Biso   1.000  H
  H26      1.0000 0.78190  0.48190  0.19420  Biso   1.000  H
  H27      1.0000 0.28430  0.60700  0.92030  Biso   1.000  H
  H28      1.0000 0.71570  0.39300  0.07970  Biso   1.000  H
  C21      1.0000 0.50530  0.32180  0.84600  Biso   1.000  C
  C22      1.0000 0.49470  0.67820  0.15400  Biso   1.000  C
  H29      1.0000 0.57430  0.22350  0.88320  Biso   1.000  H
  H30      1.0000 0.42570  0.77650  0.11680  Biso   1.000  H
  H31      1.0000 0.55990  0.40570  0.84310  Biso   1.000  H
  H32      1.0000 0.44010  0.59430  0.15690  Biso   1.000  H
  H33      1.0000 0.48450  0.30380  0.74810  Biso   1.000  H
  H34      1.0000 0.51550  0.69620  0.25190  Biso   1.000  H
  C23      1.0000 0.31610  0.27480  0.04586  Biso   1.000  C
  C24      1.0000 0.68390  0.72520  0.95414  Biso   1.000  C
  H35      1.0000 0.39500  0.17720  0.05970  Biso   1.000  H
  H36      1.0000 0.60500  0.82280  0.94030  Biso   1.000  H
