data_image0
_cell_length_a       12.8466
_cell_length_b       14.4677
_cell_length_c       14.4823
_cell_angle_alpha    90
_cell_angle_beta     94.375
_cell_angle_gamma    90

_symmetry_space_group_name_H-M    "P 1"
_symmetry_int_tables_number       1

loop_
  _symmetry_equiv_pos_as_xyz
  'x, y, z'

loop_
  _atom_site_label
  _atom_site_occupancy
  _atom_site_fract_x
  _atom_site_fract_y
  _atom_site_fract_z
  _atom_site_thermal_displace_type
  _atom_site_B_iso_or_equiv
  _atom_site_type_symbol
  Cu1      1.0000 0.06328  0.76381  0.08590  Biso   1.000  Cu
  Cu2      1.0000 0.43672  0.26381  0.41410  Biso   1.000  Cu
  Cu3      1.0000 0.93671  0.23619  0.91410  Biso   1.000  Cu
  Cu4      1.0000 0.56329  0.73619  0.58590  Biso   1.000  Cu
  Cl1      1.0000 0.11583  0.92382  0.07369  Biso   1.000  Cl
  Cl2      1.0000 0.38417  0.42382  0.42631  Biso   1.000  Cl
  Cl3      1.0000 0.88417  0.07618  0.92631  Biso   1.000  Cl
  Cl4      1.0000 0.61583  0.57618  0.57369  Biso   1.000  Cl
  Cl5      1.0000 0.91302  0.69083  0.12235  Biso   1.000  Cl
  Cl6      1.0000 0.58698  0.19083  0.37765  Biso   1.000  Cl
  Cl7      1.0000 0.08698  0.30917  0.87765  Biso   1.000  Cl
  Cl8      1.0000 0.41302  0.80917  0.62235  Biso   1.000  Cl
  O1       1.0000 0.21163  0.70134  0.05001  Biso   1.000  O
  O2       1.0000 0.28837  0.20134  0.44999  Biso   1.000  O
  O3       1.0000 0.78837  0.29866  0.94999  Biso   1.000  O
  O4       1.0000 0.71163  0.79866  0.55001  Biso   1.000  O
  N1       1.0000 0.01108  0.76444  0.95401  Biso   1.000  N
  N2       1.0000 0.48892  0.26444  0.54599  Biso   1.000  N
  N3       1.0000 0.98892  0.23556  0.04599  Biso   1.000  N
  N4       1.0000 0.51108  0.73556  0.45401  Biso   1.000  N
  N5       1.0000 0.97531  0.84208  0.90966  Biso   1.000  N
  N6       1.0000 0.52469  0.34208  0.59034  Biso   1.000  N
  N7       1.0000 0.02469  0.15792  0.09034  Biso   1.000  N
  N8       1.0000 0.47531  0.65792  0.40966  Biso   1.000  N
  N9       1.0000 0.13857  0.83582  0.26703  Biso   1.000  N
  N10      1.0000 0.36143  0.33582  0.23297  Biso   1.000  N
  N11      1.0000 0.86143  0.16418  0.73297  Biso   1.000  N
  N12      1.0000 0.63857  0.66418  0.76703  Biso   1.000  N
  N13      1.0000 0.11730  0.75831  0.21694  Biso   1.000  N
  N14      1.0000 0.38270  0.25831  0.28306  Biso   1.000  N
  N15      1.0000 0.88270  0.24169  0.78306  Biso   1.000  N
  N16      1.0000 0.61730  0.74169  0.71694  Biso   1.000  N
  N17      1.0000 0.33642  0.68934  0.94664  Biso   1.000  N
  N18      1.0000 0.16358  0.18934  0.55336  Biso   1.000  N
  N19      1.0000 0.66358  0.31066  0.05336  Biso   1.000  N
  N20      1.0000 0.83642  0.81066  0.44664  Biso   1.000  N
  C1       1.0000 0.01443  0.59691  0.92025  Biso   1.000  C
  C2       1.0000 0.48557  0.09691  0.57975  Biso   1.000  C
  C3       1.0000 0.98557  0.40309  0.07975  Biso   1.000  C
  C4       1.0000 0.51443  0.90309  0.42025  Biso   1.000  C
  H1       1.0000 0.05370  0.59530  0.98100  Biso   1.000  H
  H2       1.0000 0.44630  0.09530  0.51900  Biso   1.000  H
  H3       1.0000 0.94630  0.40470  0.01900  Biso   1.000  H
  H4       1.0000 0.55370  0.90470  0.48100  Biso   1.000  H
  H5       1.0000 0.05740  0.57110  0.87340  Biso   1.000  H
  H6       1.0000 0.44260  0.07110  0.62660  Biso   1.000  H
  H7       1.0000 0.94260  0.42890  0.12660  Biso   1.000  H
  H8       1.0000 0.55740  0.92890  0.37340  Biso   1.000  H
  H9       1.0000 0.95050  0.56020  0.92240  Biso   1.000  H
  H10      1.0000 0.54950  0.06020  0.57760  Biso   1.000  H
  H11      1.0000 0.04950  0.43980  0.07760  Biso   1.000  H
  H12      1.0000 0.45050  0.93980  0.42240  Biso   1.000  H
  C5       1.0000 0.98658  0.69429  0.89583  Biso   1.000  C
  C6       1.0000 0.51342  0.19429  0.60417  Biso   1.000  C
  C7       1.0000 0.01342  0.30571  0.10417  Biso   1.000  C
  C8       1.0000 0.48658  0.80571  0.39583  Biso   1.000  C
  C9       1.0000 0.93473  0.72794  0.81407  Biso   1.000  C
  C10      1.0000 0.56527  0.22794  0.68593  Biso   1.000  C
  C11      1.0000 0.06527  0.27206  0.18593  Biso   1.000  C
  C12      1.0000 0.43473  0.77206  0.31407  Biso   1.000  C
  C13      1.0000 0.92933  0.82281  0.82506  Biso   1.000  C
  C14      1.0000 0.57067  0.32281  0.67494  Biso   1.000  C
  C15      1.0000 0.07067  0.17719  0.17494  Biso   1.000  C
  C16      1.0000 0.42933  0.67719  0.32506  Biso   1.000  C
  C17      1.0000 0.88724  0.89507  0.75942  Biso   1.000  C
  C18      1.0000 0.61276  0.39507  0.74058  Biso   1.000  C
  C19      1.0000 0.11276  0.10493  0.24058  Biso   1.000  C
  C20      1.0000 0.38724  0.60493  0.25942  Biso   1.000  C
  H13      1.0000 0.85560  0.94460  0.79390  Biso   1.000  H
  H14      1.0000 0.64440  0.44460  0.70610  Biso   1.000  H
  H15      1.0000 0.14440  0.05540  0.20610  Biso   1.000  H
  H16      1.0000 0.35560  0.55540  0.29390  Biso   1.000  H
  H17      1.0000 0.83430  0.86770  0.71530  Biso   1.000  H
  H18      1.0000 0.66570  0.36770  0.78470  Biso   1.000  H
  H19      1.0000 0.16570  0.13230  0.28470  Biso   1.000  H
  H20      1.0000 0.33430  0.63230  0.21530  Biso   1.000  H
  H21      1.0000 0.94410  0.92050  0.72580  Biso   1.000  H
  H22      1.0000 0.55590  0.42050  0.77420  Biso   1.000  H
  H23      1.0000 0.05590  0.07950  0.27420  Biso   1.000  H
  H24      1.0000 0.44410  0.57950  0.22580  Biso   1.000  H
  C21      1.0000 0.89999  0.67497  0.72838  Biso   1.000  C
  C22      1.0000 0.60001  0.17497  0.77162  Biso   1.000  C
  C23      1.0000 0.10001  0.32503  0.27162  Biso   1.000  C
  C24      1.0000 0.39999  0.82503  0.22838  Biso   1.000  C
  H25      1.0000 0.83530  0.70340  0.69970  Biso   1.000  H
  H26      1.0000 0.66470  0.20340  0.80030  Biso   1.000  H
  H27      1.0000 0.16470  0.29660  0.30030  Biso   1.000  H
  H28      1.0000 0.33530  0.79660  0.19970  Biso   1.000  H
  H29      1.0000 0.88310  0.61090  0.74600  Biso   1.000  H
  H30      1.0000 0.61690  0.11090  0.75400  Biso   1.000  H
  H31      1.0000 0.11690  0.38910  0.25400  Biso   1.000  H
  H32      1.0000 0.38310  0.88910  0.24600  Biso   1.000  H
  C25      1.0000 0.98075  0.67194  0.65718  Biso   1.000  C
  C26      1.0000 0.51925  0.17194  0.84282  Biso   1.000  C
  C27      1.0000 0.01925  0.32806  0.34282  Biso   1.000  C
  C28      1.0000 0.48075  0.82806  0.15718  Biso   1.000  C
  C29      1.0000 0.07642  0.71636  0.67104  Biso   1.000  C
  C30      1.0000 0.42358  0.21636  0.82896  Biso   1.000  C
  C31      1.0000 0.92358  0.28364  0.32896  Biso   1.000  C
  C32      1.0000 0.57642  0.78364  0.17104  Biso   1.000  C
  H33      1.0000 0.09300  0.74880  0.72730  Biso   1.000  H
  H34      1.0000 0.40700  0.24880  0.77270  Biso   1.000  H
  H35      1.0000 0.90700  0.25120  0.27270  Biso   1.000  H
  H36      1.0000 0.59300  0.75120  0.22730  Biso   1.000  H
  C33      1.0000 0.95905  0.62447  0.57351  Biso   1.000  C
  C34      1.0000 0.54095  0.12447  0.92649  Biso   1.000  C
  C35      1.0000 0.04095  0.37553  0.42649  Biso   1.000  C
  C36      1.0000 0.45905  0.87553  0.07351  Biso   1.000  C
  H37      1.0000 0.89430  0.59320  0.56240  Biso   1.000  H
  H38      1.0000 0.60570  0.09320  0.93760  Biso   1.000  H
  H39      1.0000 0.10570  0.40680  0.43760  Biso   1.000  H
  H40      1.0000 0.39430  0.90680  0.06240  Biso   1.000  H
  C37      1.0000 0.14863  0.71422  0.60407  Biso   1.000  C
  C38      1.0000 0.35137  0.21422  0.89593  Biso   1.000  C
  C39      1.0000 0.85137  0.28578  0.39593  Biso   1.000  C
  C40      1.0000 0.64863  0.78578  0.10407  Biso   1.000  C
  H41      1.0000 0.21350  0.74530  0.61530  Biso   1.000  H
  H42      1.0000 0.28650  0.24530  0.88470  Biso   1.000  H
  H43      1.0000 0.78650  0.25470  0.38470  Biso   1.000  H
  H44      1.0000 0.71350  0.75470  0.11530  Biso   1.000  H
  C41      1.0000 0.03088  0.62254  0.50681  Biso   1.000  C
  C42      1.0000 0.46912  0.12254  0.99319  Biso   1.000  C
  C43      1.0000 0.96912  0.37746  0.49319  Biso   1.000  C
  C44      1.0000 0.53088  0.87746  0.00681  Biso   1.000  C
  H45      1.0000 0.01440  0.59030  0.45040  Biso   1.000  H
  H46      1.0000 0.48560  0.09030  0.04960  Biso   1.000  H
  H47      1.0000 0.98560  0.40970  0.54960  Biso   1.000  H
  H48      1.0000 0.51440  0.90970  0.95040  Biso   1.000  H
  C45      1.0000 0.12727  0.66741  0.52124  Biso   1.000  C
  C46      1.0000 0.37273  0.16741  0.97876  Biso   1.000  C
  C47      1.0000 0.87273  0.33259  0.47876  Biso   1.000  C
  C48      1.0000 0.62727  0.83259  0.02124  Biso   1.000  C
  C49      1.0000 0.20645  0.66620  0.44884  Biso   1.000  C
  C50      1.0000 0.29355  0.16620  0.05116  Biso   1.000  C
  C51      1.0000 0.79355  0.33380  0.55116  Biso   1.000  C
  C52      1.0000 0.70645  0.83380  0.94884  Biso   1.000  C
  H49      1.0000 0.27330  0.69160  0.47640  Biso   1.000  H
  H50      1.0000 0.22670  0.19160  0.02360  Biso   1.000  H
  H51      1.0000 0.72670  0.30840  0.52360  Biso   1.000  H
  H52      1.0000 0.77330  0.80840  0.97640  Biso   1.000  H
  H53      1.0000 0.21900  0.60140  0.43080  Biso   1.000  H
  H54      1.0000 0.28100  0.10140  0.06920  Biso   1.000  H
  H55      1.0000 0.78100  0.39860  0.56920  Biso   1.000  H
  H56      1.0000 0.71900  0.89860  0.93080  Biso   1.000  H
  C53      1.0000 0.17226  0.72102  0.36344  Biso   1.000  C
  C54      1.0000 0.32774  0.22102  0.13656  Biso   1.000  C
  C55      1.0000 0.82774  0.27898  0.63656  Biso   1.000  C
  C56      1.0000 0.67226  0.77898  0.86344  Biso   1.000  C
  C57      1.0000 0.20411  0.89019  0.42392  Biso   1.000  C
  C58      1.0000 0.29589  0.39019  0.07608  Biso   1.000  C
  C59      1.0000 0.79589  0.10981  0.57608  Biso   1.000  C
  C60      1.0000 0.70411  0.60981  0.92392  Biso   1.000  C
  H57      1.0000 0.21840  0.94760  0.39120  Biso   1.000  H
  H58      1.0000 0.28160  0.44760  0.10880  Biso   1.000  H
  H59      1.0000 0.78160  0.05240  0.60880  Biso   1.000  H
  H60      1.0000 0.71840  0.55240  0.89120  Biso   1.000  H
  H61      1.0000 0.26710  0.87080  0.46140  Biso   1.000  H
  H62      1.0000 0.23290  0.37080  0.03860  Biso   1.000  H
  H63      1.0000 0.73290  0.12920  0.53860  Biso   1.000  H
  H64      1.0000 0.76710  0.62920  0.96140  Biso   1.000  H
  H65      1.0000 0.14740  0.90060  0.46430  Biso   1.000  H
  H66      1.0000 0.35260  0.40060  0.03570  Biso   1.000  H
  H67      1.0000 0.85260  0.09940  0.53570  Biso   1.000  H
  H68      1.0000 0.64740  0.59940  0.96430  Biso   1.000  H
  C61      1.0000 0.17287  0.81660  0.35525  Biso   1.000  C
  C62      1.0000 0.32713  0.31660  0.14475  Biso   1.000  C
  C63      1.0000 0.82713  0.18340  0.64475  Biso   1.000  C
  C64      1.0000 0.67287  0.68340  0.85525  Biso   1.000  C
  C65      1.0000 0.13633  0.68769  0.27568  Biso   1.000  C
  C66      1.0000 0.36367  0.18769  0.22432  Biso   1.000  C
  C67      1.0000 0.86367  0.31231  0.72432  Biso   1.000  C
  C68      1.0000 0.63633  0.81231  0.77568  Biso   1.000  C
  C69      1.0000 0.11868  0.58993  0.24535  Biso   1.000  C
  C70      1.0000 0.38132  0.08993  0.25465  Biso   1.000  C
  C71      1.0000 0.88132  0.41007  0.75465  Biso   1.000  C
  C72      1.0000 0.61868  0.91007  0.74535  Biso   1.000  C
  H69      1.0000 0.04460  0.57460  0.24710  Biso   1.000  H
  H70      1.0000 0.45540  0.07460  0.25290  Biso   1.000  H
  H71      1.0000 0.95540  0.42540  0.75290  Biso   1.000  H
  H72      1.0000 0.54460  0.92540  0.74710  Biso   1.000  H
  H73      1.0000 0.16040  0.54860  0.28700  Biso   1.000  H
  H74      1.0000 0.33960  0.04860  0.21300  Biso   1.000  H
  H75      1.0000 0.83960  0.45140  0.71300  Biso   1.000  H
  H76      1.0000 0.66040  0.95140  0.78700  Biso   1.000  H
  H77      1.0000 0.13940  0.58250  0.18210  Biso   1.000  H
  H78      1.0000 0.36060  0.08250  0.31790  Biso   1.000  H
  H79      1.0000 0.86060  0.41750  0.81790  Biso   1.000  H
  H80      1.0000 0.63940  0.91750  0.68210  Biso   1.000  H
  C73      1.0000 0.24696  0.71948  0.97430  Biso   1.000  C
  C74      1.0000 0.25304  0.21948  0.52570  Biso   1.000  C
  C75      1.0000 0.75304  0.28052  0.02570  Biso   1.000  C
  C76      1.0000 0.74696  0.78052  0.47430  Biso   1.000  C
  H81      1.0000 0.20600  0.75830  0.93300  Biso   1.000  H
  H82      1.0000 0.29400  0.25830  0.56700  Biso   1.000  H
  H83      1.0000 0.79400  0.24170  0.06700  Biso   1.000  H
  H84      1.0000 0.70600  0.74170  0.43300  Biso   1.000  H
  C77      1.0000 0.40790  0.63304  0.00625  Biso   1.000  C
  C78      1.0000 0.09210  0.13304  0.49375  Biso   1.000  C
  C79      1.0000 0.59210  0.36696  0.99375  Biso   1.000  C
  C80      1.0000 0.90790  0.86696  0.50625  Biso   1.000  C
  H85      1.0000 0.46950  0.66980  0.02670  Biso   1.000  H
  H86      1.0000 0.03050  0.16980  0.47330  Biso   1.000  H
  H87      1.0000 0.53050  0.33020  0.97330  Biso   1.000  H
  H88      1.0000 0.96950  0.83020  0.52670  Biso   1.000  H
  H89      1.0000 0.42950  0.57900  0.97170  Biso   1.000  H
  H90      1.0000 0.07050  0.07900  0.52830  Biso   1.000  H
  H91      1.0000 0.57050  0.42100  0.02830  Biso   1.000  H
  H92      1.0000 0.92950  0.92100  0.47170  Biso   1.000  H
  H93      1.0000 0.37270  0.61260  0.06040  Biso   1.000  H
  H94      1.0000 0.12730  0.11260  0.43960  Biso   1.000  H
  H95      1.0000 0.62730  0.38740  0.93960  Biso   1.000  H
  H96      1.0000 0.87270  0.88740  0.56040  Biso   1.000  H
  C81      1.0000 0.37133  0.71381  0.85623  Biso   1.000  C
  C82      1.0000 0.12867  0.21381  0.64377  Biso   1.000  C
  C83      1.0000 0.62867  0.28619  0.14377  Biso   1.000  C
  C84      1.0000 0.87133  0.78619  0.35623  Biso   1.000  C
  H97      1.0000 0.31460  0.74510  0.81940  Biso   1.000  H
  H98      1.0000 0.18540  0.24510  0.68060  Biso   1.000  H
  H99      1.0000 0.68540  0.25490  0.18060  Biso   1.000  H
  H100     1.0000 0.81460  0.75490  0.31940  Biso   1.000  H
  H101     1.0000 0.39110  0.65760  0.82410  Biso   1.000  H
  H102     1.0000 0.10890  0.15760  0.67590  Biso   1.000  H
  H103     1.0000 0.60890  0.34240  0.17590  Biso   1.000  H
  H104     1.0000 0.89110  0.84240  0.32410  Biso   1.000  H
  H105     1.0000 0.43170  0.75520  0.86450  Biso   1.000  H
  H106     1.0000 0.06830  0.25520  0.63550  Biso   1.000  H
  H107     1.0000 0.56830  0.24480  0.13550  Biso   1.000  H
  H108     1.0000 0.93170  0.74480  0.36450  Biso   1.000  H
  H109     1.0000 0.98720  0.89380  0.93530  Biso   1.000  H
  H110     1.0000 0.51280  0.39380  0.56470  Biso   1.000  H
  H111     1.0000 0.01280  0.10620  0.06470  Biso   1.000  H
  H112     1.0000 0.48720  0.60620  0.43530  Biso   1.000  H
  H113     1.0000 0.13080  0.88490  0.23780  Biso   1.000  H
  H114     1.0000 0.36920  0.38490  0.26220  Biso   1.000  H
  H115     1.0000 0.86920  0.11510  0.76220  Biso   1.000  H
  H116     1.0000 0.63080  0.61510  0.73780  Biso   1.000  H
  O5       1.0000 0.40404  0.47016  0.84625  Biso   1.000  O
  O6       1.0000 0.09596  0.97016  0.65375  Biso   1.000  O
  O7       1.0000 0.59596  0.52984  0.15375  Biso   1.000  O
  O8       1.0000 0.90404  0.02984  0.34625  Biso   1.000  O
  N21      1.0000 0.28621  0.48284  0.72096  Biso   1.000  N
  N22      1.0000 0.21379  0.98284  0.77904  Biso   1.000  N
  N23      1.0000 0.71379  0.51716  0.27904  Biso   1.000  N
  N24      1.0000 0.78621  0.01716  0.22096  Biso   1.000  N
  C85      1.0000 0.31761  0.45625  0.80720  Biso   1.000  C
  C86      1.0000 0.18239  0.95625  0.69280  Biso   1.000  C
  C87      1.0000 0.68239  0.54375  0.19280  Biso   1.000  C
  C88      1.0000 0.81761  0.04375  0.30720  Biso   1.000  C
  H117     1.0000 0.26860  0.42380  0.84090  Biso   1.000  H
  H118     1.0000 0.23140  0.92380  0.65910  Biso   1.000  H
  H119     1.0000 0.73140  0.57620  0.15910  Biso   1.000  H
  H120     1.0000 0.76860  0.07620  0.34090  Biso   1.000  H
  C89      1.0000 0.35514  0.53298  0.66374  Biso   1.000  C
  C90      1.0000 0.14486  0.03298  0.83626  Biso   1.000  C
  C91      1.0000 0.64486  0.46702  0.33626  Biso   1.000  C
  C92      1.0000 0.85514  0.96702  0.16374  Biso   1.000  C
  H121     1.0000 0.33000  0.59660  0.65510  Biso   1.000  H
  H122     1.0000 0.17000  0.09660  0.84490  Biso   1.000  H
  H123     1.0000 0.67000  0.40340  0.34490  Biso   1.000  H
  H124     1.0000 0.83000  0.90340  0.15510  Biso   1.000  H
  H125     1.0000 0.35600  0.50250  0.60330  Biso   1.000  H
  H126     1.0000 0.14400  0.00250  0.89670  Biso   1.000  H
  H127     1.0000 0.64400  0.49750  0.39670  Biso   1.000  H
  H128     1.0000 0.85600  0.99750  0.10330  Biso   1.000  H
  H129     1.0000 0.42590  0.53360  0.69420  Biso   1.000  H
  H130     1.0000 0.07410  0.03360  0.80580  Biso   1.000  H
  H131     1.0000 0.57410  0.46640  0.30580  Biso   1.000  H
  H132     1.0000 0.92590  0.96640  0.19420  Biso   1.000  H
  C93      1.0000 0.18076  0.46523  0.68121  Biso   1.000  C
  C94      1.0000 0.31924  0.96523  0.81879  Biso   1.000  C
  C95      1.0000 0.81924  0.53477  0.31879  Biso   1.000  C
  C96      1.0000 0.68076  0.03477  0.18121  Biso   1.000  C
  H133     1.0000 0.14310  0.42820  0.72450  Biso   1.000  H
  H134     1.0000 0.35690  0.92820  0.77550  Biso   1.000  H
  H135     1.0000 0.85690  0.57180  0.27550  Biso   1.000  H
  H136     1.0000 0.64310  0.07180  0.22450  Biso   1.000  H
  H137     1.0000 0.18370  0.43150  0.62280  Biso   1.000  H
  H138     1.0000 0.31630  0.93150  0.87720  Biso   1.000  H
  H139     1.0000 0.81630  0.56850  0.37720  Biso   1.000  H
  H140     1.0000 0.68370  0.06850  0.12280  Biso   1.000  H
  H141     1.0000 0.14440  0.52410  0.66950  Biso   1.000  H
  H142     1.0000 0.35560  0.02410  0.83050  Biso   1.000  H
  H143     1.0000 0.85560  0.47590  0.33050  Biso   1.000  H
  H144     1.0000 0.64440  0.97590  0.16950  Biso   1.000  H
