data_image0
_cell_length_a       9.671
_cell_length_b       18.28
_cell_length_c       9.898
_cell_angle_alpha    90
_cell_angle_beta     93.084
_cell_angle_gamma    90

_symmetry_space_group_name_H-M    "P 1"
_symmetry_int_tables_number       1

loop_
  _symmetry_equiv_pos_as_xyz
  'x, y, z'

loop_
  _atom_site_label
  _atom_site_occupancy
  _atom_site_fract_x
  _atom_site_fract_y
  _atom_site_fract_z
  _atom_site_thermal_displace_type
  _atom_site_B_iso_or_equiv
  _atom_site_type_symbol
  Cu1      1.0000 0.50000  0.54359  0.75000  Biso   1.000  Cu
  Cu2      1.0000 0.50000  0.45641  0.25000  Biso   1.000  Cu
  Cu3      1.0000 0.00000  0.04359  0.75000  Biso   1.000  Cu
  Cu4      1.0000 0.00000  0.95641  0.25000  Biso   1.000  Cu
  N1       1.0000 0.65470  0.54630  0.89680  Biso   1.000  N
  N2       1.0000 0.65470  0.45370  0.39680  Biso   1.000  N
  N3       1.0000 0.15470  0.04630  0.89680  Biso   1.000  N
  N4       1.0000 0.15470  0.95370  0.39680  Biso   1.000  N
  N5       1.0000 0.34530  0.45370  0.10320  Biso   1.000  N
  N6       1.0000 0.34530  0.54630  0.60320  Biso   1.000  N
  N7       1.0000 0.84530  0.95370  0.10320  Biso   1.000  N
  N8       1.0000 0.84530  0.04630  0.60320  Biso   1.000  N
  N9       1.0000 0.66840  0.50110  0.98230  Biso   1.000  N
  N10      1.0000 0.66840  0.49890  0.48230  Biso   1.000  N
  N11      1.0000 0.16840  0.00110  0.98230  Biso   1.000  N
  N12      1.0000 0.16840  0.99890  0.48230  Biso   1.000  N
  N13      1.0000 0.33160  0.49890  0.01770  Biso   1.000  N
  N14      1.0000 0.33160  0.50110  0.51770  Biso   1.000  N
  N15      1.0000 0.83160  0.99890  0.01770  Biso   1.000  N
  N16      1.0000 0.83160  0.00110  0.51770  Biso   1.000  N
  N17      1.0000 0.68340  0.45670  0.06580  Biso   1.000  N
  N18      1.0000 0.68340  0.54330  0.56580  Biso   1.000  N
  N19      1.0000 0.18340  0.95670  0.06580  Biso   1.000  N
  N20      1.0000 0.18340  0.04330  0.56580  Biso   1.000  N
  N21      1.0000 0.31660  0.54330  0.93420  Biso   1.000  N
  N22      1.0000 0.31660  0.45670  0.43420  Biso   1.000  N
  N23      1.0000 0.81660  0.04330  0.93420  Biso   1.000  N
  N24      1.0000 0.81660  0.95670  0.43420  Biso   1.000  N
  N25      1.0000 0.50000  0.43430  0.75000  Biso   1.000  N
  N26      1.0000 0.50000  0.56570  0.25000  Biso   1.000  N
  N27      1.0000 0.00000  0.93430  0.75000  Biso   1.000  N
  N28      1.0000 0.00000  0.06570  0.25000  Biso   1.000  N
  C1       1.0000 0.61680  0.39460  0.74430  Biso   1.000  C
  C2       1.0000 0.61680  0.60540  0.24430  Biso   1.000  C
  C3       1.0000 0.11680  0.89460  0.74430  Biso   1.000  C
  C4       1.0000 0.11680  0.10540  0.24430  Biso   1.000  C
  C5       1.0000 0.38320  0.60540  0.25570  Biso   1.000  C
  C6       1.0000 0.38320  0.39460  0.75570  Biso   1.000  C
  C7       1.0000 0.88320  0.10540  0.25570  Biso   1.000  C
  C8       1.0000 0.88320  0.89460  0.75570  Biso   1.000  C
  H1       1.0000 0.69970  0.42000  0.73910  Biso   1.000  H
  H2       1.0000 0.69970  0.58000  0.23910  Biso   1.000  H
  H3       1.0000 0.19970  0.92000  0.73910  Biso   1.000  H
  H4       1.0000 0.19970  0.08000  0.23910  Biso   1.000  H
  H5       1.0000 0.30030  0.58000  0.26090  Biso   1.000  H
  H6       1.0000 0.30030  0.42000  0.76090  Biso   1.000  H
  H7       1.0000 0.80030  0.08000  0.26090  Biso   1.000  H
  H8       1.0000 0.80030  0.92000  0.76090  Biso   1.000  H
  C9       1.0000 0.62320  0.31950  0.74550  Biso   1.000  C
  C10      1.0000 0.62320  0.68050  0.24550  Biso   1.000  C
  C11      1.0000 0.12320  0.81950  0.74550  Biso   1.000  C
  C12      1.0000 0.12320  0.18050  0.24550  Biso   1.000  C
  C13      1.0000 0.37680  0.68050  0.25450  Biso   1.000  C
  C14      1.0000 0.37680  0.31950  0.75450  Biso   1.000  C
  C15      1.0000 0.87680  0.18050  0.25450  Biso   1.000  C
  C16      1.0000 0.87680  0.81950  0.75450  Biso   1.000  C
  H9       1.0000 0.70840  0.29610  0.74330  Biso   1.000  H
  H10      1.0000 0.70840  0.70390  0.24330  Biso   1.000  H
  H11      1.0000 0.20840  0.79610  0.74330  Biso   1.000  H
  H12      1.0000 0.20840  0.20390  0.24330  Biso   1.000  H
  H13      1.0000 0.29160  0.70390  0.25670  Biso   1.000  H
  H14      1.0000 0.29160  0.29610  0.75670  Biso   1.000  H
  H15      1.0000 0.79160  0.20390  0.25670  Biso   1.000  H
  H16      1.0000 0.79160  0.79610  0.75670  Biso   1.000  H
  C17      1.0000 0.50000  0.27770  0.75000  Biso   1.000  C
  C18      1.0000 0.50000  0.72230  0.25000  Biso   1.000  C
  C19      1.0000 0.00000  0.77770  0.75000  Biso   1.000  C
  C20      1.0000 0.00000  0.22230  0.25000  Biso   1.000  C
  N29      1.0000 0.50000  0.20350  0.75000  Biso   1.000  N
  N30      1.0000 0.50000  0.79650  0.25000  Biso   1.000  N
  N31      1.0000 0.00000  0.70350  0.75000  Biso   1.000  N
  N32      1.0000 0.00000  0.29650  0.25000  Biso   1.000  N
  C21      1.0000 0.62880  0.16290  0.74890  Biso   1.000  C
  C22      1.0000 0.62880  0.83710  0.24890  Biso   1.000  C
  C23      1.0000 0.12880  0.66290  0.74890  Biso   1.000  C
  C24      1.0000 0.12880  0.33710  0.24890  Biso   1.000  C
  C25      1.0000 0.37120  0.83710  0.25110  Biso   1.000  C
  C26      1.0000 0.37120  0.16290  0.75110  Biso   1.000  C
  C27      1.0000 0.87120  0.33710  0.25110  Biso   1.000  C
  C28      1.0000 0.87120  0.66290  0.75110  Biso   1.000  C
  H17      1.0000 0.67710  0.17610  0.67030  Biso   1.000  H
  H18      1.0000 0.67710  0.82390  0.17030  Biso   1.000  H
  H19      1.0000 0.17710  0.67610  0.67030  Biso   1.000  H
  H20      1.0000 0.17710  0.32390  0.17030  Biso   1.000  H
  H21      1.0000 0.32290  0.82390  0.32970  Biso   1.000  H
  H22      1.0000 0.32290  0.17610  0.82970  Biso   1.000  H
  H23      1.0000 0.82290  0.32390  0.32970  Biso   1.000  H
  H24      1.0000 0.82290  0.67610  0.82970  Biso   1.000  H
  H25      1.0000 0.60930  0.11140  0.74700  Biso   1.000  H
  H26      1.0000 0.60930  0.88860  0.24700  Biso   1.000  H
  H27      1.0000 0.10930  0.61140  0.74700  Biso   1.000  H
  H28      1.0000 0.10930  0.38860  0.24700  Biso   1.000  H
  H29      1.0000 0.39070  0.88860  0.25300  Biso   1.000  H
  H30      1.0000 0.39070  0.11140  0.75300  Biso   1.000  H
  H31      1.0000 0.89070  0.38860  0.25300  Biso   1.000  H
  H32      1.0000 0.89070  0.61140  0.75300  Biso   1.000  H
  H33      1.0000 0.68530  0.17440  0.82880  Biso   1.000  H
  H34      1.0000 0.68530  0.82560  0.32880  Biso   1.000  H
  H35      1.0000 0.18530  0.67440  0.82880  Biso   1.000  H
  H36      1.0000 0.18530  0.32560  0.32880  Biso   1.000  H
  H37      1.0000 0.31470  0.82560  0.17120  Biso   1.000  H
  H38      1.0000 0.31470  0.17440  0.67120  Biso   1.000  H
  H39      1.0000 0.81470  0.32560  0.17120  Biso   1.000  H
  H40      1.0000 0.81470  0.67440  0.67120  Biso   1.000  H
  N33      1.0000 0.50000  0.65370  0.75000  Biso   1.000  N
  N34      1.0000 0.50000  0.34630  0.25000  Biso   1.000  N
  N35      1.0000 0.00000  0.15370  0.75000  Biso   1.000  N
  N36      1.0000 0.00000  0.84630  0.25000  Biso   1.000  N
  C29      1.0000 0.50220  0.69280  0.86600  Biso   1.000  C
  C30      1.0000 0.50220  0.30720  0.36600  Biso   1.000  C
  C31      1.0000 0.00220  0.19280  0.86600  Biso   1.000  C
  C32      1.0000 0.00220  0.80720  0.36600  Biso   1.000  C
  C33      1.0000 0.49780  0.30720  0.13400  Biso   1.000  C
  C34      1.0000 0.49780  0.69280  0.63400  Biso   1.000  C
  C35      1.0000 0.99780  0.80720  0.13400  Biso   1.000  C
  C36      1.0000 0.99780  0.19280  0.63400  Biso   1.000  C
  H41      1.0000 0.50390  0.66750  0.94750  Biso   1.000  H
  H42      1.0000 0.50390  0.33250  0.44750  Biso   1.000  H
  H43      1.0000 0.00390  0.16750  0.94750  Biso   1.000  H
  H44      1.0000 0.00390  0.83250  0.44750  Biso   1.000  H
  H45      1.0000 0.49610  0.33250  0.05250  Biso   1.000  H
  H46      1.0000 0.49610  0.66750  0.55250  Biso   1.000  H
  H47      1.0000 0.99610  0.83250  0.05250  Biso   1.000  H
  H48      1.0000 0.99610  0.16750  0.55250  Biso   1.000  H
  C37      1.0000 0.50190  0.76770  0.87010  Biso   1.000  C
  C38      1.0000 0.50190  0.23230  0.37010  Biso   1.000  C
  C39      1.0000 0.00190  0.26770  0.87010  Biso   1.000  C
  C40      1.0000 0.00190  0.73230  0.37010  Biso   1.000  C
  C41      1.0000 0.49810  0.23230  0.12990  Biso   1.000  C
  C42      1.0000 0.49810  0.76770  0.62990  Biso   1.000  C
  C43      1.0000 0.99810  0.73230  0.12990  Biso   1.000  C
  C44      1.0000 0.99810  0.26770  0.62990  Biso   1.000  C
  H49      1.0000 0.50300  0.79150  0.95310  Biso   1.000  H
  H50      1.0000 0.50300  0.20850  0.45310  Biso   1.000  H
  H51      1.0000 0.00300  0.29150  0.95310  Biso   1.000  H
  H52      1.0000 0.00300  0.70850  0.45310  Biso   1.000  H
  H53      1.0000 0.49700  0.20850  0.04690  Biso   1.000  H
  H54      1.0000 0.49700  0.79150  0.54690  Biso   1.000  H
  H55      1.0000 0.99700  0.70850  0.04690  Biso   1.000  H
  H56      1.0000 0.99700  0.29150  0.54690  Biso   1.000  H
  C45      1.0000 0.50000  0.80900  0.75000  Biso   1.000  C
  C46      1.0000 0.50000  0.19100  0.25000  Biso   1.000  C
  C47      1.0000 0.00000  0.30900  0.75000  Biso   1.000  C
  C48      1.0000 0.00000  0.69100  0.25000  Biso   1.000  C
  N37      1.0000 0.50000  0.88340  0.75000  Biso   1.000  N
  N38      1.0000 0.50000  0.11660  0.25000  Biso   1.000  N
  N39      1.0000 0.00000  0.38340  0.75000  Biso   1.000  N
  N40      1.0000 0.00000  0.61660  0.25000  Biso   1.000  N
  C49      1.0000 0.50270  0.92440  0.87640  Biso   1.000  C
  C50      1.0000 0.50270  0.07560  0.37640  Biso   1.000  C
  C51      1.0000 0.00270  0.42440  0.87640  Biso   1.000  C
  C52      1.0000 0.00270  0.57560  0.37640  Biso   1.000  C
  C53      1.0000 0.49730  0.07560  0.12360  Biso   1.000  C
  C54      1.0000 0.49730  0.92440  0.62360  Biso   1.000  C
  C55      1.0000 0.99730  0.57560  0.12360  Biso   1.000  C
  C56      1.0000 0.99730  0.42440  0.62360  Biso   1.000  C
  H57      1.0000 0.42630  0.90960  0.92800  Biso   1.000  H
  H58      1.0000 0.42630  0.09040  0.42800  Biso   1.000  H
  H59      1.0000 0.92630  0.40960  0.92800  Biso   1.000  H
  H60      1.0000 0.92630  0.59040  0.42800  Biso   1.000  H
  H61      1.0000 0.57370  0.09040  0.07200  Biso   1.000  H
  H62      1.0000 0.57370  0.90960  0.57200  Biso   1.000  H
  H63      1.0000 0.07370  0.59040  0.07200  Biso   1.000  H
  H64      1.0000 0.07370  0.40960  0.57200  Biso   1.000  H
  H65      1.0000 0.49560  0.97570  0.85700  Biso   1.000  H
  H66      1.0000 0.49560  0.02430  0.35700  Biso   1.000  H
  H67      1.0000 0.99560  0.47570  0.85700  Biso   1.000  H
  H68      1.0000 0.99560  0.52430  0.35700  Biso   1.000  H
  H69      1.0000 0.50440  0.02430  0.14300  Biso   1.000  H
  H70      1.0000 0.50440  0.97570  0.64300  Biso   1.000  H
  H71      1.0000 0.00440  0.52430  0.14300  Biso   1.000  H
  H72      1.0000 0.00440  0.47570  0.64300  Biso   1.000  H
  H73      1.0000 0.58800  0.91480  0.92740  Biso   1.000  H
  H74      1.0000 0.58800  0.08520  0.42740  Biso   1.000  H
  H75      1.0000 0.08800  0.41480  0.92740  Biso   1.000  H
  H76      1.0000 0.08800  0.58520  0.42740  Biso   1.000  H
  H77      1.0000 0.41200  0.08520  0.07260  Biso   1.000  H
  H78      1.0000 0.41200  0.91480  0.57260  Biso   1.000  H
  H79      1.0000 0.91200  0.58520  0.07260  Biso   1.000  H
  H80      1.0000 0.91200  0.41480  0.57260  Biso   1.000  H
