data_image0
_cell_length_a       8.151
_cell_length_b       11.539
_cell_length_c       17.03
_cell_angle_alpha    90
_cell_angle_beta     90
_cell_angle_gamma    90

_symmetry_space_group_name_H-M    "P 1"
_symmetry_int_tables_number       1

loop_
  _symmetry_equiv_pos_as_xyz
  'x, y, z'

loop_
  _atom_site_label
  _atom_site_occupancy
  _atom_site_fract_x
  _atom_site_fract_y
  _atom_site_fract_z
  _atom_site_thermal_displace_type
  _atom_site_B_iso_or_equiv
  _atom_site_type_symbol
  Cu1      1.0000 0.21109  0.42324  0.51591  Biso   1.000  Cu
  Cu2      1.0000 0.78891  0.92324  0.98409  Biso   1.000  Cu
  Cu3      1.0000 0.71109  0.07676  0.48409  Biso   1.000  Cu
  Cu4      1.0000 0.28891  0.57676  0.01591  Biso   1.000  Cu
  N1       1.0000 0.44280  0.38370  0.50970  Biso   1.000  N
  N2       1.0000 0.55720  0.88370  0.99030  Biso   1.000  N
  N3       1.0000 0.94280  0.11630  0.49030  Biso   1.000  N
  N4       1.0000 0.05720  0.61630  0.00970  Biso   1.000  N
  N5       1.0000 0.52610  0.30790  0.53480  Biso   1.000  N
  N6       1.0000 0.47390  0.80790  0.96520  Biso   1.000  N
  N7       1.0000 0.02610  0.19210  0.46520  Biso   1.000  N
  N8       1.0000 0.97390  0.69210  0.03480  Biso   1.000  N
  N9       1.0000 0.61560  0.23810  0.56020  Biso   1.000  N
  N10      1.0000 0.38440  0.73810  0.93980  Biso   1.000  N
  N11      1.0000 0.11560  0.26190  0.43980  Biso   1.000  N
  N12      1.0000 0.88440  0.76190  0.06020  Biso   1.000  N
  Cl1      1.0000 0.45170  0.60573  0.66770  Biso   1.000  Cl
  Cl2      1.0000 0.54830  0.10573  0.83230  Biso   1.000  Cl
  Cl3      1.0000 0.95170  0.89427  0.33230  Biso   1.000  Cl
  Cl4      1.0000 0.04830  0.39427  0.16770  Biso   1.000  Cl
  O1       1.0000 0.56130  0.64560  0.60830  Biso   1.000  O
  O2       1.0000 0.43870  0.14560  0.89170  Biso   1.000  O
  O3       1.0000 0.06130  0.85440  0.39170  Biso   1.000  O
  O4       1.0000 0.93870  0.35440  0.10830  Biso   1.000  O
  O5       1.0000 0.44670  0.68730  0.73090  Biso   1.000  O
  O6       1.0000 0.55330  0.18730  0.76910  Biso   1.000  O
  O7       1.0000 0.94670  0.81270  0.26910  Biso   1.000  O
  O8       1.0000 0.05330  0.31270  0.23090  Biso   1.000  O
  O9       1.0000 0.50740  0.49800  0.69580  Biso   1.000  O
  O10      1.0000 0.49260  0.99800  0.80420  Biso   1.000  O
  O11      1.0000 0.00740  0.00200  0.30420  Biso   1.000  O
  O12      1.0000 0.99260  0.50200  0.19580  Biso   1.000  O
  O13      1.0000 0.29050  0.59150  0.63520  Biso   1.000  O
  O14      1.0000 0.70950  0.09150  0.86480  Biso   1.000  O
  O15      1.0000 0.79050  0.90850  0.36480  Biso   1.000  O
  O16      1.0000 0.20950  0.40850  0.13520  Biso   1.000  O
  N13      1.0000 0.13520  0.34680  0.61780  Biso   1.000  N
  N14      1.0000 0.86480  0.84680  0.88220  Biso   1.000  N
  N15      1.0000 0.63520  0.15320  0.38220  Biso   1.000  N
  N16      1.0000 0.36480  0.65320  0.11780  Biso   1.000  N
  C1       1.0000 0.21200  0.27460  0.66490  Biso   1.000  C
  C2       1.0000 0.78800  0.77460  0.83510  Biso   1.000  C
  C3       1.0000 0.71200  0.22540  0.33510  Biso   1.000  C
  C4       1.0000 0.28800  0.72540  0.16490  Biso   1.000  C
  H1       1.0000 0.32030  0.25530  0.65370  Biso   1.000  H
  H2       1.0000 0.67970  0.75530  0.84630  Biso   1.000  H
  H3       1.0000 0.82030  0.24470  0.34630  Biso   1.000  H
  H4       1.0000 0.17970  0.74470  0.15370  Biso   1.000  H
  C5       1.0000 0.13780  0.22520  0.73160  Biso   1.000  C
  C6       1.0000 0.86220  0.72520  0.76840  Biso   1.000  C
  C7       1.0000 0.63780  0.27480  0.26840  Biso   1.000  C
  C8       1.0000 0.36220  0.77480  0.23160  Biso   1.000  C
  H5       1.0000 0.19710  0.17540  0.76380  Biso   1.000  H
  H6       1.0000 0.80290  0.67540  0.73620  Biso   1.000  H
  H7       1.0000 0.69710  0.32460  0.23620  Biso   1.000  H
  H8       1.0000 0.30290  0.82460  0.26380  Biso   1.000  H
  C9       1.0000 0.97690  0.25100  0.74880  Biso   1.000  C
  C10      1.0000 0.02310  0.75100  0.75120  Biso   1.000  C
  C11      1.0000 0.47690  0.24900  0.25120  Biso   1.000  C
  C12      1.0000 0.52310  0.74900  0.24880  Biso   1.000  C
  H9       1.0000 0.92450  0.21850  0.79210  Biso   1.000  H
  H10      1.0000 0.07550  0.71850  0.70790  Biso   1.000  H
  H11      1.0000 0.42450  0.28150  0.20790  Biso   1.000  H
  H12      1.0000 0.57550  0.78150  0.29210  Biso   1.000  H
  C13      1.0000 0.89450  0.32870  0.69820  Biso   1.000  C
  C14      1.0000 0.10550  0.82870  0.80180  Biso   1.000  C
  C15      1.0000 0.39450  0.17130  0.30180  Biso   1.000  C
  C16      1.0000 0.60550  0.67130  0.19820  Biso   1.000  C
  H13      1.0000 0.78600  0.34910  0.70790  Biso   1.000  H
  H14      1.0000 0.21400  0.84910  0.79210  Biso   1.000  H
  H15      1.0000 0.28600  0.15090  0.29210  Biso   1.000  H
  H16      1.0000 0.71400  0.65090  0.20790  Biso   1.000  H
  C17      1.0000 0.97510  0.37360  0.63500  Biso   1.000  C
  C18      1.0000 0.02490  0.87360  0.86500  Biso   1.000  C
  C19      1.0000 0.47510  0.12640  0.36500  Biso   1.000  C
  C20      1.0000 0.52490  0.62640  0.13500  Biso   1.000  C
  C21      1.0000 0.89960  0.45350  0.57940  Biso   1.000  C
  C22      1.0000 0.10040  0.95350  0.92060  Biso   1.000  C
  C23      1.0000 0.39960  0.04650  0.42060  Biso   1.000  C
  C24      1.0000 0.60040  0.54650  0.07940  Biso   1.000  C
  H17      1.0000 0.79110  0.47700  0.58500  Biso   1.000  H
  H18      1.0000 0.20890  0.97700  0.91500  Biso   1.000  H
  H19      1.0000 0.29110  0.02300  0.41500  Biso   1.000  H
  H20      1.0000 0.70890  0.52300  0.08500  Biso   1.000  H
  N17      1.0000 0.98870  0.49030  0.52230  Biso   1.000  N
  N18      1.0000 0.01130  0.99030  0.97770  Biso   1.000  N
  N19      1.0000 0.48870  0.00970  0.47770  Biso   1.000  N
  N20      1.0000 0.51130  0.50970  0.02230  Biso   1.000  N
  C25      1.0000 0.94240  0.57200  0.46250  Biso   1.000  C
  C26      1.0000 0.05760  0.07200  0.03750  Biso   1.000  C
  C27      1.0000 0.44240  0.92800  0.53750  Biso   1.000  C
  C28      1.0000 0.55760  0.42800  0.96250  Biso   1.000  C
  H21      1.0000 0.96610  0.65020  0.48180  Biso   1.000  H
  H22      1.0000 0.03390  0.15020  0.01820  Biso   1.000  H
  H23      1.0000 0.46610  0.84980  0.51820  Biso   1.000  H
  H24      1.0000 0.53390  0.34980  0.98180  Biso   1.000  H
  C29      1.0000 0.05300  0.54800  0.39300  Biso   1.000  C
  C30      1.0000 0.94700  0.04800  0.10700  Biso   1.000  C
  C31      1.0000 0.55300  0.95200  0.60700  Biso   1.000  C
  C32      1.0000 0.44700  0.45200  0.89300  Biso   1.000  C
  H25      1.0000 0.01370  0.48010  0.36510  Biso   1.000  H
  H26      1.0000 0.98630  0.98010  0.13490  Biso   1.000  H
  H27      1.0000 0.51370  0.01990  0.63490  Biso   1.000  H
  H28      1.0000 0.48630  0.51990  0.86510  Biso   1.000  H
  H29      1.0000 0.04990  0.61330  0.35720  Biso   1.000  H
  H30      1.0000 0.95010  0.11330  0.14280  Biso   1.000  H
  H31      1.0000 0.54990  0.88670  0.64280  Biso   1.000  H
  H32      1.0000 0.45010  0.38670  0.85720  Biso   1.000  H
  N21      1.0000 0.22550  0.52800  0.41940  Biso   1.000  N
  N22      1.0000 0.77450  0.02800  0.08060  Biso   1.000  N
  N23      1.0000 0.72550  0.97200  0.58060  Biso   1.000  N
  N24      1.0000 0.27450  0.47200  0.91940  Biso   1.000  N
  C33      1.0000 0.30330  0.64080  0.44270  Biso   1.000  C
  C34      1.0000 0.69670  0.14080  0.05730  Biso   1.000  C
  C35      1.0000 0.80330  0.85920  0.55730  Biso   1.000  C
  C36      1.0000 0.19670  0.35920  0.94270  Biso   1.000  C
  H33      1.0000 0.41230  0.62660  0.46190  Biso   1.000  H
  H34      1.0000 0.58770  0.12660  0.03810  Biso   1.000  H
  H35      1.0000 0.91230  0.87340  0.53810  Biso   1.000  H
  H36      1.0000 0.08770  0.37340  0.96190  Biso   1.000  H
  H37      1.0000 0.23910  0.67670  0.48320  Biso   1.000  H
  H38      1.0000 0.76090  0.17670  0.01680  Biso   1.000  H
  H39      1.0000 0.73910  0.82330  0.51680  Biso   1.000  H
  H40      1.0000 0.26090  0.32330  0.98320  Biso   1.000  H
  H41      1.0000 0.30840  0.69120  0.39790  Biso   1.000  H
  H42      1.0000 0.69160  0.19120  0.10210  Biso   1.000  H
  H43      1.0000 0.80840  0.80880  0.60210  Biso   1.000  H
  H44      1.0000 0.19160  0.30880  0.89790  Biso   1.000  H
  C37      1.0000 0.31970  0.47670  0.35340  Biso   1.000  C
  C38      1.0000 0.68030  0.97670  0.14660  Biso   1.000  C
  C39      1.0000 0.81970  0.02330  0.64660  Biso   1.000  C
  C40      1.0000 0.18030  0.52330  0.85340  Biso   1.000  C
  H45      1.0000 0.27330  0.40290  0.33980  Biso   1.000  H
  H46      1.0000 0.72670  0.90290  0.16020  Biso   1.000  H
  H47      1.0000 0.77330  0.09710  0.66020  Biso   1.000  H
  H48      1.0000 0.22670  0.59710  0.83980  Biso   1.000  H
  H49      1.0000 0.43200  0.46650  0.36890  Biso   1.000  H
  H50      1.0000 0.56800  0.96650  0.13110  Biso   1.000  H
  H51      1.0000 0.93200  0.03350  0.63110  Biso   1.000  H
  H52      1.0000 0.06800  0.53350  0.86890  Biso   1.000  H
  H53      1.0000 0.31460  0.52740  0.30880  Biso   1.000  H
  H54      1.0000 0.68540  0.02740  0.19120  Biso   1.000  H
  H55      1.0000 0.81460  0.97260  0.69120  Biso   1.000  H
  H56      1.0000 0.18540  0.47260  0.80880  Biso   1.000  H
  C41      1.0000 0.76180  0.56760  0.43730  Biso   1.000  C
  C42      1.0000 0.23820  0.06760  0.06270  Biso   1.000  C
  C43      1.0000 0.26180  0.93240  0.56270  Biso   1.000  C
  C44      1.0000 0.73820  0.43240  0.93730  Biso   1.000  C
  H57      1.0000 0.73720  0.49220  0.41660  Biso   1.000  H
  H58      1.0000 0.26280  0.99220  0.08340  Biso   1.000  H
  H59      1.0000 0.23720  0.00780  0.58340  Biso   1.000  H
  H60      1.0000 0.76280  0.50780  0.91660  Biso   1.000  H
  H61      1.0000 0.74230  0.62510  0.39760  Biso   1.000  H
  H62      1.0000 0.25770  0.12510  0.10240  Biso   1.000  H
  H63      1.0000 0.24230  0.87490  0.60240  Biso   1.000  H
  H64      1.0000 0.75770  0.37490  0.89760  Biso   1.000  H
  H65      1.0000 0.69300  0.58290  0.48190  Biso   1.000  H
  H66      1.0000 0.30700  0.08290  0.01810  Biso   1.000  H
  H67      1.0000 0.19300  0.91710  0.51810  Biso   1.000  H
  H68      1.0000 0.80700  0.41710  0.98190  Biso   1.000  H
