data_image0
_cell_length_a       19.98
_cell_length_b       8.193
_cell_length_c       11.837
_cell_angle_alpha    90
_cell_angle_beta     110.199
_cell_angle_gamma    90

_symmetry_space_group_name_H-M    "P 1"
_symmetry_int_tables_number       1

loop_
  _symmetry_equiv_pos_as_xyz
  'x, y, z'

loop_
  _atom_site_label
  _atom_site_occupancy
  _atom_site_fract_x
  _atom_site_fract_y
  _atom_site_fract_z
  _atom_site_thermal_displace_type
  _atom_site_B_iso_or_equiv
  _atom_site_type_symbol
  Cu1      1.0000 0.66226  0.92267  0.77996  Biso   1.000  Cu
  Cu2      1.0000 0.16226  0.57733  0.27996  Biso   1.000  Cu
  Cu3      1.0000 0.33774  0.07733  0.22004  Biso   1.000  Cu
  Cu4      1.0000 0.83774  0.42267  0.72004  Biso   1.000  Cu
  N1       1.0000 0.77780  0.97870  0.80760  Biso   1.000  N
  N2       1.0000 0.27780  0.52130  0.30760  Biso   1.000  N
  N3       1.0000 0.22220  0.02130  0.19240  Biso   1.000  N
  N4       1.0000 0.72220  0.47870  0.69240  Biso   1.000  N
  N5       1.0000 0.80910  0.09980  0.80240  Biso   1.000  N
  N6       1.0000 0.30910  0.40020  0.30240  Biso   1.000  N
  N7       1.0000 0.19090  0.90020  0.19760  Biso   1.000  N
  N8       1.0000 0.69090  0.59980  0.69760  Biso   1.000  N
  N9       1.0000 0.84570  0.20800  0.80200  Biso   1.000  N
  N10      1.0000 0.34570  0.29200  0.30200  Biso   1.000  N
  N11      1.0000 0.15430  0.79200  0.19800  Biso   1.000  N
  N12      1.0000 0.65430  0.70800  0.69800  Biso   1.000  N
  N13      1.0000 0.67360  0.81900  0.94120  Biso   1.000  N
  N14      1.0000 0.17360  0.68100  0.44120  Biso   1.000  N
  N15      1.0000 0.32640  0.18100  0.05880  Biso   1.000  N
  N16      1.0000 0.82640  0.31900  0.55880  Biso   1.000  N
  C1       1.0000 0.60610  0.73100  0.92770  Biso   1.000  C
  C2       1.0000 0.10610  0.76900  0.42770  Biso   1.000  C
  C3       1.0000 0.39390  0.26900  0.07230  Biso   1.000  C
  C4       1.0000 0.89390  0.23100  0.57230  Biso   1.000  C
  H1       1.0000 0.61260  0.66540  0.99810  Biso   1.000  H
  H2       1.0000 0.11260  0.83460  0.49810  Biso   1.000  H
  H3       1.0000 0.38740  0.33460  0.00190  Biso   1.000  H
  H4       1.0000 0.88740  0.16540  0.50190  Biso   1.000  H
  H5       1.0000 0.59380  0.66140  0.85810  Biso   1.000  H
  H6       1.0000 0.09380  0.83860  0.35810  Biso   1.000  H
  H7       1.0000 0.40620  0.33860  0.14190  Biso   1.000  H
  H8       1.0000 0.90620  0.16140  0.64190  Biso   1.000  H
  H9       1.0000 0.56860  0.80810  0.91840  Biso   1.000  H
  H10      1.0000 0.06860  0.69190  0.41840  Biso   1.000  H
  H11      1.0000 0.43140  0.19190  0.08160  Biso   1.000  H
  H12      1.0000 0.93140  0.30810  0.58160  Biso   1.000  H
  C5       1.0000 0.73160  0.68600  0.97070  Biso   1.000  C
  C6       1.0000 0.23160  0.81400  0.47070  Biso   1.000  C
  C7       1.0000 0.26840  0.31400  0.02930  Biso   1.000  C
  C8       1.0000 0.76840  0.18600  0.52930  Biso   1.000  C
  H13      1.0000 0.77250  0.72730  0.95520  Biso   1.000  H
  H14      1.0000 0.27250  0.77270  0.45520  Biso   1.000  H
  H15      1.0000 0.22750  0.27270  0.04480  Biso   1.000  H
  H16      1.0000 0.72750  0.22730  0.54480  Biso   1.000  H
  H17      1.0000 0.71340  0.59200  0.92140  Biso   1.000  H
  H18      1.0000 0.21340  0.90800  0.42140  Biso   1.000  H
  H19      1.0000 0.28660  0.40800  0.07860  Biso   1.000  H
  H20      1.0000 0.78660  0.09200  0.57860  Biso   1.000  H
  H21      1.0000 0.74490  0.65650  0.05400  Biso   1.000  H
  H22      1.0000 0.24490  0.84350  0.55400  Biso   1.000  H
  H23      1.0000 0.25510  0.34350  0.94600  Biso   1.000  H
  H24      1.0000 0.75510  0.15650  0.44600  Biso   1.000  H
  C9       1.0000 0.69390  0.92540  0.05270  Biso   1.000  C
  C10      1.0000 0.19390  0.57460  0.55270  Biso   1.000  C
  C11      1.0000 0.30610  0.07460  0.94730  Biso   1.000  C
  C12      1.0000 0.80610  0.42540  0.44730  Biso   1.000  C
  H25      1.0000 0.74530  0.93760  0.08150  Biso   1.000  H
  H26      1.0000 0.24530  0.56240  0.58150  Biso   1.000  H
  H27      1.0000 0.25470  0.06240  0.91850  Biso   1.000  H
  H28      1.0000 0.75470  0.43760  0.41850  Biso   1.000  H
  H29      1.0000 0.68210  0.86520  0.11390  Biso   1.000  H
  H30      1.0000 0.18210  0.63480  0.61390  Biso   1.000  H
  H31      1.0000 0.31790  0.13480  0.88610  Biso   1.000  H
  H32      1.0000 0.81790  0.36520  0.38610  Biso   1.000  H
  C13      1.0000 0.66060  0.10280  0.04600  Biso   1.000  C
  C14      1.0000 0.16060  0.39720  0.54600  Biso   1.000  C
  C15      1.0000 0.33940  0.89720  0.95400  Biso   1.000  C
  C16      1.0000 0.83940  0.60280  0.45400  Biso   1.000  C
  C17      1.0000 0.69580  0.16600  0.17350  Biso   1.000  C
  C18      1.0000 0.19580  0.33400  0.67350  Biso   1.000  C
  C19      1.0000 0.30420  0.83400  0.82650  Biso   1.000  C
  C20      1.0000 0.80420  0.66600  0.32650  Biso   1.000  C
  H33      1.0000 0.74650  0.15110  0.19770  Biso   1.000  H
  H34      1.0000 0.24650  0.34890  0.69770  Biso   1.000  H
  H35      1.0000 0.25350  0.84890  0.80230  Biso   1.000  H
  H36      1.0000 0.75350  0.65110  0.30230  Biso   1.000  H
  H37      1.0000 0.67790  0.10600  0.22700  Biso   1.000  H
  H38      1.0000 0.17790  0.39400  0.72700  Biso   1.000  H
  H39      1.0000 0.32210  0.89400  0.77300  Biso   1.000  H
  H40      1.0000 0.82210  0.60600  0.27300  Biso   1.000  H
  H41      1.0000 0.68510  0.27950  0.17650  Biso   1.000  H
  H42      1.0000 0.18510  0.22050  0.67650  Biso   1.000  H
  H43      1.0000 0.31490  0.72050  0.82350  Biso   1.000  H
  H44      1.0000 0.81490  0.77950  0.32350  Biso   1.000  H
  C21      1.0000 0.58180  0.09600  0.02030  Biso   1.000  C
  C22      1.0000 0.08180  0.40400  0.52030  Biso   1.000  C
  C23      1.0000 0.41820  0.90400  0.97970  Biso   1.000  C
  C24      1.0000 0.91820  0.59600  0.47970  Biso   1.000  C
  H45      1.0000 0.56990  0.16370  0.07700  Biso   1.000  H
  H46      1.0000 0.06990  0.33630  0.57700  Biso   1.000  H
  H47      1.0000 0.43010  0.83630  0.92300  Biso   1.000  H
  H48      1.0000 0.93010  0.66370  0.42300  Biso   1.000  H
  H49      1.0000 0.56780  0.98570  0.02720  Biso   1.000  H
  H50      1.0000 0.06780  0.51430  0.52720  Biso   1.000  H
  H51      1.0000 0.43220  0.01430  0.97280  Biso   1.000  H
  H52      1.0000 0.93220  0.48570  0.47280  Biso   1.000  H
  H53      1.0000 0.55720  0.13520  0.94010  Biso   1.000  H
  H54      1.0000 0.05720  0.36480  0.44010  Biso   1.000  H
  H55      1.0000 0.44280  0.86480  0.05990  Biso   1.000  H
  H56      1.0000 0.94280  0.63520  0.55990  Biso   1.000  H
  C25      1.0000 0.67830  0.20600  0.95850  Biso   1.000  C
  C26      1.0000 0.17830  0.29400  0.45850  Biso   1.000  C
  C27      1.0000 0.32170  0.79400  0.04150  Biso   1.000  C
  C28      1.0000 0.82170  0.70600  0.54150  Biso   1.000  C
  H57      1.0000 0.72980  0.21450  0.98280  Biso   1.000  H
  H58      1.0000 0.22980  0.28550  0.48280  Biso   1.000  H
  H59      1.0000 0.27020  0.78550  0.01720  Biso   1.000  H
  H60      1.0000 0.77020  0.71450  0.51720  Biso   1.000  H
  H61      1.0000 0.66000  0.31540  0.96160  Biso   1.000  H
  H62      1.0000 0.16000  0.18460  0.46160  Biso   1.000  H
  H63      1.0000 0.34000  0.68460  0.03840  Biso   1.000  H
  H64      1.0000 0.84000  0.81540  0.53840  Biso   1.000  H
  N17      1.0000 0.64960  0.14700  0.83130  Biso   1.000  N
  N18      1.0000 0.14960  0.35300  0.33130  Biso   1.000  N
  N19      1.0000 0.35040  0.85300  0.16870  Biso   1.000  N
  N20      1.0000 0.85040  0.64700  0.66870  Biso   1.000  N
  C29      1.0000 0.61940  0.24770  0.75360  Biso   1.000  C
  C30      1.0000 0.11940  0.25230  0.25360  Biso   1.000  C
  C31      1.0000 0.38060  0.75230  0.24640  Biso   1.000  C
  C32      1.0000 0.88060  0.74770  0.74640  Biso   1.000  C
  H65      1.0000 0.61080  0.35340  0.77380  Biso   1.000  H
  H66      1.0000 0.11080  0.14660  0.27380  Biso   1.000  H
  H67      1.0000 0.38920  0.64660  0.22620  Biso   1.000  H
  H68      1.0000 0.88920  0.85340  0.72620  Biso   1.000  H
  C33      1.0000 0.59650  0.19260  0.62240  Biso   1.000  C
  C34      1.0000 0.09650  0.30740  0.12240  Biso   1.000  C
  C35      1.0000 0.40350  0.80740  0.37760  Biso   1.000  C
  C36      1.0000 0.90350  0.69260  0.87760  Biso   1.000  C
  C37      1.0000 0.56560  0.28100  0.52970  Biso   1.000  C
  C38      1.0000 0.06560  0.21900  0.02970  Biso   1.000  C
  C39      1.0000 0.43440  0.71900  0.47030  Biso   1.000  C
  C40      1.0000 0.93440  0.78100  0.97030  Biso   1.000  C
  H69      1.0000 0.55290  0.38770  0.53880  Biso   1.000  H
  H70      1.0000 0.05290  0.11230  0.03880  Biso   1.000  H
  H71      1.0000 0.44710  0.61230  0.46120  Biso   1.000  H
  H72      1.0000 0.94710  0.88770  0.96120  Biso   1.000  H
  C41      1.0000 0.55140  0.21700  0.41800  Biso   1.000  C
  C42      1.0000 0.05140  0.28300  0.91800  Biso   1.000  C
  C43      1.0000 0.44860  0.78300  0.58200  Biso   1.000  C
  C44      1.0000 0.94860  0.71700  0.08200  Biso   1.000  C
  H73      1.0000 0.53160  0.28300  0.35100  Biso   1.000  H
  H74      1.0000 0.03160  0.21700  0.85100  Biso   1.000  H
  H75      1.0000 0.46840  0.71700  0.64900  Biso   1.000  H
  H76      1.0000 0.96840  0.78300  0.14900  Biso   1.000  H
  N21      1.0000 0.61330  0.02910  0.61310  Biso   1.000  N
  N22      1.0000 0.11330  0.47090  0.11310  Biso   1.000  N
  N23      1.0000 0.38670  0.97090  0.38690  Biso   1.000  N
  N24      1.0000 0.88670  0.52910  0.88690  Biso   1.000  N
  C45      1.0000 0.59920  0.96300  0.50910  Biso   1.000  C
  C46      1.0000 0.09920  0.53700  0.00910  Biso   1.000  C
  C47      1.0000 0.40080  0.03700  0.49090  Biso   1.000  C
  C48      1.0000 0.90080  0.46300  0.99090  Biso   1.000  C
  H77      1.0000 0.61090  0.85390  0.50400  Biso   1.000  H
  H78      1.0000 0.11090  0.64610  0.00400  Biso   1.000  H
  H79      1.0000 0.38910  0.14610  0.49600  Biso   1.000  H
  H80      1.0000 0.88910  0.35390  0.99600  Biso   1.000  H
  C49      1.0000 0.56590  0.05300  0.40170  Biso   1.000  C
  C50      1.0000 0.06590  0.44700  0.90170  Biso   1.000  C
  C51      1.0000 0.43410  0.94700  0.59830  Biso   1.000  C
  C52      1.0000 0.93410  0.55300  0.09830  Biso   1.000  C
  H81      1.0000 0.55460  0.00640  0.32570  Biso   1.000  H
  H82      1.0000 0.05460  0.49360  0.82570  Biso   1.000  H
  H83      1.0000 0.44540  0.99360  0.67430  Biso   1.000  H
  H84      1.0000 0.94540  0.50640  0.17430  Biso   1.000  H
  Cl1      1.0000 0.42040  0.38830  0.73210  Biso   1.000  Cl
  Cl2      1.0000 0.92040  0.11170  0.23210  Biso   1.000  Cl
  Cl3      1.0000 0.57960  0.61170  0.26790  Biso   1.000  Cl
  Cl4      1.0000 0.07960  0.88830  0.76790  Biso   1.000  Cl
  O1       1.0000 0.48500  0.41200  0.73500  Biso   1.000  O
  O2       1.0000 0.98500  0.08800  0.23500  Biso   1.000  O
  O3       1.0000 0.51500  0.58800  0.26500  Biso   1.000  O
  O4       1.0000 0.01500  0.91200  0.76500  Biso   1.000  O
  O5       1.0000 0.39610  0.50800  0.78700  Biso   1.000  O
  O6       1.0000 0.89610  0.99200  0.28700  Biso   1.000  O
  O7       1.0000 0.60390  0.49200  0.21300  Biso   1.000  O
  O8       1.0000 0.10390  0.00800  0.71300  Biso   1.000  O
  O9       1.0000 0.37600  0.40800  0.61710  Biso   1.000  O
  O10      1.0000 0.87600  0.09200  0.11710  Biso   1.000  O
  O11      1.0000 0.62400  0.59200  0.38290  Biso   1.000  O
  O12      1.0000 0.12400  0.90800  0.88290  Biso   1.000  O
  O13      1.0000 0.41070  0.24100  0.76730  Biso   1.000  O
  O14      1.0000 0.91070  0.25900  0.26730  Biso   1.000  O
  O15      1.0000 0.58930  0.75900  0.23270  Biso   1.000  O
  O16      1.0000 0.08930  0.74100  0.73270  Biso   1.000  O
