data_image0
_cell_length_a       10.675
_cell_length_b       11.0391
_cell_length_c       22.6495
_cell_angle_alpha    90
_cell_angle_beta     101.351
_cell_angle_gamma    90

_symmetry_space_group_name_H-M    "P 1"
_symmetry_int_tables_number       1

loop_
  _symmetry_equiv_pos_as_xyz
  'x, y, z'

loop_
  _atom_site_label
  _atom_site_occupancy
  _atom_site_fract_x
  _atom_site_fract_y
  _atom_site_fract_z
  _atom_site_thermal_displace_type
  _atom_site_B_iso_or_equiv
  _atom_site_type_symbol
  C1       1.0000 0.50000  0.08010  0.25000  Biso   1.000  C
  C2       1.0000 0.00000  0.58010  0.25000  Biso   1.000  C
  C3       1.0000 0.50000  0.91990  0.75000  Biso   1.000  C
  C4       1.0000 0.00000  0.41990  0.75000  Biso   1.000  C
  C5       1.0000 0.60040  0.28000  0.28336  Biso   1.000  C
  C6       1.0000 0.39960  0.28000  0.21664  Biso   1.000  C
  C7       1.0000 0.10040  0.78000  0.28336  Biso   1.000  C
  C8       1.0000 0.89960  0.78000  0.21664  Biso   1.000  C
  C9       1.0000 0.39960  0.72000  0.71664  Biso   1.000  C
  C10      1.0000 0.60040  0.72000  0.78336  Biso   1.000  C
  C11      1.0000 0.89960  0.22000  0.71664  Biso   1.000  C
  C12      1.0000 0.10040  0.22000  0.78336  Biso   1.000  C
  H1       1.0000 0.67000  0.23980  0.30620  Biso   1.000  H
  H2       1.0000 0.33000  0.23980  0.19380  Biso   1.000  H
  H3       1.0000 0.17000  0.73980  0.30620  Biso   1.000  H
  H4       1.0000 0.83000  0.73980  0.19380  Biso   1.000  H
  H5       1.0000 0.33000  0.76020  0.69380  Biso   1.000  H
  H6       1.0000 0.67000  0.76020  0.80620  Biso   1.000  H
  H7       1.0000 0.83000  0.26020  0.69380  Biso   1.000  H
  H8       1.0000 0.17000  0.26020  0.80620  Biso   1.000  H
  C13      1.0000 0.51940  0.65000  0.13943  Biso   1.000  C
  C14      1.0000 0.48060  0.65000  0.36057  Biso   1.000  C
  C15      1.0000 0.01940  0.15000  0.13943  Biso   1.000  C
  C16      1.0000 0.98060  0.15000  0.36057  Biso   1.000  C
  C17      1.0000 0.48060  0.35000  0.86057  Biso   1.000  C
  C18      1.0000 0.51940  0.35000  0.63943  Biso   1.000  C
  C19      1.0000 0.98060  0.85000  0.86057  Biso   1.000  C
  C20      1.0000 0.01940  0.85000  0.63943  Biso   1.000  C
  C21      1.0000 0.55540  0.64560  0.07849  Biso   1.000  C
  C22      1.0000 0.44460  0.64560  0.42151  Biso   1.000  C
  C23      1.0000 0.05540  0.14560  0.07849  Biso   1.000  C
  C24      1.0000 0.94460  0.14560  0.42151  Biso   1.000  C
  C25      1.0000 0.44460  0.35440  0.92151  Biso   1.000  C
  C26      1.0000 0.55540  0.35440  0.57849  Biso   1.000  C
  C27      1.0000 0.94460  0.85440  0.92151  Biso   1.000  C
  C28      1.0000 0.05540  0.85440  0.57849  Biso   1.000  C
  C29      1.0000 0.59650  0.40540  0.28250  Biso   1.000  C
  C30      1.0000 0.40350  0.40540  0.21750  Biso   1.000  C
  C31      1.0000 0.09650  0.90540  0.28250  Biso   1.000  C
  C32      1.0000 0.90350  0.90540  0.21750  Biso   1.000  C
  C33      1.0000 0.40350  0.59460  0.71750  Biso   1.000  C
  C34      1.0000 0.59650  0.59460  0.78250  Biso   1.000  C
  C35      1.0000 0.90350  0.09460  0.71750  Biso   1.000  C
  C36      1.0000 0.09650  0.09460  0.78250  Biso   1.000  C
  H9       1.0000 0.66410  0.44800  0.30560  Biso   1.000  H
  H10      1.0000 0.33590  0.44800  0.19440  Biso   1.000  H
  H11      1.0000 0.16410  0.94800  0.30560  Biso   1.000  H
  H12      1.0000 0.83590  0.94800  0.19440  Biso   1.000  H
  H13      1.0000 0.33590  0.55200  0.69440  Biso   1.000  H
  H14      1.0000 0.66410  0.55200  0.80560  Biso   1.000  H
  H15      1.0000 0.83590  0.05200  0.69440  Biso   1.000  H
  H16      1.0000 0.16410  0.05200  0.80560  Biso   1.000  H
  C37      1.0000 0.83340  0.55460  0.00820  Biso   1.000  C
  C38      1.0000 0.16660  0.55460  0.49180  Biso   1.000  C
  C39      1.0000 0.33340  0.05460  0.00820  Biso   1.000  C
  C40      1.0000 0.66660  0.05460  0.49180  Biso   1.000  C
  C41      1.0000 0.16660  0.44540  0.99180  Biso   1.000  C
  C42      1.0000 0.83340  0.44540  0.50820  Biso   1.000  C
  C43      1.0000 0.66660  0.94540  0.99180  Biso   1.000  C
  C44      1.0000 0.33340  0.94540  0.50820  Biso   1.000  C
  C45      1.0000 0.46640  0.67970  0.02770  Biso   1.000  C
  C46      1.0000 0.53360  0.67970  0.47230  Biso   1.000  C
  C47      1.0000 0.96640  0.17970  0.02770  Biso   1.000  C
  C48      1.0000 0.03360  0.17970  0.47230  Biso   1.000  C
  C49      1.0000 0.53360  0.32030  0.97230  Biso   1.000  C
  C50      1.0000 0.46640  0.32030  0.52770  Biso   1.000  C
  C51      1.0000 0.03360  0.82030  0.97230  Biso   1.000  C
  C52      1.0000 0.96640  0.82030  0.52770  Biso   1.000  C
  H17      1.0000 0.38660  0.70820  0.03200  Biso   1.000  H
  H18      1.0000 0.61340  0.70820  0.46800  Biso   1.000  H
  H19      1.0000 0.88660  0.20820  0.03200  Biso   1.000  H
  H20      1.0000 0.11340  0.20820  0.46800  Biso   1.000  H
  H21      1.0000 0.61340  0.29180  0.96800  Biso   1.000  H
  H22      1.0000 0.38660  0.29180  0.53200  Biso   1.000  H
  H23      1.0000 0.11340  0.79180  0.96800  Biso   1.000  H
  H24      1.0000 0.88660  0.79180  0.53200  Biso   1.000  H
  C53      1.0000 0.61390  0.62950  0.96419  Biso   1.000  C
  C54      1.0000 0.38610  0.62950  0.53581  Biso   1.000  C
  C55      1.0000 0.11390  0.12950  0.96419  Biso   1.000  C
  C56      1.0000 0.88610  0.12950  0.53581  Biso   1.000  C
  C57      1.0000 0.38610  0.37050  0.03581  Biso   1.000  C
  C58      1.0000 0.61390  0.37050  0.46419  Biso   1.000  C
  C59      1.0000 0.88610  0.87050  0.03581  Biso   1.000  C
  C60      1.0000 0.11390  0.87050  0.46419  Biso   1.000  C
  H25      1.0000 0.63270  0.62240  0.92600  Biso   1.000  H
  H26      1.0000 0.36730  0.62240  0.57400  Biso   1.000  H
  H27      1.0000 0.13270  0.12240  0.92600  Biso   1.000  H
  H28      1.0000 0.86730  0.12240  0.57400  Biso   1.000  H
  H29      1.0000 0.36730  0.37760  0.07400  Biso   1.000  H
  H30      1.0000 0.63270  0.37760  0.42600  Biso   1.000  H
  H31      1.0000 0.86730  0.87760  0.07400  Biso   1.000  H
  H32      1.0000 0.13270  0.87760  0.42600  Biso   1.000  H
  C61      1.0000 0.39160  0.88900  0.23162  Biso   1.000  C
  C62      1.0000 0.60840  0.88900  0.26838  Biso   1.000  C
  C63      1.0000 0.89160  0.38900  0.23162  Biso   1.000  C
  C64      1.0000 0.10840  0.38900  0.26838  Biso   1.000  C
  C65      1.0000 0.60840  0.11100  0.76838  Biso   1.000  C
  C66      1.0000 0.39160  0.11100  0.73162  Biso   1.000  C
  C67      1.0000 0.10840  0.61100  0.76838  Biso   1.000  C
  C68      1.0000 0.89160  0.61100  0.73162  Biso   1.000  C
  H33      1.0000 0.31610  0.84640  0.21860  Biso   1.000  H
  H34      1.0000 0.68390  0.84640  0.28140  Biso   1.000  H
  H35      1.0000 0.81610  0.34640  0.21860  Biso   1.000  H
  H36      1.0000 0.18390  0.34640  0.28140  Biso   1.000  H
  H37      1.0000 0.68390  0.15360  0.78140  Biso   1.000  H
  H38      1.0000 0.31610  0.15360  0.71860  Biso   1.000  H
  H39      1.0000 0.18390  0.65360  0.78140  Biso   1.000  H
  H40      1.0000 0.81610  0.65360  0.71860  Biso   1.000  H
  C69      1.0000 0.70480  0.59780  0.01459  Biso   1.000  C
  C70      1.0000 0.29520  0.59780  0.48541  Biso   1.000  C
  C71      1.0000 0.20480  0.09780  0.01459  Biso   1.000  C
  C72      1.0000 0.79520  0.09780  0.48541  Biso   1.000  C
  C73      1.0000 0.29520  0.40220  0.98541  Biso   1.000  C
  C74      1.0000 0.70480  0.40220  0.51459  Biso   1.000  C
  C75      1.0000 0.79520  0.90220  0.98541  Biso   1.000  C
  C76      1.0000 0.20480  0.90220  0.51459  Biso   1.000  C
  C77      1.0000 0.49550  0.67160  0.97083  Biso   1.000  C
  C78      1.0000 0.50450  0.67160  0.52917  Biso   1.000  C
  C79      1.0000 0.99550  0.17160  0.97083  Biso   1.000  C
  C80      1.0000 0.00450  0.17160  0.52917  Biso   1.000  C
  C81      1.0000 0.50450  0.32840  0.02917  Biso   1.000  C
  C82      1.0000 0.49550  0.32840  0.47083  Biso   1.000  C
  C83      1.0000 0.00450  0.82840  0.02917  Biso   1.000  C
  C84      1.0000 0.99550  0.82840  0.47083  Biso   1.000  C
  C85      1.0000 0.50000  0.21500  0.25000  Biso   1.000  C
  C86      1.0000 0.00000  0.71500  0.25000  Biso   1.000  C
  C87      1.0000 0.50000  0.78500  0.75000  Biso   1.000  C
  C88      1.0000 0.00000  0.28500  0.75000  Biso   1.000  C
  C89      1.0000 0.38770  0.01450  0.23135  Biso   1.000  C
  C90      1.0000 0.61230  0.01450  0.26865  Biso   1.000  C
  C91      1.0000 0.88770  0.51450  0.23135  Biso   1.000  C
  C92      1.0000 0.11230  0.51450  0.26865  Biso   1.000  C
  C93      1.0000 0.61230  0.98550  0.76865  Biso   1.000  C
  C94      1.0000 0.38770  0.98550  0.73135  Biso   1.000  C
  C95      1.0000 0.11230  0.48550  0.76865  Biso   1.000  C
  C96      1.0000 0.88770  0.48550  0.73135  Biso   1.000  C
  H41      1.0000 0.31060  0.05480  0.21880  Biso   1.000  H
  H42      1.0000 0.68940  0.05480  0.28120  Biso   1.000  H
  H43      1.0000 0.81060  0.55480  0.21880  Biso   1.000  H
  H44      1.0000 0.18940  0.55480  0.28120  Biso   1.000  H
  H45      1.0000 0.68940  0.94520  0.78120  Biso   1.000  H
  H46      1.0000 0.31060  0.94520  0.71880  Biso   1.000  H
  H47      1.0000 0.18940  0.44520  0.78120  Biso   1.000  H
  H48      1.0000 0.81060  0.44520  0.71880  Biso   1.000  H
  C97      1.0000 0.67520  0.60550  0.07185  Biso   1.000  C
  C98      1.0000 0.32480  0.60550  0.42815  Biso   1.000  C
  C99      1.0000 0.17520  0.10550  0.07185  Biso   1.000  C
  C100     1.0000 0.82480  0.10550  0.42815  Biso   1.000  C
  C101     1.0000 0.32480  0.39450  0.92815  Biso   1.000  C
  C102     1.0000 0.67520  0.39450  0.57185  Biso   1.000  C
  C103     1.0000 0.82480  0.89450  0.92815  Biso   1.000  C
  C104     1.0000 0.17520  0.89450  0.57185  Biso   1.000  C
  H49      1.0000 0.73580  0.58380  0.10560  Biso   1.000  H
  H50      1.0000 0.26420  0.58380  0.39440  Biso   1.000  H
  H51      1.0000 0.23580  0.08380  0.10560  Biso   1.000  H
  H52      1.0000 0.76420  0.08380  0.39440  Biso   1.000  H
  H53      1.0000 0.26420  0.41620  0.89440  Biso   1.000  H
  H54      1.0000 0.73580  0.41620  0.60560  Biso   1.000  H
  H55      1.0000 0.76420  0.91620  0.89440  Biso   1.000  H
  H56      1.0000 0.23580  0.91620  0.60560  Biso   1.000  H
  C105     1.0000 0.39650  0.70590  0.91678  Biso   1.000  C
  C106     1.0000 0.60350  0.70590  0.58322  Biso   1.000  C
  C107     1.0000 0.89650  0.20590  0.91678  Biso   1.000  C
  C108     1.0000 0.10350  0.20590  0.58322  Biso   1.000  C
  C109     1.0000 0.60350  0.29410  0.08322  Biso   1.000  C
  C110     1.0000 0.39650  0.29410  0.41678  Biso   1.000  C
  C111     1.0000 0.10350  0.79410  0.08322  Biso   1.000  C
  C112     1.0000 0.89650  0.79410  0.41678  Biso   1.000  C
  Cu1      1.0000 0.50000  0.64743  0.25000  Biso   1.000  Cu
  Cu2      1.0000 0.00000  0.14743  0.25000  Biso   1.000  Cu
  Cu3      1.0000 0.50000  0.35257  0.75000  Biso   1.000  Cu
  Cu4      1.0000 0.00000  0.85257  0.75000  Biso   1.000  Cu
  H57      1.0000 0.25290  0.79370  0.90010  Biso   1.000  H
  H58      1.0000 0.74710  0.79370  0.59990  Biso   1.000  H
  H59      1.0000 0.75290  0.29370  0.90010  Biso   1.000  H
  H60      1.0000 0.24710  0.29370  0.59990  Biso   1.000  H
  H61      1.0000 0.74710  0.20630  0.09990  Biso   1.000  H
  H62      1.0000 0.25290  0.20630  0.40010  Biso   1.000  H
  H63      1.0000 0.24710  0.70630  0.09990  Biso   1.000  H
  H64      1.0000 0.75290  0.70630  0.40010  Biso   1.000  H
  H65      1.0000 0.93510  0.54140  0.95390  Biso   1.000  H
  H66      1.0000 0.06490  0.54140  0.54610  Biso   1.000  H
  H67      1.0000 0.43510  0.04140  0.95390  Biso   1.000  H
  H68      1.0000 0.56490  0.04140  0.54610  Biso   1.000  H
  H69      1.0000 0.06490  0.45860  0.04610  Biso   1.000  H
  H70      1.0000 0.93510  0.45860  0.45390  Biso   1.000  H
  H71      1.0000 0.56490  0.95860  0.04610  Biso   1.000  H
  H72      1.0000 0.43510  0.95860  0.45390  Biso   1.000  H
  N1       1.0000 0.50000  0.46780  0.25000  Biso   1.000  N
  N2       1.0000 0.00000  0.96780  0.25000  Biso   1.000  N
  N3       1.0000 0.50000  0.53220  0.75000  Biso   1.000  N
  N4       1.0000 0.00000  0.03220  0.75000  Biso   1.000  N
  N5       1.0000 0.50000  0.82690  0.25000  Biso   1.000  N
  N6       1.0000 0.00000  0.32690  0.25000  Biso   1.000  N
  N7       1.0000 0.50000  0.17310  0.75000  Biso   1.000  N
  N8       1.0000 0.00000  0.67310  0.75000  Biso   1.000  N
  O1       1.0000 0.60680  0.64588  0.18550  Biso   1.000  O
  O2       1.0000 0.39320  0.64588  0.31450  Biso   1.000  O
  O3       1.0000 0.10680  0.14588  0.18550  Biso   1.000  O
  O4       1.0000 0.89320  0.14588  0.31450  Biso   1.000  O
  O5       1.0000 0.39320  0.35412  0.81450  Biso   1.000  O
  O6       1.0000 0.60680  0.35412  0.68550  Biso   1.000  O
  O7       1.0000 0.89320  0.85412  0.81450  Biso   1.000  O
  O8       1.0000 0.10680  0.85412  0.68550  Biso   1.000  O
  O9       1.0000 0.40350  0.65610  0.14310  Biso   1.000  O
  O10      1.0000 0.59650  0.65610  0.35690  Biso   1.000  O
  O11      1.0000 0.90350  0.15610  0.14310  Biso   1.000  O
  O12      1.0000 0.09650  0.15610  0.35690  Biso   1.000  O
  O13      1.0000 0.59650  0.34390  0.85690  Biso   1.000  O
  O14      1.0000 0.40350  0.34390  0.64310  Biso   1.000  O
  O15      1.0000 0.09650  0.84390  0.85690  Biso   1.000  O
  O16      1.0000 0.90350  0.84390  0.64310  Biso   1.000  O
  O17      1.0000 0.39770  0.67330  0.86640  Biso   1.000  O
  O18      1.0000 0.60230  0.67330  0.63360  Biso   1.000  O
  O19      1.0000 0.89770  0.17330  0.86640  Biso   1.000  O
  O20      1.0000 0.10230  0.17330  0.63360  Biso   1.000  O
  O21      1.0000 0.60230  0.32670  0.13360  Biso   1.000  O
  O22      1.0000 0.39770  0.32670  0.36640  Biso   1.000  O
  O23      1.0000 0.10230  0.82670  0.13360  Biso   1.000  O
  O24      1.0000 0.89770  0.82670  0.36640  Biso   1.000  O
  O25      1.0000 0.30790  0.77540  0.93141  Biso   1.000  O
  O26      1.0000 0.69210  0.77540  0.56859  Biso   1.000  O
  O27      1.0000 0.80790  0.27540  0.93141  Biso   1.000  O
  O28      1.0000 0.19210  0.27540  0.56859  Biso   1.000  O
  O29      1.0000 0.69210  0.22460  0.06859  Biso   1.000  O
  O30      1.0000 0.30790  0.22460  0.43141  Biso   1.000  O
  O31      1.0000 0.19210  0.72460  0.06859  Biso   1.000  O
  O32      1.0000 0.80790  0.72460  0.43141  Biso   1.000  O
  O33      1.0000 0.85770  0.55760  0.95545  Biso   1.000  O
  O34      1.0000 0.14230  0.55760  0.54455  Biso   1.000  O
  O35      1.0000 0.35770  0.05760  0.95545  Biso   1.000  O
  O36      1.0000 0.64230  0.05760  0.54455  Biso   1.000  O
  O37      1.0000 0.14230  0.44240  0.04455  Biso   1.000  O
  O38      1.0000 0.85770  0.44240  0.45545  Biso   1.000  O
  O39      1.0000 0.64230  0.94240  0.04455  Biso   1.000  O
  O40      1.0000 0.35770  0.94240  0.45545  Biso   1.000  O
  O41      1.0000 0.91060  0.51950  0.05395  Biso   1.000  O
  O42      1.0000 0.08940  0.51950  0.44605  Biso   1.000  O
  O43      1.0000 0.41060  0.01950  0.05395  Biso   1.000  O
  O44      1.0000 0.58940  0.01950  0.44605  Biso   1.000  O
  O45      1.0000 0.08940  0.48050  0.94605  Biso   1.000  O
  O46      1.0000 0.91060  0.48050  0.55395  Biso   1.000  O
  O47      1.0000 0.58940  0.98050  0.94605  Biso   1.000  O
  O48      1.0000 0.41060  0.98050  0.55395  Biso   1.000  O
