data_image0
_cell_length_a       10.717
_cell_length_b       11.089
_cell_length_c       22.778
_cell_angle_alpha    90
_cell_angle_beta     101.39
_cell_angle_gamma    90

_symmetry_space_group_name_H-M    "P 1"
_symmetry_int_tables_number       1

loop_
  _symmetry_equiv_pos_as_xyz
  'x, y, z'

loop_
  _atom_site_label
  _atom_site_occupancy
  _atom_site_fract_x
  _atom_site_fract_y
  _atom_site_fract_z
  _atom_site_thermal_displace_type
  _atom_site_B_iso_or_equiv
  _atom_site_type_symbol
  Cu1      1.0000 0.50000  0.35230  0.75000  Biso   1.000  Cu
  Cu2      1.0000 0.00000  0.85230  0.75000  Biso   1.000  Cu
  Cu3      1.0000 0.50000  0.64770  0.25000  Biso   1.000  Cu
  Cu4      1.0000 0.00000  0.14770  0.25000  Biso   1.000  Cu
  O1       1.0000 0.39290  0.35380  0.81440  Biso   1.000  O
  O2       1.0000 0.60710  0.35380  0.68560  Biso   1.000  O
  O3       1.0000 0.89290  0.85380  0.81440  Biso   1.000  O
  O4       1.0000 0.10710  0.85380  0.68560  Biso   1.000  O
  O5       1.0000 0.60710  0.64620  0.18560  Biso   1.000  O
  O6       1.0000 0.39290  0.64620  0.31440  Biso   1.000  O
  O7       1.0000 0.10710  0.14620  0.18560  Biso   1.000  O
  O8       1.0000 0.89290  0.14620  0.31440  Biso   1.000  O
  O9       1.0000 0.59680  0.34370  0.85690  Biso   1.000  O
  O10      1.0000 0.40320  0.34370  0.64310  Biso   1.000  O
  O11      1.0000 0.09680  0.84370  0.85690  Biso   1.000  O
  O12      1.0000 0.90320  0.84370  0.64310  Biso   1.000  O
  O13      1.0000 0.40320  0.65630  0.14310  Biso   1.000  O
  O14      1.0000 0.59680  0.65630  0.35690  Biso   1.000  O
  O15      1.0000 0.90320  0.15630  0.14310  Biso   1.000  O
  O16      1.0000 0.09680  0.15630  0.35690  Biso   1.000  O
  O17      1.0000 0.08910  0.48060  0.94600  Biso   1.000  O
  O18      1.0000 0.91090  0.48060  0.55400  Biso   1.000  O
  O19      1.0000 0.58910  0.98060  0.94600  Biso   1.000  O
  O20      1.0000 0.41090  0.98060  0.55400  Biso   1.000  O
  O21      1.0000 0.91090  0.51940  0.05400  Biso   1.000  O
  O22      1.0000 0.08910  0.51940  0.44600  Biso   1.000  O
  O23      1.0000 0.41090  0.01940  0.05400  Biso   1.000  O
  O24      1.0000 0.58910  0.01940  0.44600  Biso   1.000  O
  O25      1.0000 0.14180  0.44240  0.04450  Biso   1.000  O
  O26      1.0000 0.85820  0.44240  0.45550  Biso   1.000  O
  O27      1.0000 0.64180  0.94240  0.04450  Biso   1.000  O
  O28      1.0000 0.35820  0.94240  0.45550  Biso   1.000  O
  O29      1.0000 0.85820  0.55760  0.95550  Biso   1.000  O
  O30      1.0000 0.14180  0.55760  0.54450  Biso   1.000  O
  O31      1.0000 0.35820  0.05760  0.95550  Biso   1.000  O
  O32      1.0000 0.64180  0.05760  0.54450  Biso   1.000  O
  O33      1.0000 0.69270  0.22530  0.06850  Biso   1.000  O
  O34      1.0000 0.30730  0.22530  0.43150  Biso   1.000  O
  O35      1.0000 0.19270  0.72530  0.06850  Biso   1.000  O
  O36      1.0000 0.80730  0.72530  0.43150  Biso   1.000  O
  O37      1.0000 0.30730  0.77470  0.93150  Biso   1.000  O
  O38      1.0000 0.69270  0.77470  0.56850  Biso   1.000  O
  O39      1.0000 0.80730  0.27470  0.93150  Biso   1.000  O
  O40      1.0000 0.19270  0.27470  0.56850  Biso   1.000  O
  O41      1.0000 0.60140  0.32650  0.13360  Biso   1.000  O
  O42      1.0000 0.39860  0.32650  0.36640  Biso   1.000  O
  O43      1.0000 0.10140  0.82650  0.13360  Biso   1.000  O
  O44      1.0000 0.89860  0.82650  0.36640  Biso   1.000  O
  O45      1.0000 0.39860  0.67350  0.86640  Biso   1.000  O
  O46      1.0000 0.60140  0.67350  0.63360  Biso   1.000  O
  O47      1.0000 0.89860  0.17350  0.86640  Biso   1.000  O
  O48      1.0000 0.10140  0.17350  0.63360  Biso   1.000  O
  N1       1.0000 0.50000  0.17280  0.75000  Biso   1.000  N
  N2       1.0000 0.00000  0.67280  0.75000  Biso   1.000  N
  N3       1.0000 0.50000  0.82720  0.25000  Biso   1.000  N
  N4       1.0000 0.00000  0.32720  0.25000  Biso   1.000  N
  N5       1.0000 0.50000  0.53220  0.75000  Biso   1.000  N
  N6       1.0000 0.00000  0.03220  0.75000  Biso   1.000  N
  N7       1.0000 0.50000  0.46780  0.25000  Biso   1.000  N
  N8       1.0000 0.00000  0.96780  0.25000  Biso   1.000  N
  C1       1.0000 0.44480  0.35420  0.92160  Biso   1.000  C
  C2       1.0000 0.55520  0.35420  0.57840  Biso   1.000  C
  C3       1.0000 0.94480  0.85420  0.92160  Biso   1.000  C
  C4       1.0000 0.05520  0.85420  0.57840  Biso   1.000  C
  C5       1.0000 0.55520  0.64580  0.07840  Biso   1.000  C
  C6       1.0000 0.44480  0.64580  0.42160  Biso   1.000  C
  C7       1.0000 0.05520  0.14580  0.07840  Biso   1.000  C
  C8       1.0000 0.94480  0.14580  0.42160  Biso   1.000  C
  C9       1.0000 0.32450  0.39450  0.92830  Biso   1.000  C
  C10      1.0000 0.67550  0.39450  0.57170  Biso   1.000  C
  C11      1.0000 0.82450  0.89450  0.92830  Biso   1.000  C
  C12      1.0000 0.17550  0.89450  0.57170  Biso   1.000  C
  C13      1.0000 0.67550  0.60550  0.07170  Biso   1.000  C
  C14      1.0000 0.32450  0.60550  0.42830  Biso   1.000  C
  C15      1.0000 0.17550  0.10550  0.07170  Biso   1.000  C
  C16      1.0000 0.82450  0.10550  0.42830  Biso   1.000  C
  C17      1.0000 0.29540  0.40220  0.98530  Biso   1.000  C
  C18      1.0000 0.70460  0.40220  0.51470  Biso   1.000  C
  C19      1.0000 0.79540  0.90220  0.98530  Biso   1.000  C
  C20      1.0000 0.20460  0.90220  0.51470  Biso   1.000  C
  C21      1.0000 0.70460  0.59780  0.01470  Biso   1.000  C
  C22      1.0000 0.29540  0.59780  0.48530  Biso   1.000  C
  C23      1.0000 0.20460  0.09780  0.01470  Biso   1.000  C
  C24      1.0000 0.79540  0.09780  0.48530  Biso   1.000  C
  C25      1.0000 0.38580  0.37040  0.03580  Biso   1.000  C
  C26      1.0000 0.61420  0.37040  0.46420  Biso   1.000  C
  C27      1.0000 0.88580  0.87040  0.03580  Biso   1.000  C
  C28      1.0000 0.11420  0.87040  0.46420  Biso   1.000  C
  C29      1.0000 0.61420  0.62960  0.96420  Biso   1.000  C
  C30      1.0000 0.38580  0.62960  0.53580  Biso   1.000  C
  C31      1.0000 0.11420  0.12960  0.96420  Biso   1.000  C
  C32      1.0000 0.88580  0.12960  0.53580  Biso   1.000  C
  C33      1.0000 0.50480  0.32820  0.02920  Biso   1.000  C
  C34      1.0000 0.49520  0.32820  0.47080  Biso   1.000  C
  C35      1.0000 0.00480  0.82820  0.02920  Biso   1.000  C
  C36      1.0000 0.99520  0.82820  0.47080  Biso   1.000  C
  C37      1.0000 0.49520  0.67180  0.97080  Biso   1.000  C
  C38      1.0000 0.50480  0.67180  0.52920  Biso   1.000  C
  C39      1.0000 0.99520  0.17180  0.97080  Biso   1.000  C
  C40      1.0000 0.00480  0.17180  0.52920  Biso   1.000  C
  C41      1.0000 0.53350  0.32020  0.97220  Biso   1.000  C
  C42      1.0000 0.46650  0.32020  0.52780  Biso   1.000  C
  C43      1.0000 0.03350  0.82020  0.97220  Biso   1.000  C
  C44      1.0000 0.96650  0.82020  0.52780  Biso   1.000  C
  C45      1.0000 0.46650  0.67980  0.02780  Biso   1.000  C
  C46      1.0000 0.53350  0.67980  0.47220  Biso   1.000  C
  C47      1.0000 0.96650  0.17980  0.02780  Biso   1.000  C
  C48      1.0000 0.03350  0.17980  0.47220  Biso   1.000  C
  C49      1.0000 0.48120  0.34980  0.86090  Biso   1.000  C
  C50      1.0000 0.51880  0.34980  0.63910  Biso   1.000  C
  C51      1.0000 0.98120  0.84980  0.86090  Biso   1.000  C
  C52      1.0000 0.01880  0.84980  0.63910  Biso   1.000  C
  C53      1.0000 0.51880  0.65020  0.13910  Biso   1.000  C
  C54      1.0000 0.48120  0.65020  0.36090  Biso   1.000  C
  C55      1.0000 0.01880  0.15020  0.13910  Biso   1.000  C
  C56      1.0000 0.98120  0.15020  0.36090  Biso   1.000  C
  C57      1.0000 0.16660  0.44570  0.99190  Biso   1.000  C
  C58      1.0000 0.83340  0.44570  0.50810  Biso   1.000  C
  C59      1.0000 0.66660  0.94570  0.99190  Biso   1.000  C
  C60      1.0000 0.33340  0.94570  0.50810  Biso   1.000  C
  C61      1.0000 0.83340  0.55430  0.00810  Biso   1.000  C
  C62      1.0000 0.16660  0.55430  0.49190  Biso   1.000  C
  C63      1.0000 0.33340  0.05430  0.00810  Biso   1.000  C
  C64      1.0000 0.66660  0.05430  0.49190  Biso   1.000  C
  C65      1.0000 0.60310  0.29440  0.08340  Biso   1.000  C
  C66      1.0000 0.39690  0.29440  0.41660  Biso   1.000  C
  C67      1.0000 0.10310  0.79440  0.08340  Biso   1.000  C
  C68      1.0000 0.89690  0.79440  0.41660  Biso   1.000  C
  C69      1.0000 0.39690  0.70560  0.91660  Biso   1.000  C
  C70      1.0000 0.60310  0.70560  0.58340  Biso   1.000  C
  C71      1.0000 0.89690  0.20560  0.91660  Biso   1.000  C
  C72      1.0000 0.10310  0.20560  0.58340  Biso   1.000  C
  C73      1.0000 0.39170  0.11040  0.73150  Biso   1.000  C
  C74      1.0000 0.60830  0.11040  0.76850  Biso   1.000  C
  C75      1.0000 0.89170  0.61040  0.73150  Biso   1.000  C
  C76      1.0000 0.10830  0.61040  0.76850  Biso   1.000  C
  C77      1.0000 0.60830  0.88960  0.26850  Biso   1.000  C
  C78      1.0000 0.39170  0.88960  0.23150  Biso   1.000  C
  C79      1.0000 0.10830  0.38960  0.26850  Biso   1.000  C
  C80      1.0000 0.89170  0.38960  0.23150  Biso   1.000  C
  C81      1.0000 0.38770  0.98530  0.73150  Biso   1.000  C
  C82      1.0000 0.61230  0.98530  0.76850  Biso   1.000  C
  C83      1.0000 0.88770  0.48530  0.73150  Biso   1.000  C
  C84      1.0000 0.11230  0.48530  0.76850  Biso   1.000  C
  C85      1.0000 0.61230  0.01470  0.26850  Biso   1.000  C
  C86      1.0000 0.38770  0.01470  0.23150  Biso   1.000  C
  C87      1.0000 0.11230  0.51470  0.26850  Biso   1.000  C
  C88      1.0000 0.88770  0.51470  0.23150  Biso   1.000  C
  C89      1.0000 0.50000  0.92000  0.75000  Biso   1.000  C
  C90      1.0000 0.00000  0.42000  0.75000  Biso   1.000  C
  C91      1.0000 0.50000  0.08000  0.25000  Biso   1.000  C
  C92      1.0000 0.00000  0.58000  0.25000  Biso   1.000  C
  C93      1.0000 0.50000  0.78480  0.75000  Biso   1.000  C
  C94      1.0000 0.00000  0.28480  0.75000  Biso   1.000  C
  C95      1.0000 0.50000  0.21520  0.25000  Biso   1.000  C
  C96      1.0000 0.00000  0.71520  0.25000  Biso   1.000  C
  C97      1.0000 0.39890  0.71940  0.71670  Biso   1.000  C
  C98      1.0000 0.60110  0.71940  0.78330  Biso   1.000  C
  C99      1.0000 0.89890  0.21940  0.71670  Biso   1.000  C
  C100     1.0000 0.10110  0.21940  0.78330  Biso   1.000  C
  C101     1.0000 0.60110  0.28060  0.28330  Biso   1.000  C
  C102     1.0000 0.39890  0.28060  0.21670  Biso   1.000  C
  C103     1.0000 0.10110  0.78060  0.28330  Biso   1.000  C
  C104     1.0000 0.89890  0.78060  0.21670  Biso   1.000  C
  C105     1.0000 0.40300  0.59440  0.71770  Biso   1.000  C
  C106     1.0000 0.59700  0.59440  0.78230  Biso   1.000  C
  C107     1.0000 0.90300  0.09440  0.71770  Biso   1.000  C
  C108     1.0000 0.09700  0.09440  0.78230  Biso   1.000  C
  C109     1.0000 0.59700  0.40560  0.28230  Biso   1.000  C
  C110     1.0000 0.40300  0.40560  0.21770  Biso   1.000  C
  C111     1.0000 0.09700  0.90560  0.28230  Biso   1.000  C
  C112     1.0000 0.90300  0.90560  0.21770  Biso   1.000  C
