data_image0
_cell_length_a       10.756
_cell_length_b       11.397
_cell_length_c       17.365
_cell_angle_alpha    103.58
_cell_angle_beta     98.407
_cell_angle_gamma    104.257

_symmetry_space_group_name_H-M    "P 1"
_symmetry_int_tables_number       1

loop_
  _symmetry_equiv_pos_as_xyz
  'x, y, z'

loop_
  _atom_site_label
  _atom_site_occupancy
  _atom_site_fract_x
  _atom_site_fract_y
  _atom_site_fract_z
  _atom_site_thermal_displace_type
  _atom_site_B_iso_or_equiv
  _atom_site_type_symbol
  Cu1      1.0000 0.06040  0.07581  0.07277  Biso   1.000  Cu
  Cu2      1.0000 0.93960  0.92419  0.92723  Biso   1.000  Cu
  O1       1.0000 0.97160  0.94210  0.11626  Biso   1.000  O
  O2       1.0000 0.02840  0.05790  0.88374  Biso   1.000  O
  O3       1.0000 0.86820  0.81450  0.99258  Biso   1.000  O
  O4       1.0000 0.13180  0.18550  0.00742  Biso   1.000  O
  O5       1.0000 0.20200  0.99760  0.06048  Biso   1.000  O
  O6       1.0000 0.79800  0.00240  0.93952  Biso   1.000  O
  O7       1.0000 0.09990  0.87310  0.93623  Biso   1.000  O
  O8       1.0000 0.90010  0.12690  0.06377  Biso   1.000  O
  N1       1.0000 0.15780  0.22140  0.18649  Biso   1.000  N
  N2       1.0000 0.84220  0.77860  0.81351  Biso   1.000  N
  N3       1.0000 0.45770  0.82400  0.45720  Biso   1.000  N
  N4       1.0000 0.54230  0.17600  0.54280  Biso   1.000  N
  C1       1.0000 0.08970  0.27760  0.23380  Biso   1.000  C
  C2       1.0000 0.91030  0.72240  0.76620  Biso   1.000  C
  H1       1.0000 0.99890  0.23690  0.22730  Biso   1.000  H
  H2       1.0000 0.00110  0.76310  0.77270  Biso   1.000  H
  C3       1.0000 0.14630  0.39360  0.29250  Biso   1.000  C
  C4       1.0000 0.85370  0.60640  0.70750  Biso   1.000  C
  H3       1.0000 0.09500  0.43050  0.32540  Biso   1.000  H
  H4       1.0000 0.90500  0.56950  0.67460  Biso   1.000  H
  C5       1.0000 0.27700  0.45370  0.30200  Biso   1.000  C
  C6       1.0000 0.72300  0.54630  0.69800  Biso   1.000  C
  C7       1.0000 0.35070  0.39250  0.25640  Biso   1.000  C
  C8       1.0000 0.64930  0.60750  0.74360  Biso   1.000  C
  H5       1.0000 0.44280  0.42860  0.26390  Biso   1.000  H
  H6       1.0000 0.55720  0.57140  0.73610  Biso   1.000  H
  C9       1.0000 0.28580  0.27750  0.20000  Biso   1.000  C
  C10      1.0000 0.71420  0.72250  0.80000  Biso   1.000  C
  H7       1.0000 0.33610  0.23590  0.16880  Biso   1.000  H
  H8       1.0000 0.66390  0.76410  0.83120  Biso   1.000  H
  C11      1.0000 0.33940  0.58370  0.35730  Biso   1.000  C
  C12      1.0000 0.66060  0.41630  0.64270  Biso   1.000  C
  C13      1.0000 0.31260  0.62050  0.43350  Biso   1.000  C
  C14      1.0000 0.68740  0.37950  0.56650  Biso   1.000  C
  H9       1.0000 0.25240  0.56260  0.45180  Biso   1.000  H
  H10      1.0000 0.74760  0.43740  0.54820  Biso   1.000  H
  C15      1.0000 0.37380  0.74150  0.48250  Biso   1.000  C
  C16      1.0000 0.62620  0.25850  0.51750  Biso   1.000  C
  H11      1.0000 0.35610  0.76650  0.53500  Biso   1.000  H
  H12      1.0000 0.64390  0.23350  0.46500  Biso   1.000  H
  C17      1.0000 0.48230  0.79150  0.38260  Biso   1.000  C
  C18      1.0000 0.51770  0.20850  0.61740  Biso   1.000  C
  H13      1.0000 0.54090  0.85170  0.36500  Biso   1.000  H
  H14      1.0000 0.45910  0.14830  0.63500  Biso   1.000  H
  C19      1.0000 0.42380  0.67280  0.33210  Biso   1.000  C
  C20      1.0000 0.57620  0.32720  0.66790  Biso   1.000  C
  H15      1.0000 0.44090  0.65110  0.27920  Biso   1.000  H
  H16      1.0000 0.55910  0.34890  0.72080  Biso   1.000  H
  C21      1.0000 0.52950  0.95240  0.51250  Biso   1.000  C
  C22      1.0000 0.47050  0.04760  0.48750  Biso   1.000  C
  H17      1.0000 0.62350  0.97320  0.51000  Biso   1.000  H
  H18      1.0000 0.37650  0.02680  0.49000  Biso   1.000  H
  H19      1.0000 0.52330  0.95420  0.56910  Biso   1.000  H
  H20      1.0000 0.47670  0.04580  0.43090  Biso   1.000  H
  C23      1.0000 0.88950  0.84350  0.06850  Biso   1.000  C
  C24      1.0000 0.11050  0.15650  0.93150  Biso   1.000  C
  C25      1.0000 0.80980  0.75620  0.10680  Biso   1.000  C
  C26      1.0000 0.19020  0.24380  0.89320  Biso   1.000  C
  C27      1.0000 0.73000  0.63720  0.05930  Biso   1.000  C
  C28      1.0000 0.27000  0.36280  0.94070  Biso   1.000  C
  H21      1.0000 0.73000  0.60970  0.00330  Biso   1.000  H
  H22      1.0000 0.27000  0.39030  0.99670  Biso   1.000  H
  C29      1.0000 0.65110  0.56000  0.09450  Biso   1.000  C
  C30      1.0000 0.34890  0.44000  0.90550  Biso   1.000  C
  H23      1.0000 0.59830  0.47810  0.06280  Biso   1.000  H
  H24      1.0000 0.40170  0.52190  0.93720  Biso   1.000  H
  C31      1.0000 0.64840  0.60040  0.17460  Biso   1.000  C
  C32      1.0000 0.35160  0.39960  0.82540  Biso   1.000  C
  H25      1.0000 0.59240  0.54680  0.19780  Biso   1.000  H
  H26      1.0000 0.40760  0.45320  0.80220  Biso   1.000  H
  C33      1.0000 0.72510  0.71710  0.22200  Biso   1.000  C
  C34      1.0000 0.27490  0.28290  0.77800  Biso   1.000  C
  H27      1.0000 0.72300  0.74460  0.27770  Biso   1.000  H
  H28      1.0000 0.27700  0.25540  0.72230  Biso   1.000  H
  C35      1.0000 0.80560  0.79410  0.18740  Biso   1.000  C
  C36      1.0000 0.19440  0.20590  0.81260  Biso   1.000  C
  H29      1.0000 0.85920  0.87510  0.22000  Biso   1.000  H
  H30      1.0000 0.14080  0.12490  0.78000  Biso   1.000  H
  C37      1.0000 0.19670  0.91600  0.99610  Biso   1.000  C
  C38      1.0000 0.80330  0.08400  0.00390  Biso   1.000  C
  C39      1.0000 0.31260  0.86870  0.98810  Biso   1.000  C
  C40      1.0000 0.68740  0.13130  0.01190  Biso   1.000  C
  C41      1.0000 0.41300  0.89370  0.05430  Biso   1.000  C
  C42      1.0000 0.58700  0.10630  0.94570  Biso   1.000  C
  H31      1.0000 0.40680  0.94020  0.10590  Biso   1.000  H
  H32      1.0000 0.59320  0.05980  0.89410  Biso   1.000  H
  C43      1.0000 0.52130  0.85320  0.04720  Biso   1.000  C
  C44      1.0000 0.47870  0.14680  0.95280  Biso   1.000  C
  H33      1.0000 0.58900  0.87050  0.09360  Biso   1.000  H
  H34      1.0000 0.41100  0.12950  0.90640  Biso   1.000  H
  C45      1.0000 0.53180  0.78720  0.97230  Biso   1.000  C
  C46      1.0000 0.46820  0.21280  0.02770  Biso   1.000  C
  H35      1.0000 0.60750  0.75990  0.96670  Biso   1.000  H
  H36      1.0000 0.39250  0.24010  0.03330  Biso   1.000  H
  C47      1.0000 0.43180  0.76060  0.90520  Biso   1.000  C
  C48      1.0000 0.56820  0.23940  0.09480  Biso   1.000  C
  H37      1.0000 0.43900  0.71550  0.85340  Biso   1.000  H
  H38      1.0000 0.56100  0.28450  0.14660  Biso   1.000  H
  C49      1.0000 0.32260  0.79940  0.91340  Biso   1.000  C
  C50      1.0000 0.67740  0.20060  0.08660  Biso   1.000  C
  H39      1.0000 0.25300  0.77860  0.86750  Biso   1.000  H
  H40      1.0000 0.74700  0.22140  0.13250  Biso   1.000  H
  S1       1.0000 0.23962  0.55262  0.64772  Biso   1.000  S
  S2       1.0000 0.76038  0.44738  0.35228  Biso   1.000  S
  O9       1.0000 0.33160  0.48370  0.62570  Biso   1.000  O
  O10      1.0000 0.66840  0.51630  0.37430  Biso   1.000  O
  O11      1.0000 0.29350  0.64130  0.72550  Biso   1.000  O
  O12      1.0000 0.70650  0.35870  0.27450  Biso   1.000  O
  O13      1.0000 0.19220  0.60390  0.58600  Biso   1.000  O
  O14      1.0000 0.80780  0.39610  0.41400  Biso   1.000  O
  O15      1.0000 0.85610  0.14270  0.53212  Biso   1.000  O
  O16      1.0000 0.14390  0.85730  0.46788  Biso   1.000  O
  O17      1.0000 0.69020  0.03730  0.37099  Biso   1.000  O
  O18      1.0000 0.30980  0.96270  0.62901  Biso   1.000  O
  O19      1.0000 0.44130  0.98160  0.27919  Biso   1.000  O
  O20      1.0000 0.55870  0.01840  0.72081  Biso   1.000  O
  O21      1.0000 0.79880  0.14490  0.67304  Biso   1.000  O
  O22      1.0000 0.20120  0.85510  0.32696  Biso   1.000  O
  C51      1.0000 0.89890  0.24390  0.67180  Biso   1.000  C
  C52      1.0000 0.10110  0.75610  0.32820  Biso   1.000  C
  C53      1.0000 0.96990  0.34370  0.73820  Biso   1.000  C
  C54      1.0000 0.03010  0.65630  0.26180  Biso   1.000  C
  H41      1.0000 0.94800  0.34700  0.78960  Biso   1.000  H
  H42      1.0000 0.05200  0.65300  0.21040  Biso   1.000  H
  C55      1.0000 0.07180  0.43830  0.73160  Biso   1.000  C
  C56      1.0000 0.92820  0.56170  0.26840  Biso   1.000  C
  H43      1.0000 0.12040  0.50500  0.77850  Biso   1.000  H
  H44      1.0000 0.87960  0.49500  0.22150  Biso   1.000  H
  C57      1.0000 0.10350  0.43720  0.65790  Biso   1.000  C
  C58      1.0000 0.89650  0.56280  0.34210  Biso   1.000  C
  C59      1.0000 0.03150  0.34010  0.58990  Biso   1.000  C
  C60      1.0000 0.96850  0.65990  0.41010  Biso   1.000  C
  H45      1.0000 0.05160  0.34020  0.53850  Biso   1.000  H
  H46      1.0000 0.94840  0.65980  0.46150  Biso   1.000  H
  C61      1.0000 0.93090  0.24290  0.59620  Biso   1.000  C
  C62      1.0000 0.06910  0.75710  0.40380  Biso   1.000  C
  C63      1.0000 0.90220  0.13200  0.45710  Biso   1.000  C
  C64      1.0000 0.09780  0.86800  0.54290  Biso   1.000  C
  H47      1.0000 0.90280  0.20790  0.43860  Biso   1.000  H
  H48      1.0000 0.09720  0.79210  0.56140  Biso   1.000  H
  H49      1.0000 0.99290  0.12520  0.46580  Biso   1.000  H
  H50      1.0000 0.00710  0.87480  0.53420  Biso   1.000  H
  C65      1.0000 0.81610  0.02160  0.39700  Biso   1.000  C
  C66      1.0000 0.18390  0.97840  0.60300  Biso   1.000  C
  H51      1.0000 0.85650  0.00310  0.34960  Biso   1.000  H
  H52      1.0000 0.14350  0.99690  0.65040  Biso   1.000  H
  H53      1.0000 0.80460  0.94870  0.41980  Biso   1.000  H
  H54      1.0000 0.19540  0.05130  0.58020  Biso   1.000  H
  C67      1.0000 0.66940  0.06870  0.29620  Biso   1.000  C
  C68      1.0000 0.33060  0.93130  0.70380  Biso   1.000  C
  H55      1.0000 0.67210  0.99840  0.25110  Biso   1.000  H
  H56      1.0000 0.32790  0.00160  0.74890  Biso   1.000  H
  H57      1.0000 0.73970  0.14490  0.29840  Biso   1.000  H
  H58      1.0000 0.26030  0.85510  0.70160  Biso   1.000  H
  C69      1.0000 0.53980  0.09260  0.28200  Biso   1.000  C
  C70      1.0000 0.46020  0.90740  0.71800  Biso   1.000  C
  H59      1.0000 0.53760  0.16420  0.32630  Biso   1.000  H
  H60      1.0000 0.46240  0.83580  0.67370  Biso   1.000  H
  H61      1.0000 0.52420  0.11410  0.23010  Biso   1.000  H
  H62      1.0000 0.47580  0.88590  0.76990  Biso   1.000  H
  C71      1.0000 0.31210  0.99230  0.25830  Biso   1.000  C
  C72      1.0000 0.68790  0.00770  0.74170  Biso   1.000  C
  H63      1.0000 0.30140  0.01630  0.20710  Biso   1.000  H
  H64      1.0000 0.69860  0.98370  0.79290  Biso   1.000  H
  H65      1.0000 0.29850  0.05890  0.30150  Biso   1.000  H
  H66      1.0000 0.70150  0.94110  0.69850  Biso   1.000  H
  C73      1.0000 0.78670  0.13030  0.75160  Biso   1.000  C
  C74      1.0000 0.21330  0.86970  0.24840  Biso   1.000  C
  H67      1.0000 0.87260  0.13230  0.78240  Biso   1.000  H
  H68      1.0000 0.12740  0.86770  0.21760  Biso   1.000  H
  H69      1.0000 0.75870  0.20050  0.78230  Biso   1.000  H
  H70      1.0000 0.24130  0.79950  0.21770  Biso   1.000  H
  O23      1.0000 0.28260  0.24430  0.52440  Biso   1.000  O
  O24      1.0000 0.71740  0.75570  0.47560  Biso   1.000  O
  H71      1.0000 0.29680  0.31510  0.55910  Biso   1.000  H
  H72      1.0000 0.70320  0.68490  0.44090  Biso   1.000  H
  C75      1.0000 0.26700  0.26100  0.44750  Biso   1.000  C
  C76      1.0000 0.73300  0.73900  0.55250  Biso   1.000  C
  H73      1.0000 0.20120  0.30600  0.44080  Biso   1.000  H
  H74      1.0000 0.79880  0.69400  0.55920  Biso   1.000  H
  H75      1.0000 0.23770  0.17860  0.40680  Biso   1.000  H
  H76      1.0000 0.76230  0.82140  0.59320  Biso   1.000  H
  H77      1.0000 0.35100  0.31040  0.44060  Biso   1.000  H
  H78      1.0000 0.64900  0.68960  0.55940  Biso   1.000  H
  O25      1.0000 0.26330  0.57420  0.14130  Biso   1.000  O
  O26      1.0000 0.73670  0.42580  0.85870  Biso   1.000  O
  N5       1.0000 0.07740  0.51890  0.04510  Biso   1.000  N
  N6       1.0000 0.92260  0.48110  0.95490  Biso   1.000  N
  C77      1.0000 0.06120  0.58880  0.98650  Biso   1.000  C
  C78      1.0000 0.93880  0.41120  0.01350  Biso   1.000  C
  H79      1.0000 0.97220  0.55340  0.95240  Biso   1.000  H
  H80      1.0000 0.02780  0.44660  0.04760  Biso   1.000  H
  H81      1.0000 0.12560  0.58290  0.95230  Biso   1.000  H
  H82      1.0000 0.87440  0.41710  0.04770  Biso   1.000  H
  H83      1.0000 0.07490  0.67760  0.01510  Biso   1.000  H
  H84      1.0000 0.92510  0.32240  0.98490  Biso   1.000  H
  C79      1.0000 0.15500  0.49700  0.10730  Biso   1.000  C
  C80      1.0000 0.84500  0.50300  0.89270  Biso   1.000  C
  H85      1.0000 0.12560  0.42270  0.12400  Biso   1.000  H
  H86      1.0000 0.87440  0.57730  0.87600  Biso   1.000  H
  C81      1.0000 0.77400  0.40500  0.91200  Biso   1.000  C
  C82      1.0000 0.22600  0.59500  0.08800  Biso   1.000  C
  H87      1.0000 0.72160  0.34530  0.93400  Biso   1.000  H
  H88      1.0000 0.27840  0.65470  0.06600  Biso   1.000  H
