data_image0
_cell_length_a       7.84
_cell_length_b       11.659
_cell_length_c       22.843
_cell_angle_alpha    90
_cell_angle_beta     96.388
_cell_angle_gamma    90

_symmetry_space_group_name_H-M    "P 1"
_symmetry_int_tables_number       1

loop_
  _symmetry_equiv_pos_as_xyz
  'x, y, z'

loop_
  _atom_site_label
  _atom_site_occupancy
  _atom_site_fract_x
  _atom_site_fract_y
  _atom_site_fract_z
  _atom_site_thermal_displace_type
  _atom_site_B_iso_or_equiv
  _atom_site_type_symbol
  Cu1      1.0000 0.50000  0.00000  0.50000  Biso   1.000  Cu
  Cu2      1.0000 0.50000  0.50000  0.00000  Biso   1.000  Cu
  Cu3      1.0000 0.50000  0.50000  0.50000  Biso   1.000  Cu
  Cu4      1.0000 0.50000  0.00000  0.00000  Biso   1.000  Cu
  O1       1.0000 0.29040  0.08370  0.47850  Biso   1.000  O
  O2       1.0000 0.29040  0.41630  0.97850  Biso   1.000  O
  O3       1.0000 0.70960  0.91630  0.52150  Biso   1.000  O
  O4       1.0000 0.70960  0.58370  0.02150  Biso   1.000  O
  O5       1.0000 0.55300  0.99050  0.41920  Biso   1.000  O
  O6       1.0000 0.55300  0.50950  0.91920  Biso   1.000  O
  O7       1.0000 0.44700  0.00950  0.58080  Biso   1.000  O
  O8       1.0000 0.44700  0.49050  0.08080  Biso   1.000  O
  O9       1.0000 0.26040  0.51180  0.46977  Biso   1.000  O
  O10      1.0000 0.26040  0.98820  0.96977  Biso   1.000  O
  O11      1.0000 0.73960  0.48820  0.53023  Biso   1.000  O
  O12      1.0000 0.73960  0.01180  0.03023  Biso   1.000  O
  O13      1.0000 0.55600  0.41440  0.43336  Biso   1.000  O
  O14      1.0000 0.55600  0.08560  0.93336  Biso   1.000  O
  O15      1.0000 0.44400  0.58560  0.56664  Biso   1.000  O
  O16      1.0000 0.44400  0.91440  0.06664  Biso   1.000  O
  N1       1.0000 0.58280  0.69080  0.44208  Biso   1.000  N
  N2       1.0000 0.58280  0.80920  0.94208  Biso   1.000  N
  N3       1.0000 0.41720  0.30920  0.55792  Biso   1.000  N
  N4       1.0000 0.41720  0.19080  0.05792  Biso   1.000  N
  N5       1.0000 0.33030  0.81270  0.48677  Biso   1.000  N
  N6       1.0000 0.33030  0.68730  0.98677  Biso   1.000  N
  N7       1.0000 0.66970  0.18730  0.51323  Biso   1.000  N
  N8       1.0000 0.66970  0.31270  0.01323  Biso   1.000  N
  F1       1.0000 0.04230  0.23790  0.45968  Biso   1.000  F
  F2       1.0000 0.04230  0.26210  0.95968  Biso   1.000  F
  F3       1.0000 0.95770  0.76210  0.54032  Biso   1.000  F
  F4       1.0000 0.95770  0.73790  0.04032  Biso   1.000  F
  F5       1.0000 0.99750  0.19370  0.36909  Biso   1.000  F
  F6       1.0000 0.99750  0.30630  0.86909  Biso   1.000  F
  F7       1.0000 0.00250  0.80630  0.63091  Biso   1.000  F
  F8       1.0000 0.00250  0.69370  0.13091  Biso   1.000  F
  F9       1.0000 0.94040  0.07370  0.43475  Biso   1.000  F
  F10      1.0000 0.94040  0.42630  0.93475  Biso   1.000  F
  F11      1.0000 0.05960  0.92630  0.56525  Biso   1.000  F
  F12      1.0000 0.05960  0.57370  0.06525  Biso   1.000  F
  F13      1.0000 0.63640  0.25215  0.35921  Biso   1.000  F
  F14      1.0000 0.63640  0.24785  0.85921  Biso   1.000  F
  F15      1.0000 0.36360  0.74785  0.64079  Biso   1.000  F
  F16      1.0000 0.36360  0.75215  0.14079  Biso   1.000  F
  F17      1.0000 0.64100  0.41610  0.31763  Biso   1.000  F
  F18      1.0000 0.64100  0.08390  0.81763  Biso   1.000  F
  F19      1.0000 0.35900  0.58390  0.68237  Biso   1.000  F
  F20      1.0000 0.35900  0.91610  0.18237  Biso   1.000  F
  F21      1.0000 0.43140  0.30140  0.29469  Biso   1.000  F
  F22      1.0000 0.43140  0.19860  0.79469  Biso   1.000  F
  F23      1.0000 0.56860  0.69860  0.70531  Biso   1.000  F
  F24      1.0000 0.56860  0.80140  0.20531  Biso   1.000  F
  F25      1.0000 0.94380  0.72870  0.24880  Biso   1.000  F
  F26      1.0000 0.94380  0.77130  0.74880  Biso   1.000  F
  F27      1.0000 0.05620  0.27130  0.75120  Biso   1.000  F
  F28      1.0000 0.05620  0.22870  0.25120  Biso   1.000  F
  F29      1.0000 0.95980  0.90690  0.27760  Biso   1.000  F
  F30      1.0000 0.95980  0.59310  0.77760  Biso   1.000  F
  F31      1.0000 0.04020  0.09310  0.72240  Biso   1.000  F
  F32      1.0000 0.04020  0.40690  0.22240  Biso   1.000  F
  F33      1.0000 0.84300  0.77910  0.33010  Biso   1.000  F
  F34      1.0000 0.84300  0.72090  0.83010  Biso   1.000  F
  F35      1.0000 0.15700  0.22090  0.66990  Biso   1.000  F
  F36      1.0000 0.15700  0.27910  0.16990  Biso   1.000  F
  F37      1.0000 0.99730  0.86670  0.25120  Biso   1.000  F
  F38      1.0000 0.99730  0.63330  0.75120  Biso   1.000  F
  F39      1.0000 0.00270  0.13330  0.74880  Biso   1.000  F
  F40      1.0000 0.00270  0.36670  0.24880  Biso   1.000  F
  F41      1.0000 0.84150  0.84180  0.32350  Biso   1.000  F
  F42      1.0000 0.84150  0.65820  0.82350  Biso   1.000  F
  F43      1.0000 0.15850  0.15820  0.67650  Biso   1.000  F
  F44      1.0000 0.15850  0.34180  0.17650  Biso   1.000  F
  F45      1.0000 0.92030  0.69450  0.27430  Biso   1.000  F
  F46      1.0000 0.92030  0.80550  0.77430  Biso   1.000  F
  F47      1.0000 0.07970  0.30550  0.72570  Biso   1.000  F
  F48      1.0000 0.07970  0.19450  0.22570  Biso   1.000  F
  F49      1.0000 0.98370  0.77960  0.23884  Biso   1.000  F
  F50      1.0000 0.98370  0.72040  0.73884  Biso   1.000  F
  F51      1.0000 0.01630  0.22040  0.76116  Biso   1.000  F
  F52      1.0000 0.01630  0.27960  0.26116  Biso   1.000  F
  F53      1.0000 0.94120  0.90970  0.30410  Biso   1.000  F
  F54      1.0000 0.94120  0.59030  0.80410  Biso   1.000  F
  F55      1.0000 0.05880  0.09030  0.69590  Biso   1.000  F
  F56      1.0000 0.05880  0.40970  0.19590  Biso   1.000  F
  F57      1.0000 0.83360  0.73860  0.31090  Biso   1.000  F
  F58      1.0000 0.83360  0.76140  0.81090  Biso   1.000  F
  F59      1.0000 0.16640  0.26140  0.68910  Biso   1.000  F
  F60      1.0000 0.16640  0.23860  0.18910  Biso   1.000  F
  C1       1.0000 0.23100  0.10150  0.42539  Biso   1.000  C
  C2       1.0000 0.23100  0.39850  0.92539  Biso   1.000  C
  C3       1.0000 0.76900  0.89850  0.57461  Biso   1.000  C
  C4       1.0000 0.76900  0.60150  0.07461  Biso   1.000  C
  C5       1.0000 0.30150  0.07870  0.37507  Biso   1.000  C
  C6       1.0000 0.30150  0.42130  0.87507  Biso   1.000  C
  C7       1.0000 0.69850  0.92130  0.62493  Biso   1.000  C
  C8       1.0000 0.69850  0.57870  0.12493  Biso   1.000  C
  H1       1.0000 0.24090  0.10070  0.33900  Biso   1.000  H
  H2       1.0000 0.24090  0.39930  0.83900  Biso   1.000  H
  H3       1.0000 0.75910  0.89930  0.66100  Biso   1.000  H
  H4       1.0000 0.75910  0.60070  0.16100  Biso   1.000  H
  C9       1.0000 0.46150  0.02330  0.37414  Biso   1.000  C
  C10      1.0000 0.46150  0.47670  0.87414  Biso   1.000  C
  C11      1.0000 0.53850  0.97670  0.62586  Biso   1.000  C
  C12      1.0000 0.53850  0.52330  0.12586  Biso   1.000  C
  C13      1.0000 0.52620  0.99950  0.31620  Biso   1.000  C
  C14      1.0000 0.52620  0.50050  0.81620  Biso   1.000  C
  C15      1.0000 0.47380  0.00050  0.68380  Biso   1.000  C
  C16      1.0000 0.47380  0.49950  0.18380  Biso   1.000  C
  H5       1.0000 0.64990  0.00830  0.32010  Biso   1.000  H
  H6       1.0000 0.64990  0.49170  0.82010  Biso   1.000  H
  H7       1.0000 0.35010  0.99170  0.67990  Biso   1.000  H
  H8       1.0000 0.35010  0.50830  0.17990  Biso   1.000  H
  H9       1.0000 0.47440  0.05310  0.28690  Biso   1.000  H
  H10      1.0000 0.47440  0.44690  0.78690  Biso   1.000  H
  H11      1.0000 0.52560  0.94690  0.71310  Biso   1.000  H
  H12      1.0000 0.52560  0.55310  0.21310  Biso   1.000  H
  H13      1.0000 0.49610  0.92170  0.30400  Biso   1.000  H
  H14      1.0000 0.49610  0.57830  0.80400  Biso   1.000  H
  H15      1.0000 0.50390  0.07830  0.69600  Biso   1.000  H
  H16      1.0000 0.50390  0.42170  0.19600  Biso   1.000  H
  C17      1.0000 0.05130  0.15270  0.42132  Biso   1.000  C
  C18      1.0000 0.05130  0.34730  0.92132  Biso   1.000  C
  C19      1.0000 0.94870  0.84730  0.57868  Biso   1.000  C
  C20      1.0000 0.94870  0.65270  0.07868  Biso   1.000  C
  C21      1.0000 0.45020  0.39400  0.38852  Biso   1.000  C
  C22      1.0000 0.45020  0.10600  0.88852  Biso   1.000  C
  C23      1.0000 0.54980  0.60600  0.61148  Biso   1.000  C
  C24      1.0000 0.54980  0.89400  0.11148  Biso   1.000  C
  C25      1.0000 0.27880  0.41680  0.37981  Biso   1.000  C
  C26      1.0000 0.27880  0.08320  0.87981  Biso   1.000  C
  C27      1.0000 0.72120  0.58320  0.62019  Biso   1.000  C
  C28      1.0000 0.72120  0.91680  0.12019  Biso   1.000  C
  H17      1.0000 0.21630  0.39210  0.34460  Biso   1.000  H
  H18      1.0000 0.21630  0.10790  0.84460  Biso   1.000  H
  H19      1.0000 0.78370  0.60790  0.65540  Biso   1.000  H
  H20      1.0000 0.78370  0.89210  0.15540  Biso   1.000  H
  C29      1.0000 0.19070  0.47580  0.42119  Biso   1.000  C
  C30      1.0000 0.19070  0.02420  0.92119  Biso   1.000  C
  C31      1.0000 0.80930  0.52420  0.57881  Biso   1.000  C
  C32      1.0000 0.80930  0.97580  0.07881  Biso   1.000  C
  C33      1.0000 0.00320  0.49970  0.40755  Biso   1.000  C
  C34      1.0000 0.00320  0.00030  0.90755  Biso   1.000  C
  C35      1.0000 0.99680  0.50030  0.59245  Biso   1.000  C
  C36      1.0000 0.99680  0.99970  0.09245  Biso   1.000  C
  H21      1.0000 0.93850  0.44660  0.42920  Biso   1.000  H
  H22      1.0000 0.93850  0.05340  0.92920  Biso   1.000  H
  H23      1.0000 0.06150  0.55340  0.57080  Biso   1.000  H
  H24      1.0000 0.06150  0.94660  0.07080  Biso   1.000  H
  H25      1.0000 0.97020  0.49030  0.36560  Biso   1.000  H
  H26      1.0000 0.97020  0.00970  0.86560  Biso   1.000  H
  H27      1.0000 0.02980  0.50970  0.63440  Biso   1.000  H
  H28      1.0000 0.02980  0.99030  0.13440  Biso   1.000  H
  H29      1.0000 0.97940  0.57770  0.41900  Biso   1.000  H
  H30      1.0000 0.97940  0.92230  0.91900  Biso   1.000  H
  H31      1.0000 0.02060  0.42230  0.58100  Biso   1.000  H
  H32      1.0000 0.02060  0.07770  0.08100  Biso   1.000  H
  C37      1.0000 0.53810  0.33930  0.33968  Biso   1.000  C
  C38      1.0000 0.53810  0.16070  0.83968  Biso   1.000  C
  C39      1.0000 0.46190  0.66070  0.66032  Biso   1.000  C
  C40      1.0000 0.46190  0.83930  0.16032  Biso   1.000  C
  C41      1.0000 0.43760  0.72010  0.40383  Biso   1.000  C
  C42      1.0000 0.43760  0.77990  0.90383  Biso   1.000  C
  C43      1.0000 0.56240  0.27990  0.59617  Biso   1.000  C
  C44      1.0000 0.56240  0.22010  0.09617  Biso   1.000  C
  C45      1.0000 0.30430  0.77690  0.42796  Biso   1.000  C
  C46      1.0000 0.30430  0.72310  0.92796  Biso   1.000  C
  C47      1.0000 0.69570  0.22310  0.57204  Biso   1.000  C
  C48      1.0000 0.69570  0.27690  0.07204  Biso   1.000  C
  C49      1.0000 0.15610  0.80130  0.39203  Biso   1.000  C
  C50      1.0000 0.15610  0.69870  0.89203  Biso   1.000  C
  C51      1.0000 0.84390  0.19870  0.60797  Biso   1.000  C
  C52      1.0000 0.84390  0.30130  0.10797  Biso   1.000  C
  H33      1.0000 0.06670  0.84070  0.40750  Biso   1.000  H
  H34      1.0000 0.06670  0.65930  0.90750  Biso   1.000  H
  H35      1.0000 0.93330  0.15930  0.59250  Biso   1.000  H
  H36      1.0000 0.93330  0.34070  0.09250  Biso   1.000  H
  C53      1.0000 0.13640  0.76850  0.33310  Biso   1.000  C
  C54      1.0000 0.13640  0.73150  0.83310  Biso   1.000  C
  C55      1.0000 0.86360  0.23150  0.66690  Biso   1.000  C
  C56      1.0000 0.86360  0.26850  0.16690  Biso   1.000  C
  C57      1.0000 0.26810  0.71210  0.30985  Biso   1.000  C
  C58      1.0000 0.26810  0.78790  0.80985  Biso   1.000  C
  C59      1.0000 0.73190  0.28790  0.69015  Biso   1.000  C
  C60      1.0000 0.73190  0.21210  0.19015  Biso   1.000  C
  H37      1.0000 0.25580  0.69000  0.27000  Biso   1.000  H
  H38      1.0000 0.25580  0.81000  0.77000  Biso   1.000  H
  H39      1.0000 0.74420  0.31000  0.73000  Biso   1.000  H
  H40      1.0000 0.74420  0.19000  0.23000  Biso   1.000  H
  C61      1.0000 0.41730  0.68850  0.34528  Biso   1.000  C
  C62      1.0000 0.41730  0.81150  0.84528  Biso   1.000  C
  C63      1.0000 0.58270  0.31150  0.65472  Biso   1.000  C
  C64      1.0000 0.58270  0.18850  0.15472  Biso   1.000  C
  H41      1.0000 0.50710  0.65020  0.32930  Biso   1.000  H
  H42      1.0000 0.50710  0.84980  0.82930  Biso   1.000  H
  H43      1.0000 0.49290  0.34980  0.67070  Biso   1.000  H
  H44      1.0000 0.49290  0.15020  0.17070  Biso   1.000  H
  C65      1.0000 0.96730  0.79790  0.29564  Biso   1.000  C
  C66      1.0000 0.96730  0.70210  0.79564  Biso   1.000  C
  C67      1.0000 0.03270  0.20210  0.70436  Biso   1.000  C
  C68      1.0000 0.03270  0.29790  0.20436  Biso   1.000  C
  H45      1.0000 0.66200  0.66600  0.42300  Biso   1.000  H
  H46      1.0000 0.66200  0.83400  0.92300  Biso   1.000  H
  H47      1.0000 0.33800  0.33400  0.57700  Biso   1.000  H
  H48      1.0000 0.33800  0.16600  0.07700  Biso   1.000  H
  H49      1.0000 0.61500  0.74600  0.46520  Biso   1.000  H
  H50      1.0000 0.61500  0.75400  0.96520  Biso   1.000  H
  H51      1.0000 0.38500  0.25400  0.53480  Biso   1.000  H
  H52      1.0000 0.38500  0.24600  0.03480  Biso   1.000  H
  H53      1.0000 0.36600  0.76000  0.51070  Biso   1.000  H
  H54      1.0000 0.36600  0.74000  0.01070  Biso   1.000  H
  H55      1.0000 0.63400  0.24000  0.48930  Biso   1.000  H
  H56      1.0000 0.63400  0.26000  0.98930  Biso   1.000  H
  H57      1.0000 0.23800  0.83500  0.49950  Biso   1.000  H
  H58      1.0000 0.23800  0.66500  0.99950  Biso   1.000  H
  H59      1.0000 0.76200  0.16500  0.50050  Biso   1.000  H
  H60      1.0000 0.76200  0.33500  0.00050  Biso   1.000  H
