data_image0
_cell_length_a       10.197
_cell_length_b       11.813
_cell_length_c       16.378
_cell_angle_alpha    87.01
_cell_angle_beta     89.72
_cell_angle_gamma    65.94

_symmetry_space_group_name_H-M    "P 1"
_symmetry_int_tables_number       1

loop_
  _symmetry_equiv_pos_as_xyz
  'x, y, z'

loop_
  _atom_site_label
  _atom_site_occupancy
  _atom_site_fract_x
  _atom_site_fract_y
  _atom_site_fract_z
  _atom_site_thermal_displace_type
  _atom_site_B_iso_or_equiv
  _atom_site_type_symbol
  Cu1      1.0000 0.13981  0.24331  0.03003  Biso   1.000  Cu
  Cu2      1.0000 0.86019  0.75669  0.96997  Biso   1.000  Cu
  Cu3      1.0000 0.47880  0.27789  0.53733  Biso   1.000  Cu
  Cu4      1.0000 0.52120  0.72211  0.46267  Biso   1.000  Cu
  O1       1.0000 0.99880  0.32590  0.17059  Biso   1.000  O
  O2       1.0000 0.00120  0.67410  0.82941  Biso   1.000  O
  O3       1.0000 0.03600  0.16410  0.09455  Biso   1.000  O
  O4       1.0000 0.96400  0.83590  0.90545  Biso   1.000  O
  O5       1.0000 0.66680  0.37200  0.41049  Biso   1.000  O
  O6       1.0000 0.33320  0.62800  0.58951  Biso   1.000  O
  O7       1.0000 0.64900  0.20060  0.46848  Biso   1.000  O
  O8       1.0000 0.35100  0.79940  0.53152  Biso   1.000  O
  O9       1.0000 0.63690  0.18660  0.70652  Biso   1.000  O
  O10      1.0000 0.36310  0.81340  0.29348  Biso   1.000  O
  O11      1.0000 0.56380  0.35070  0.61500  Biso   1.000  O
  O12      1.0000 0.43620  0.64930  0.38500  Biso   1.000  O
  O13      1.0000 0.04610  0.19290  0.89156  Biso   1.000  O
  O14      1.0000 0.95390  0.80710  0.10844  Biso   1.000  O
  O15      1.0000 0.97160  0.35970  0.96648  Biso   1.000  O
  O16      1.0000 0.02840  0.64030  0.03352  Biso   1.000  O
  N1       1.0000 0.33110  0.12110  0.08074  Biso   1.000  N
  N2       1.0000 0.66890  0.87890  0.91926  Biso   1.000  N
  N3       1.0000 0.26710  0.32270  0.98035  Biso   1.000  N
  N4       1.0000 0.73290  0.67730  0.01965  Biso   1.000  N
  N5       1.0000 0.29180  0.32690  0.60312  Biso   1.000  N
  N6       1.0000 0.70820  0.67310  0.39688  Biso   1.000  N
  N7       1.0000 0.38280  0.18370  0.47655  Biso   1.000  N
  N8       1.0000 0.61720  0.81630  0.52345  Biso   1.000  N
  C1       1.0000 0.98910  0.22570  0.15930  Biso   1.000  C
  C2       1.0000 0.01090  0.77430  0.84070  Biso   1.000  C
  C3       1.0000 0.92430  0.16670  0.22230  Biso   1.000  C
  C4       1.0000 0.07570  0.83330  0.77770  Biso   1.000  C
  C5       1.0000 0.94830  0.04150  0.21950  Biso   1.000  C
  C6       1.0000 0.05170  0.95850  0.78050  Biso   1.000  C
  H1       1.0000 0.00360  0.99370  0.17600  Biso   1.000  H
  H2       1.0000 0.99640  0.00630  0.82400  Biso   1.000  H
  C7       1.0000 0.89330  0.98510  0.27910  Biso   1.000  C
  C8       1.0000 0.10670  0.01490  0.72090  Biso   1.000  C
  H3       1.0000 0.91060  0.89920  0.27630  Biso   1.000  H
  H4       1.0000 0.08940  0.10080  0.72370  Biso   1.000  H
  C9       1.0000 0.81260  0.05340  0.34270  Biso   1.000  C
  C10      1.0000 0.18740  0.94660  0.65730  Biso   1.000  C
  H5       1.0000 0.77620  0.01380  0.38400  Biso   1.000  H
  H6       1.0000 0.22380  0.98620  0.61600  Biso   1.000  H
  C11      1.0000 0.78460  0.18080  0.34630  Biso   1.000  C
  C12      1.0000 0.21540  0.81920  0.65370  Biso   1.000  C
  C13      1.0000 0.84230  0.23590  0.28630  Biso   1.000  C
  C14      1.0000 0.15770  0.76410  0.71370  Biso   1.000  C
  H7       1.0000 0.82630  0.32150  0.28920  Biso   1.000  H
  H8       1.0000 0.17370  0.67850  0.71080  Biso   1.000  H
  C15      1.0000 0.69280  0.25880  0.41300  Biso   1.000  C
  C16      1.0000 0.30720  0.74120  0.58700  Biso   1.000  C
  C17      1.0000 0.62030  0.29340  0.68390  Biso   1.000  C
  C18      1.0000 0.37970  0.70660  0.31610  Biso   1.000  C
  C19      1.0000 0.67120  0.36830  0.73939  Biso   1.000  C
  C20      1.0000 0.32880  0.63170  0.26061  Biso   1.000  C
  C21      1.0000 0.60520  0.49900  0.73560  Biso   1.000  C
  C22      1.0000 0.39480  0.50100  0.26440  Biso   1.000  C
  H9       1.0000 0.52690  0.54240  0.69780  Biso   1.000  H
  H10      1.0000 0.47310  0.45760  0.30220  Biso   1.000  H
  C23      1.0000 0.65510  0.56470  0.78690  Biso   1.000  C
  C24      1.0000 0.34490  0.43530  0.21310  Biso   1.000  C
  H11      1.0000 0.60920  0.65370  0.78490  Biso   1.000  H
  H12      1.0000 0.39080  0.34630  0.21510  Biso   1.000  H
  C25      1.0000 0.77050  0.50200  0.84130  Biso   1.000  C
  C26      1.0000 0.22950  0.49800  0.15870  Biso   1.000  C
  H13      1.0000 0.80500  0.54770  0.87570  Biso   1.000  H
  H14      1.0000 0.19500  0.45230  0.12430  Biso   1.000  H
  C27      1.0000 0.83620  0.37190  0.84581  Biso   1.000  C
  C28      1.0000 0.16380  0.62810  0.15419  Biso   1.000  C
  C29      1.0000 0.78510  0.30560  0.79490  Biso   1.000  C
  C30      1.0000 0.21490  0.69440  0.20510  Biso   1.000  C
  H15      1.0000 0.82860  0.21650  0.79840  Biso   1.000  H
  H16      1.0000 0.17140  0.78350  0.20160  Biso   1.000  H
  C31      1.0000 0.96070  0.30130  0.90500  Biso   1.000  C
  C32      1.0000 0.03930  0.69870  0.09500  Biso   1.000  C
  C33      1.0000 0.35980  0.01910  0.13020  Biso   1.000  C
  C34      1.0000 0.64020  0.98090  0.86980  Biso   1.000  C
  H17      1.0000 0.28130  0.99980  0.14850  Biso   1.000  H
  H18      1.0000 0.71870  0.00020  0.85150  Biso   1.000  H
  C35      1.0000 0.49990  0.94120  0.15700  Biso   1.000  C
  C36      1.0000 0.50010  0.05880  0.84300  Biso   1.000  C
  H19      1.0000 0.51640  0.86770  0.19100  Biso   1.000  H
  H20      1.0000 0.48360  0.13230  0.80900  Biso   1.000  H
  C37      1.0000 0.61440  0.96910  0.13380  Biso   1.000  C
  C38      1.0000 0.38560  0.03090  0.86620  Biso   1.000  C
  H21      1.0000 0.71040  0.91690  0.15240  Biso   1.000  H
  H22      1.0000 0.28960  0.08310  0.84760  Biso   1.000  H
  C39      1.0000 0.58730  0.07750  0.08210  Biso   1.000  C
  C40      1.0000 0.41270  0.92250  0.91790  Biso   1.000  C
  C41      1.0000 0.44450  0.14980  0.05700  Biso   1.000  C
  C42      1.0000 0.55550  0.85020  0.94300  Biso   1.000  C
  C43      1.0000 0.69860  0.11670  0.05360  Biso   1.000  C
  C44      1.0000 0.30140  0.88330  0.94640  Biso   1.000  C
  H23      1.0000 0.79700  0.06810  0.06970  Biso   1.000  H
  H24      1.0000 0.20300  0.93190  0.93030  Biso   1.000  H
  C45      1.0000 0.66410  0.22320  0.00450  Biso   1.000  C
  C46      1.0000 0.33590  0.77680  0.99550  Biso   1.000  C
  H25      1.0000 0.73870  0.24840  0.98720  Biso   1.000  H
  H26      1.0000 0.26130  0.75160  0.01280  Biso   1.000  H
  C47      1.0000 0.51760  0.29830  0.97830  Biso   1.000  C
  C48      1.0000 0.48240  0.70170  0.02170  Biso   1.000  C
  C49      1.0000 0.40850  0.26040  0.00400  Biso   1.000  C
  C50      1.0000 0.59150  0.73960  0.99600  Biso   1.000  C
  C51      1.0000 0.47500  0.40770  0.92590  Biso   1.000  C
  C52      1.0000 0.52500  0.59230  0.07410  Biso   1.000  C
  H27      1.0000 0.54470  0.43730  0.90610  Biso   1.000  H
  H28      1.0000 0.45530  0.56270  0.09390  Biso   1.000  H
  C53      1.0000 0.33190  0.47080  0.90340  Biso   1.000  C
  C54      1.0000 0.66810  0.52920  0.09660  Biso   1.000  C
  H29      1.0000 0.30150  0.54510  0.86850  Biso   1.000  H
  H30      1.0000 0.69850  0.45490  0.13150  Biso   1.000  H
  C55      1.0000 0.23000  0.42600  0.93150  Biso   1.000  C
  C56      1.0000 0.77000  0.57400  0.06850  Biso   1.000  C
  H31      1.0000 0.13100  0.47110  0.91540  Biso   1.000  H
  H32      1.0000 0.86900  0.52890  0.08460  Biso   1.000  H
  C57      1.0000 0.24610  0.40630  0.66340  Biso   1.000  C
  C58      1.0000 0.75390  0.59370  0.33660  Biso   1.000  C
  H33      1.0000 0.31200  0.43510  0.68730  Biso   1.000  H
  H34      1.0000 0.68800  0.56490  0.31270  Biso   1.000  H
  C59      1.0000 0.10360  0.44900  0.69260  Biso   1.000  C
  C60      1.0000 0.89640  0.55100  0.30740  Biso   1.000  C
  H35      1.0000 0.07330  0.50740  0.73470  Biso   1.000  H
  H36      1.0000 0.92670  0.49260  0.26530  Biso   1.000  H
  C61      1.0000 0.00890  0.40620  0.66010  Biso   1.000  C
  C62      1.0000 0.99110  0.59380  0.33990  Biso   1.000  C
  H37      1.0000 0.91260  0.43390  0.67990  Biso   1.000  H
  H38      1.0000 0.08740  0.56610  0.32010  Biso   1.000  H
  C63      1.0000 0.05490  0.32060  0.59780  Biso   1.000  C
  C64      1.0000 0.94510  0.67940  0.40220  Biso   1.000  C
  C65      1.0000 0.19660  0.28560  0.57060  Biso   1.000  C
  C66      1.0000 0.80340  0.71440  0.42940  Biso   1.000  C
  C67      1.0000 0.96660  0.26570  0.56100  Biso   1.000  C
  C68      1.0000 0.03340  0.73430  0.43900  Biso   1.000  C
  H39      1.0000 0.87020  0.28790  0.57940  Biso   1.000  H
  H40      1.0000 0.12980  0.71210  0.42060  Biso   1.000  H
  C69      1.0000 0.01760  0.18440  0.50110  Biso   1.000  C
  C70      1.0000 0.98240  0.81560  0.49890  Biso   1.000  C
  H41      1.0000 0.95850  0.14680  0.47950  Biso   1.000  H
  H42      1.0000 0.04150  0.85320  0.52050  Biso   1.000  H
  C71      1.0000 0.16020  0.15250  0.46900  Biso   1.000  C
  C72      1.0000 0.83980  0.84750  0.53100  Biso   1.000  C
  C73      1.0000 0.24830  0.20490  0.50360  Biso   1.000  C
  C74      1.0000 0.75170  0.79510  0.49640  Biso   1.000  C
  C75      1.0000 0.21790  0.07270  0.40430  Biso   1.000  C
  C76      1.0000 0.78210  0.92730  0.59570  Biso   1.000  C
  H43      1.0000 0.16180  0.03510  0.37920  Biso   1.000  H
  H44      1.0000 0.83820  0.96490  0.62080  Biso   1.000  H
  C77      1.0000 0.35340  0.05010  0.37780  Biso   1.000  C
  C78      1.0000 0.64660  0.94990  0.62220  Biso   1.000  C
  H45      1.0000 0.39440  0.99420  0.33500  Biso   1.000  H
  H46      1.0000 0.60560  0.00580  0.66500  Biso   1.000  H
  C79      1.0000 0.43290  0.10900  0.41400  Biso   1.000  C
  C80      1.0000 0.56710  0.89100  0.58600  Biso   1.000  C
  H47      1.0000 0.52610  0.09550  0.39340  Biso   1.000  H
  H48      1.0000 0.47390  0.90450  0.60660  Biso   1.000  H
  O17      1.0000 0.35670  0.46510  0.46975  Biso   1.000  O
  O18      1.0000 0.64330  0.53490  0.53025  Biso   1.000  O
  H49      1.0000 0.27460  0.47230  0.45320  Biso   1.000  H
  H50      1.0000 0.72540  0.52770  0.54680  Biso   1.000  H
  H51      1.0000 0.40360  0.47580  0.42920  Biso   1.000  H
  H52      1.0000 0.59640  0.52420  0.57080  Biso   1.000  H
