data_image0
_cell_length_a       11.569
_cell_length_b       11.25
_cell_length_c       13.742
_cell_angle_alpha    90
_cell_angle_beta     91.62
_cell_angle_gamma    90

_symmetry_space_group_name_H-M    "P 1"
_symmetry_int_tables_number       1

loop_
  _symmetry_equiv_pos_as_xyz
  'x, y, z'

loop_
  _atom_site_label
  _atom_site_occupancy
  _atom_site_fract_x
  _atom_site_fract_y
  _atom_site_fract_z
  _atom_site_thermal_displace_type
  _atom_site_B_iso_or_equiv
  _atom_site_type_symbol
  Cu1      1.0000 0.22449  0.02998  0.17128  Biso   1.000  Cu
  Cu2      1.0000 0.22449  0.47002  0.67128  Biso   1.000  Cu
  Cu3      1.0000 0.77551  0.97002  0.82872  Biso   1.000  Cu
  Cu4      1.0000 0.77551  0.52998  0.32872  Biso   1.000  Cu
  O1       1.0000 0.35395  0.94690  0.24142  Biso   1.000  O
  O2       1.0000 0.35395  0.55310  0.74142  Biso   1.000  O
  O3       1.0000 0.64605  0.05310  0.75858  Biso   1.000  O
  O4       1.0000 0.64605  0.44690  0.25858  Biso   1.000  O
  O5       1.0000 0.23260  0.01120  0.35280  Biso   1.000  O
  O6       1.0000 0.23260  0.48880  0.85280  Biso   1.000  O
  O7       1.0000 0.76740  0.98880  0.64720  Biso   1.000  O
  O8       1.0000 0.76740  0.51120  0.14720  Biso   1.000  O
  O9       1.0000 0.68200  0.67530  0.34615  Biso   1.000  O
  O10      1.0000 0.68200  0.82470  0.84615  Biso   1.000  O
  O11      1.0000 0.31800  0.32470  0.65385  Biso   1.000  O
  O12      1.0000 0.31800  0.17530  0.15385  Biso   1.000  O
  O13      1.0000 0.66210  0.58040  0.48690  Biso   1.000  O
  O14      1.0000 0.66210  0.91960  0.98690  Biso   1.000  O
  O15      1.0000 0.33790  0.41960  0.51310  Biso   1.000  O
  O16      1.0000 0.33790  0.08040  0.01310  Biso   1.000  O
  N1       1.0000 0.06990  0.10290  0.13602  Biso   1.000  N
  N2       1.0000 0.06990  0.39710  0.63602  Biso   1.000  N
  N3       1.0000 0.93010  0.89710  0.86398  Biso   1.000  N
  N4       1.0000 0.93010  0.60290  0.36398  Biso   1.000  N
  N5       1.0000 0.13250  0.87930  0.15279  Biso   1.000  N
  N6       1.0000 0.13250  0.62070  0.65279  Biso   1.000  N
  N7       1.0000 0.86750  0.12070  0.84721  Biso   1.000  N
  N8       1.0000 0.86750  0.37930  0.34721  Biso   1.000  N
  C1       1.0000 0.32180  0.95670  0.33070  Biso   1.000  C
  C2       1.0000 0.32180  0.54330  0.83070  Biso   1.000  C
  C3       1.0000 0.67820  0.04330  0.66930  Biso   1.000  C
  C4       1.0000 0.67820  0.45670  0.16930  Biso   1.000  C
  C5       1.0000 0.39440  0.89490  0.40900  Biso   1.000  C
  C6       1.0000 0.39440  0.60510  0.90900  Biso   1.000  C
  C7       1.0000 0.60560  0.10510  0.59100  Biso   1.000  C
  C8       1.0000 0.60560  0.39490  0.09100  Biso   1.000  C
  C9       1.0000 0.37340  0.91850  0.50740  Biso   1.000  C
  C10      1.0000 0.37340  0.58150  0.00740  Biso   1.000  C
  C11      1.0000 0.62660  0.08150  0.49260  Biso   1.000  C
  C12      1.0000 0.62660  0.41850  0.99260  Biso   1.000  C
  H1       1.0000 0.31400  0.97360  0.52440  Biso   1.000  H
  H2       1.0000 0.31400  0.52640  0.02440  Biso   1.000  H
  H3       1.0000 0.68600  0.02640  0.47560  Biso   1.000  H
  H4       1.0000 0.68600  0.47360  0.97560  Biso   1.000  H
  C13      1.0000 0.43990  0.86110  0.58010  Biso   1.000  C
  C14      1.0000 0.43990  0.63890  0.08010  Biso   1.000  C
  C15      1.0000 0.56010  0.13890  0.41990  Biso   1.000  C
  C16      1.0000 0.56010  0.36110  0.91990  Biso   1.000  C
  H5       1.0000 0.42700  0.87840  0.64740  Biso   1.000  H
  H6       1.0000 0.42700  0.62160  0.14740  Biso   1.000  H
  H7       1.0000 0.57300  0.12160  0.35260  Biso   1.000  H
  H8       1.0000 0.57300  0.37840  0.85260  Biso   1.000  H
  C17      1.0000 0.52510  0.77870  0.55510  Biso   1.000  C
  C18      1.0000 0.52510  0.72130  0.05510  Biso   1.000  C
  C19      1.0000 0.47490  0.22130  0.44490  Biso   1.000  C
  C20      1.0000 0.47490  0.27870  0.94490  Biso   1.000  C
  H9       1.0000 0.56960  0.73840  0.60500  Biso   1.000  H
  H10      1.0000 0.56960  0.76160  0.10500  Biso   1.000  H
  H11      1.0000 0.43040  0.26160  0.39500  Biso   1.000  H
  H12      1.0000 0.43040  0.23840  0.89500  Biso   1.000  H
  C21      1.0000 0.54550  0.75510  0.45710  Biso   1.000  C
  C22      1.0000 0.54550  0.74490  0.95710  Biso   1.000  C
  C23      1.0000 0.45450  0.24490  0.54290  Biso   1.000  C
  C24      1.0000 0.45450  0.25510  0.04290  Biso   1.000  C
  C25      1.0000 0.48120  0.81430  0.38390  Biso   1.000  C
  C26      1.0000 0.48120  0.68570  0.88390  Biso   1.000  C
  C27      1.0000 0.51880  0.18570  0.61610  Biso   1.000  C
  C28      1.0000 0.51880  0.31430  0.11610  Biso   1.000  C
  H13      1.0000 0.49670  0.79980  0.31670  Biso   1.000  H
  H14      1.0000 0.49670  0.70020  0.81670  Biso   1.000  H
  H15      1.0000 0.50330  0.20020  0.68330  Biso   1.000  H
  H16      1.0000 0.50330  0.29980  0.18330  Biso   1.000  H
  C29      1.0000 0.63530  0.66420  0.42960  Biso   1.000  C
  C30      1.0000 0.63530  0.83580  0.92960  Biso   1.000  C
  C31      1.0000 0.36470  0.33580  0.57040  Biso   1.000  C
  C32      1.0000 0.36470  0.16420  0.07040  Biso   1.000  C
  C33      1.0000 0.04600  0.22020  0.12860  Biso   1.000  C
  C34      1.0000 0.04600  0.27980  0.62860  Biso   1.000  C
  C35      1.0000 0.95400  0.77980  0.87140  Biso   1.000  C
  C36      1.0000 0.95400  0.72020  0.37140  Biso   1.000  C
  H17      1.0000 0.10770  0.27660  0.13690  Biso   1.000  H
  H18      1.0000 0.10770  0.22340  0.63690  Biso   1.000  H
  H19      1.0000 0.89230  0.72340  0.86310  Biso   1.000  H
  H20      1.0000 0.89230  0.77660  0.36310  Biso   1.000  H
  C37      1.0000 0.93440  0.26180  0.10840  Biso   1.000  C
  C38      1.0000 0.93440  0.23820  0.60840  Biso   1.000  C
  C39      1.0000 0.06560  0.73820  0.89160  Biso   1.000  C
  C40      1.0000 0.06560  0.76180  0.39160  Biso   1.000  C
  H21      1.0000 0.91900  0.34550  0.10430  Biso   1.000  H
  H22      1.0000 0.91900  0.15450  0.60430  Biso   1.000  H
  H23      1.0000 0.08100  0.65450  0.89570  Biso   1.000  H
  H24      1.0000 0.08100  0.84550  0.39570  Biso   1.000  H
  C41      1.0000 0.84550  0.18000  0.09470  Biso   1.000  C
  C42      1.0000 0.84550  0.32000  0.59470  Biso   1.000  C
  C43      1.0000 0.15450  0.82000  0.90530  Biso   1.000  C
  C44      1.0000 0.15450  0.68000  0.40530  Biso   1.000  C
  H25      1.0000 0.76810  0.20690  0.08040  Biso   1.000  H
  H26      1.0000 0.76810  0.29310  0.58040  Biso   1.000  H
  H27      1.0000 0.23190  0.79310  0.91960  Biso   1.000  H
  H28      1.0000 0.23190  0.70690  0.41960  Biso   1.000  H
  C45      1.0000 0.86920  0.05820  0.10220  Biso   1.000  C
  C46      1.0000 0.86920  0.44180  0.60220  Biso   1.000  C
  C47      1.0000 0.13080  0.94180  0.89780  Biso   1.000  C
  C48      1.0000 0.13080  0.55820  0.39780  Biso   1.000  C
  H29      1.0000 0.80900  0.00010  0.09330  Biso   1.000  H
  H30      1.0000 0.80900  0.49990  0.59330  Biso   1.000  H
  H31      1.0000 0.19100  0.99990  0.90670  Biso   1.000  H
  H32      1.0000 0.19100  0.50010  0.40670  Biso   1.000  H
  C49      1.0000 0.98240  0.02310  0.12280  Biso   1.000  C
  C50      1.0000 0.98240  0.47690  0.62280  Biso   1.000  C
  C51      1.0000 0.01760  0.97690  0.87720  Biso   1.000  C
  C52      1.0000 0.01760  0.52310  0.37720  Biso   1.000  C
  C53      1.0000 0.01810  0.89580  0.13230  Biso   1.000  C
  C54      1.0000 0.01810  0.60420  0.63230  Biso   1.000  C
  C55      1.0000 0.98190  0.10420  0.86770  Biso   1.000  C
  C56      1.0000 0.98190  0.39580  0.36770  Biso   1.000  C
  C57      1.0000 0.94340  0.79910  0.12050  Biso   1.000  C
  C58      1.0000 0.94340  0.70090  0.62050  Biso   1.000  C
  C59      1.0000 0.05660  0.20090  0.87950  Biso   1.000  C
  C60      1.0000 0.05660  0.29910  0.37950  Biso   1.000  C
  H33      1.0000 0.86250  0.81210  0.10720  Biso   1.000  H
  H34      1.0000 0.86250  0.68790  0.60720  Biso   1.000  H
  H35      1.0000 0.13750  0.18790  0.89280  Biso   1.000  H
  H36      1.0000 0.13750  0.31210  0.39280  Biso   1.000  H
  C61      1.0000 0.98800  0.68400  0.12760  Biso   1.000  C
  C62      1.0000 0.98800  0.81600  0.62760  Biso   1.000  C
  C63      1.0000 0.01200  0.31600  0.87240  Biso   1.000  C
  C64      1.0000 0.01200  0.18400  0.37240  Biso   1.000  C
  H37      1.0000 0.93770  0.61670  0.11940  Biso   1.000  H
  H38      1.0000 0.93770  0.88330  0.61940  Biso   1.000  H
  H39      1.0000 0.06230  0.38330  0.88060  Biso   1.000  H
  H40      1.0000 0.06230  0.11670  0.38060  Biso   1.000  H
  C65      1.0000 0.10480  0.66770  0.14670  Biso   1.000  C
  C66      1.0000 0.10480  0.83230  0.64670  Biso   1.000  C
  C67      1.0000 0.89520  0.33230  0.85330  Biso   1.000  C
  C68      1.0000 0.89520  0.16770  0.35330  Biso   1.000  C
  H41      1.0000 0.13700  0.58910  0.15100  Biso   1.000  H
  H42      1.0000 0.13700  0.91090  0.65100  Biso   1.000  H
  H43      1.0000 0.86300  0.41090  0.84900  Biso   1.000  H
  H44      1.0000 0.86300  0.08910  0.34900  Biso   1.000  H
  C69      1.0000 0.17500  0.76720  0.16010  Biso   1.000  C
  C70      1.0000 0.17500  0.73280  0.66010  Biso   1.000  C
  C71      1.0000 0.82500  0.23280  0.83990  Biso   1.000  C
  C72      1.0000 0.82500  0.26720  0.33990  Biso   1.000  C
  H45      1.0000 0.25600  0.75660  0.17470  Biso   1.000  H
  H46      1.0000 0.25600  0.74340  0.67470  Biso   1.000  H
  H47      1.0000 0.74400  0.24340  0.82530  Biso   1.000  H
  H48      1.0000 0.74400  0.25660  0.32530  Biso   1.000  H
  O17      1.0000 0.42230  0.98560  0.83350  Biso   1.000  O
  O18      1.0000 0.42230  0.51440  0.33350  Biso   1.000  O
  O19      1.0000 0.57770  0.01440  0.16650  Biso   1.000  O
  O20      1.0000 0.57770  0.48560  0.66650  Biso   1.000  O
  H49      1.0000 0.50310  0.00050  0.82390  Biso   1.000  H
  H50      1.0000 0.50310  0.49950  0.32390  Biso   1.000  H
  H51      1.0000 0.49690  0.99950  0.17610  Biso   1.000  H
  H52      1.0000 0.49690  0.50050  0.67610  Biso   1.000  H
  H53      1.0000 0.40600  0.01820  0.88740  Biso   1.000  H
  H54      1.0000 0.40600  0.48180  0.38740  Biso   1.000  H
  H55      1.0000 0.59400  0.98180  0.11260  Biso   1.000  H
  H56      1.0000 0.59400  0.51820  0.61260  Biso   1.000  H
  O21      1.0000 0.25020  0.08570  0.71040  Biso   1.000  O
  O22      1.0000 0.25020  0.41430  0.21040  Biso   1.000  O
  O23      1.0000 0.74980  0.91430  0.28960  Biso   1.000  O
  O24      1.0000 0.74980  0.58570  0.78960  Biso   1.000  O
  H57      1.0000 0.32030  0.06350  0.74340  Biso   1.000  H
  H58      1.0000 0.32030  0.43650  0.24340  Biso   1.000  H
  H59      1.0000 0.67970  0.93650  0.25660  Biso   1.000  H
  H60      1.0000 0.67970  0.56350  0.75660  Biso   1.000  H
  H61      1.0000 0.27810  0.14860  0.70230  Biso   1.000  H
  H62      1.0000 0.27810  0.35140  0.20230  Biso   1.000  H
  H63      1.0000 0.72190  0.85140  0.29770  Biso   1.000  H
  H64      1.0000 0.72190  0.64860  0.79770  Biso   1.000  H
