data_image0
_cell_length_a       12.38
_cell_length_b       15.198
_cell_length_c       11.477
_cell_angle_alpha    90
_cell_angle_beta     92.32
_cell_angle_gamma    90

_symmetry_space_group_name_H-M    "P 1"
_symmetry_int_tables_number       1

loop_
  _symmetry_equiv_pos_as_xyz
  'x, y, z'

loop_
  _atom_site_label
  _atom_site_occupancy
  _atom_site_fract_x
  _atom_site_fract_y
  _atom_site_fract_z
  _atom_site_thermal_displace_type
  _atom_site_B_iso_or_equiv
  _atom_site_type_symbol
  Cu1      1.0000 0.38492  0.05975  0.20671  Biso   1.000  Cu
  Cu2      1.0000 0.38492  0.44025  0.70671  Biso   1.000  Cu
  Cu3      1.0000 0.61508  0.94025  0.79329  Biso   1.000  Cu
  Cu4      1.0000 0.61508  0.55975  0.29329  Biso   1.000  Cu
  O1       1.0000 0.26210  0.12810  0.12960  Biso   1.000  O
  O2       1.0000 0.26210  0.37190  0.62960  Biso   1.000  O
  O3       1.0000 0.73790  0.87190  0.87040  Biso   1.000  O
  O4       1.0000 0.73790  0.62810  0.37040  Biso   1.000  O
  O5       1.0000 0.26380  0.99200  0.05910  Biso   1.000  O
  O6       1.0000 0.26380  0.50800  0.55910  Biso   1.000  O
  O7       1.0000 0.73620  0.00800  0.94090  Biso   1.000  O
  O8       1.0000 0.73620  0.49200  0.44090  Biso   1.000  O
  O9       1.0000 0.49600  0.32920  0.80290  Biso   1.000  O
  O10      1.0000 0.49600  0.17080  0.30290  Biso   1.000  O
  O11      1.0000 0.50400  0.67080  0.19710  Biso   1.000  O
  O12      1.0000 0.50400  0.82920  0.69710  Biso   1.000  O
  O13      1.0000 0.50490  0.38180  0.62150  Biso   1.000  O
  O14      1.0000 0.50490  0.11820  0.12150  Biso   1.000  O
  O15      1.0000 0.49510  0.61820  0.37850  Biso   1.000  O
  O16      1.0000 0.49510  0.88180  0.87850  Biso   1.000  O
  O17      1.0000 0.95340  0.16710  0.66730  Biso   1.000  O
  O18      1.0000 0.95340  0.33290  0.16730  Biso   1.000  O
  O19      1.0000 0.04660  0.83290  0.33270  Biso   1.000  O
  O20      1.0000 0.04660  0.66710  0.83270  Biso   1.000  O
  N1       1.0000 0.30510  0.02210  0.35080  Biso   1.000  N
  N2       1.0000 0.30510  0.47790  0.85080  Biso   1.000  N
  N3       1.0000 0.69490  0.97790  0.64920  Biso   1.000  N
  N4       1.0000 0.69490  0.52210  0.14920  Biso   1.000  N
  N5       1.0000 0.48380  0.96190  0.26160  Biso   1.000  N
  N6       1.0000 0.48380  0.53810  0.76160  Biso   1.000  N
  N7       1.0000 0.51620  0.03810  0.73840  Biso   1.000  N
  N8       1.0000 0.51620  0.46190  0.23840  Biso   1.000  N
  C1       1.0000 0.22890  0.06930  0.05670  Biso   1.000  C
  C2       1.0000 0.22890  0.43070  0.55670  Biso   1.000  C
  C3       1.0000 0.77110  0.93070  0.94330  Biso   1.000  C
  C4       1.0000 0.77110  0.56930  0.44330  Biso   1.000  C
  C5       1.0000 0.14570  0.09590  0.96190  Biso   1.000  C
  C6       1.0000 0.14570  0.40410  0.46190  Biso   1.000  C
  C7       1.0000 0.85430  0.90410  0.03810  Biso   1.000  C
  C8       1.0000 0.85430  0.59590  0.53810  Biso   1.000  C
  C9       1.0000 0.10720  0.03280  0.88280  Biso   1.000  C
  C10      1.0000 0.10720  0.46720  0.38280  Biso   1.000  C
  C11      1.0000 0.89280  0.96720  0.11720  Biso   1.000  C
  C12      1.0000 0.89280  0.53280  0.61720  Biso   1.000  C
  H1       1.0000 0.12720  0.97230  0.89470  Biso   1.000  H
  H2       1.0000 0.12720  0.52770  0.39470  Biso   1.000  H
  H3       1.0000 0.87280  0.02770  0.10530  Biso   1.000  H
  H4       1.0000 0.87280  0.47230  0.60530  Biso   1.000  H
  C13      1.0000 0.03930  0.05620  0.78730  Biso   1.000  C
  C14      1.0000 0.03930  0.44380  0.28730  Biso   1.000  C
  C15      1.0000 0.96070  0.94380  0.21270  Biso   1.000  C
  C16      1.0000 0.96070  0.55620  0.71270  Biso   1.000  C
  H5       1.0000 0.01170  0.01220  0.73390  Biso   1.000  H
  H6       1.0000 0.01170  0.48780  0.23390  Biso   1.000  H
  H7       1.0000 0.98830  0.98780  0.26610  Biso   1.000  H
  H8       1.0000 0.98830  0.51220  0.76610  Biso   1.000  H
  C17      1.0000 0.01260  0.14360  0.77110  Biso   1.000  C
  C18      1.0000 0.01260  0.35640  0.27110  Biso   1.000  C
  C19      1.0000 0.98740  0.85640  0.22890  Biso   1.000  C
  C20      1.0000 0.98740  0.64360  0.72890  Biso   1.000  C
  C21      1.0000 0.04800  0.20830  0.84970  Biso   1.000  C
  C22      1.0000 0.04800  0.29170  0.34970  Biso   1.000  C
  C23      1.0000 0.95200  0.79170  0.15030  Biso   1.000  C
  C24      1.0000 0.95200  0.70830  0.65030  Biso   1.000  C
  H9       1.0000 0.02730  0.26860  0.83790  Biso   1.000  H
  H10      1.0000 0.02730  0.23140  0.33790  Biso   1.000  H
  H11      1.0000 0.97270  0.73140  0.16210  Biso   1.000  H
  H12      1.0000 0.97270  0.76860  0.66210  Biso   1.000  H
  C25      1.0000 0.11450  0.18350  0.94530  Biso   1.000  C
  C26      1.0000 0.11450  0.31650  0.44530  Biso   1.000  C
  C27      1.0000 0.88550  0.81650  0.05470  Biso   1.000  C
  C28      1.0000 0.88550  0.68350  0.55470  Biso   1.000  C
  H13      1.0000 0.13840  0.22680  0.00150  Biso   1.000  H
  H14      1.0000 0.13840  0.27320  0.50150  Biso   1.000  H
  H15      1.0000 0.86160  0.77320  0.99850  Biso   1.000  H
  H16      1.0000 0.86160  0.72680  0.49850  Biso   1.000  H
  C29      1.0000 0.85290  0.20860  0.68220  Biso   1.000  C
  C30      1.0000 0.85290  0.29140  0.18220  Biso   1.000  C
  C31      1.0000 0.14710  0.79140  0.31780  Biso   1.000  C
  C32      1.0000 0.14710  0.70860  0.81780  Biso   1.000  C
  C33      1.0000 0.82140  0.27040  0.59740  Biso   1.000  C
  C34      1.0000 0.82140  0.22960  0.09740  Biso   1.000  C
  C35      1.0000 0.17860  0.72960  0.40260  Biso   1.000  C
  C36      1.0000 0.17860  0.77040  0.90260  Biso   1.000  C
  H17      1.0000 0.86860  0.28520  0.53610  Biso   1.000  H
  H18      1.0000 0.86860  0.21480  0.03610  Biso   1.000  H
  H19      1.0000 0.13140  0.71480  0.46390  Biso   1.000  H
  H20      1.0000 0.13140  0.78520  0.96390  Biso   1.000  H
  C37      1.0000 0.71950  0.31190  0.60430  Biso   1.000  C
  C38      1.0000 0.71950  0.18810  0.10430  Biso   1.000  C
  C39      1.0000 0.28050  0.68810  0.39570  Biso   1.000  C
  C40      1.0000 0.28050  0.81190  0.89570  Biso   1.000  C
  H21      1.0000 0.69580  0.35420  0.54660  Biso   1.000  H
  H22      1.0000 0.69580  0.14580  0.04660  Biso   1.000  H
  H23      1.0000 0.30420  0.64580  0.45340  Biso   1.000  H
  H24      1.0000 0.30420  0.85420  0.95340  Biso   1.000  H
  C41      1.0000 0.65240  0.29090  0.69490  Biso   1.000  C
  C42      1.0000 0.65240  0.20910  0.19490  Biso   1.000  C
  C43      1.0000 0.34760  0.70910  0.30510  Biso   1.000  C
  C44      1.0000 0.34760  0.79090  0.80510  Biso   1.000  C
  C45      1.0000 0.68510  0.22740  0.77920  Biso   1.000  C
  C46      1.0000 0.68510  0.27260  0.27920  Biso   1.000  C
  C47      1.0000 0.31490  0.77260  0.22080  Biso   1.000  C
  C48      1.0000 0.31490  0.72740  0.72080  Biso   1.000  C
  H25      1.0000 0.63840  0.21240  0.84100  Biso   1.000  H
  H26      1.0000 0.63840  0.28760  0.34100  Biso   1.000  H
  H27      1.0000 0.36160  0.78760  0.15900  Biso   1.000  H
  H28      1.0000 0.36160  0.71240  0.65900  Biso   1.000  H
  C49      1.0000 0.78580  0.18570  0.77220  Biso   1.000  C
  C50      1.0000 0.78580  0.31430  0.27220  Biso   1.000  C
  C51      1.0000 0.21420  0.81430  0.22780  Biso   1.000  C
  C52      1.0000 0.21420  0.68570  0.72780  Biso   1.000  C
  H29      1.0000 0.80950  0.14270  0.82890  Biso   1.000  H
  H30      1.0000 0.80950  0.35730  0.32890  Biso   1.000  H
  H31      1.0000 0.19050  0.85730  0.17110  Biso   1.000  H
  H32      1.0000 0.19050  0.64270  0.67110  Biso   1.000  H
  C53      1.0000 0.54360  0.33530  0.70770  Biso   1.000  C
  C54      1.0000 0.54360  0.16470  0.20770  Biso   1.000  C
  C55      1.0000 0.45640  0.66470  0.29230  Biso   1.000  C
  C56      1.0000 0.45640  0.83530  0.79230  Biso   1.000  C
  C57      1.0000 0.21180  0.05750  0.38820  Biso   1.000  C
  C58      1.0000 0.21180  0.44250  0.88820  Biso   1.000  C
  C59      1.0000 0.78820  0.94250  0.61180  Biso   1.000  C
  C60      1.0000 0.78820  0.55750  0.11180  Biso   1.000  C
  H33      1.0000 0.17510  0.10100  0.34060  Biso   1.000  H
  H34      1.0000 0.17510  0.39900  0.84060  Biso   1.000  H
  H35      1.0000 0.82490  0.89900  0.65940  Biso   1.000  H
  H36      1.0000 0.82490  0.60100  0.15940  Biso   1.000  H
  C61      1.0000 0.16870  0.03180  0.49330  Biso   1.000  C
  C62      1.0000 0.16870  0.46820  0.99330  Biso   1.000  C
  C63      1.0000 0.83130  0.96820  0.50670  Biso   1.000  C
  C64      1.0000 0.83130  0.53180  0.00670  Biso   1.000  C
  H37      1.0000 0.10360  0.05850  0.51940  Biso   1.000  H
  H38      1.0000 0.10360  0.44150  0.01940  Biso   1.000  H
  H39      1.0000 0.89640  0.94150  0.48060  Biso   1.000  H
  H40      1.0000 0.89640  0.55850  0.98060  Biso   1.000  H
  C65      1.0000 0.22110  0.96690  0.56110  Biso   1.000  C
  C66      1.0000 0.22110  0.53310  0.06110  Biso   1.000  C
  C67      1.0000 0.77890  0.03310  0.43890  Biso   1.000  C
  C68      1.0000 0.77890  0.46690  0.93890  Biso   1.000  C
  H41      1.0000 0.19220  0.94760  0.63320  Biso   1.000  H
  H42      1.0000 0.19220  0.55240  0.13320  Biso   1.000  H
  H43      1.0000 0.80780  0.05240  0.36680  Biso   1.000  H
  H44      1.0000 0.80780  0.44760  0.86680  Biso   1.000  H
  C69      1.0000 0.31810  0.93100  0.52140  Biso   1.000  C
  C70      1.0000 0.31810  0.56900  0.02140  Biso   1.000  C
  C71      1.0000 0.68190  0.06900  0.47860  Biso   1.000  C
  C72      1.0000 0.68190  0.43100  0.97860  Biso   1.000  C
  H45      1.0000 0.35610  0.88660  0.56620  Biso   1.000  H
  H46      1.0000 0.35610  0.61340  0.06620  Biso   1.000  H
  H47      1.0000 0.64390  0.11340  0.43380  Biso   1.000  H
  H48      1.0000 0.64390  0.38660  0.93380  Biso   1.000  H
  C73      1.0000 0.35740  0.95990  0.41710  Biso   1.000  C
  C74      1.0000 0.35740  0.54010  0.91710  Biso   1.000  C
  C75      1.0000 0.64260  0.04010  0.58290  Biso   1.000  C
  C76      1.0000 0.64260  0.45990  0.08290  Biso   1.000  C
  C77      1.0000 0.46000  0.92580  0.36690  Biso   1.000  C
  C78      1.0000 0.46000  0.57420  0.86690  Biso   1.000  C
  C79      1.0000 0.54000  0.07420  0.63310  Biso   1.000  C
  C80      1.0000 0.54000  0.42580  0.13310  Biso   1.000  C
  C81      1.0000 0.52520  0.86020  0.41930  Biso   1.000  C
  C82      1.0000 0.52520  0.63980  0.91930  Biso   1.000  C
  C83      1.0000 0.47480  0.13980  0.58070  Biso   1.000  C
  C84      1.0000 0.47480  0.36020  0.08070  Biso   1.000  C
  H49      1.0000 0.50880  0.83730  0.49450  Biso   1.000  H
  H50      1.0000 0.50880  0.66270  0.99450  Biso   1.000  H
  H51      1.0000 0.49120  0.16270  0.50550  Biso   1.000  H
  H52      1.0000 0.49120  0.33730  0.00550  Biso   1.000  H
  C85      1.0000 0.61410  0.82950  0.36100  Biso   1.000  C
  C86      1.0000 0.61410  0.67050  0.86100  Biso   1.000  C
  C87      1.0000 0.38590  0.17050  0.63900  Biso   1.000  C
  C88      1.0000 0.38590  0.32950  0.13900  Biso   1.000  C
  H53      1.0000 0.65840  0.78320  0.39380  Biso   1.000  H
  H54      1.0000 0.65840  0.71680  0.89380  Biso   1.000  H
  H55      1.0000 0.34160  0.21680  0.60620  Biso   1.000  H
  H56      1.0000 0.34160  0.28320  0.10620  Biso   1.000  H
  C89      1.0000 0.63680  0.86540  0.25230  Biso   1.000  C
  C90      1.0000 0.63680  0.63460  0.75230  Biso   1.000  C
  C91      1.0000 0.36320  0.13460  0.74770  Biso   1.000  C
  C92      1.0000 0.36320  0.36540  0.24770  Biso   1.000  C
  H57      1.0000 0.69800  0.84530  0.21100  Biso   1.000  H
  H58      1.0000 0.69800  0.65470  0.71100  Biso   1.000  H
  H59      1.0000 0.30200  0.15470  0.78900  Biso   1.000  H
  H60      1.0000 0.30200  0.34530  0.28900  Biso   1.000  H
  C93      1.0000 0.57170  0.93180  0.20580  Biso   1.000  C
  C94      1.0000 0.57170  0.56820  0.70580  Biso   1.000  C
  C95      1.0000 0.42830  0.06820  0.79420  Biso   1.000  C
  C96      1.0000 0.42830  0.43180  0.29420  Biso   1.000  C
  H61      1.0000 0.58860  0.95710  0.13210  Biso   1.000  H
  H62      1.0000 0.58860  0.54290  0.63210  Biso   1.000  H
  H63      1.0000 0.41140  0.04290  0.86790  Biso   1.000  H
  H64      1.0000 0.41140  0.45710  0.36790  Biso   1.000  H
