data_image0
_cell_length_a       36.17
_cell_length_b       6.03
_cell_length_c       23.886
_cell_angle_alpha    90
_cell_angle_beta     113.65
_cell_angle_gamma    90

_symmetry_space_group_name_H-M    "P 1"
_symmetry_int_tables_number       1

loop_
  _symmetry_equiv_pos_as_xyz
  'x, y, z'

loop_
  _atom_site_label
  _atom_site_occupancy
  _atom_site_fract_x
  _atom_site_fract_y
  _atom_site_fract_z
  _atom_site_thermal_displace_type
  _atom_site_B_iso_or_equiv
  _atom_site_type_symbol
  C1       1.0000 0.36999  0.07630  0.61230  Biso   1.000  C
  C2       1.0000 0.86999  0.57630  0.61230  Biso   1.000  C
  C3       1.0000 0.36999  0.92370  0.11230  Biso   1.000  C
  C4       1.0000 0.86999  0.42370  0.11230  Biso   1.000  C
  C5       1.0000 0.63001  0.92370  0.38770  Biso   1.000  C
  C6       1.0000 0.13001  0.42370  0.38770  Biso   1.000  C
  C7       1.0000 0.63001  0.07630  0.88770  Biso   1.000  C
  C8       1.0000 0.13001  0.57630  0.88770  Biso   1.000  C
  C9       1.0000 0.40615  0.00240  0.60000  Biso   1.000  C
  C10      1.0000 0.90615  0.50240  0.60000  Biso   1.000  C
  C11      1.0000 0.40615  0.99760  0.10000  Biso   1.000  C
  C12      1.0000 0.90615  0.49760  0.10000  Biso   1.000  C
  C13      1.0000 0.59385  0.99760  0.40000  Biso   1.000  C
  C14      1.0000 0.09385  0.49760  0.40000  Biso   1.000  C
  C15      1.0000 0.59385  0.00240  0.90000  Biso   1.000  C
  C16      1.0000 0.09385  0.50240  0.90000  Biso   1.000  C
  C17      1.0000 0.42833  0.81600  0.62860  Biso   1.000  C
  C18      1.0000 0.92833  0.31600  0.62860  Biso   1.000  C
  C19      1.0000 0.42833  0.18400  0.12860  Biso   1.000  C
  C20      1.0000 0.92833  0.68400  0.12860  Biso   1.000  C
  C21      1.0000 0.57167  0.18400  0.37140  Biso   1.000  C
  C22      1.0000 0.07167  0.68400  0.37140  Biso   1.000  C
  C23      1.0000 0.57167  0.81600  0.87140  Biso   1.000  C
  C24      1.0000 0.07167  0.31600  0.87140  Biso   1.000  C
  H1       1.0000 0.42050  0.73600  0.65690  Biso   1.000  H
  H2       1.0000 0.92050  0.23600  0.65690  Biso   1.000  H
  H3       1.0000 0.42050  0.26400  0.15690  Biso   1.000  H
  H4       1.0000 0.92050  0.76400  0.15690  Biso   1.000  H
  H5       1.0000 0.57950  0.26400  0.34310  Biso   1.000  H
  H6       1.0000 0.07950  0.76400  0.34310  Biso   1.000  H
  H7       1.0000 0.57950  0.73600  0.84310  Biso   1.000  H
  H8       1.0000 0.07950  0.23600  0.84310  Biso   1.000  H
  C25      1.0000 0.46172  0.74270  0.61670  Biso   1.000  C
  C26      1.0000 0.96172  0.24270  0.61670  Biso   1.000  C
  C27      1.0000 0.46172  0.25730  0.11670  Biso   1.000  C
  C28      1.0000 0.96172  0.75730  0.11670  Biso   1.000  C
  C29      1.0000 0.53828  0.25730  0.38330  Biso   1.000  C
  C30      1.0000 0.03828  0.75730  0.38330  Biso   1.000  C
  C31      1.0000 0.53828  0.74270  0.88330  Biso   1.000  C
  C32      1.0000 0.03828  0.24270  0.88330  Biso   1.000  C
  H9       1.0000 0.47650  0.61230  0.63630  Biso   1.000  H
  H10      1.0000 0.97650  0.11230  0.63630  Biso   1.000  H
  H11      1.0000 0.47650  0.38770  0.13630  Biso   1.000  H
  H12      1.0000 0.97650  0.88770  0.13630  Biso   1.000  H
  H13      1.0000 0.52350  0.38770  0.36370  Biso   1.000  H
  H14      1.0000 0.02350  0.88770  0.36370  Biso   1.000  H
  H15      1.0000 0.52350  0.61230  0.86370  Biso   1.000  H
  H16      1.0000 0.02350  0.11230  0.86370  Biso   1.000  H
  C33      1.0000 0.47318  0.86430  0.57650  Biso   1.000  C
  C34      1.0000 0.97318  0.36430  0.57650  Biso   1.000  C
  C35      1.0000 0.47318  0.13570  0.07650  Biso   1.000  C
  C36      1.0000 0.97318  0.63570  0.07650  Biso   1.000  C
  C37      1.0000 0.52682  0.13570  0.42350  Biso   1.000  C
  C38      1.0000 0.02682  0.63570  0.42350  Biso   1.000  C
  C39      1.0000 0.52682  0.86430  0.92350  Biso   1.000  C
  C40      1.0000 0.02682  0.36430  0.92350  Biso   1.000  C
  C41      1.0000 0.45057  0.04560  0.54630  Biso   1.000  C
  C42      1.0000 0.95057  0.54560  0.54630  Biso   1.000  C
  C43      1.0000 0.45057  0.95440  0.04630  Biso   1.000  C
  C44      1.0000 0.95057  0.45440  0.04630  Biso   1.000  C
  C45      1.0000 0.54943  0.95440  0.45370  Biso   1.000  C
  C46      1.0000 0.04943  0.45440  0.45370  Biso   1.000  C
  C47      1.0000 0.54943  0.04560  0.95370  Biso   1.000  C
  C48      1.0000 0.04943  0.54560  0.95370  Biso   1.000  C
  H17      1.0000 0.45770  0.12240  0.51690  Biso   1.000  H
  H18      1.0000 0.95770  0.62240  0.51690  Biso   1.000  H
  H19      1.0000 0.45770  0.87760  0.01690  Biso   1.000  H
  H20      1.0000 0.95770  0.37760  0.01690  Biso   1.000  H
  H21      1.0000 0.54230  0.87760  0.48310  Biso   1.000  H
  H22      1.0000 0.04230  0.37760  0.48310  Biso   1.000  H
  H23      1.0000 0.54230  0.12240  0.98310  Biso   1.000  H
  H24      1.0000 0.04230  0.62240  0.98310  Biso   1.000  H
  C49      1.0000 0.41752  0.11600  0.55830  Biso   1.000  C
  C50      1.0000 0.91752  0.61600  0.55830  Biso   1.000  C
  C51      1.0000 0.41752  0.88400  0.05830  Biso   1.000  C
  C52      1.0000 0.91752  0.38400  0.05830  Biso   1.000  C
  C53      1.0000 0.58248  0.88400  0.44170  Biso   1.000  C
  C54      1.0000 0.08248  0.38400  0.44170  Biso   1.000  C
  C55      1.0000 0.58248  0.11600  0.94170  Biso   1.000  C
  C56      1.0000 0.08248  0.61600  0.94170  Biso   1.000  C
  H25      1.0000 0.40240  0.24430  0.53780  Biso   1.000  H
  H26      1.0000 0.90240  0.74430  0.53780  Biso   1.000  H
  H27      1.0000 0.40240  0.75570  0.03780  Biso   1.000  H
  H28      1.0000 0.90240  0.25570  0.03780  Biso   1.000  H
  H29      1.0000 0.59760  0.75570  0.46220  Biso   1.000  H
  H30      1.0000 0.09760  0.25570  0.46220  Biso   1.000  H
  H31      1.0000 0.59760  0.24430  0.96220  Biso   1.000  H
  H32      1.0000 0.09760  0.74430  0.96220  Biso   1.000  H
  C57      1.0000 0.53697  0.67380  0.60470  Biso   1.000  C
  C58      1.0000 0.03697  0.17380  0.60470  Biso   1.000  C
  C59      1.0000 0.53697  0.32620  0.10470  Biso   1.000  C
  C60      1.0000 0.03697  0.82620  0.10470  Biso   1.000  C
  C61      1.0000 0.46303  0.32620  0.39530  Biso   1.000  C
  C62      1.0000 0.96303  0.82620  0.39530  Biso   1.000  C
  C63      1.0000 0.46303  0.67380  0.89530  Biso   1.000  C
  C64      1.0000 0.96303  0.17380  0.89530  Biso   1.000  C
  C65      1.0000 0.55960  0.76070  0.66310  Biso   1.000  C
  C66      1.0000 0.05960  0.26070  0.66310  Biso   1.000  C
  C67      1.0000 0.55960  0.23930  0.16310  Biso   1.000  C
  C68      1.0000 0.05960  0.73930  0.16310  Biso   1.000  C
  C69      1.0000 0.44040  0.23930  0.33690  Biso   1.000  C
  C70      1.0000 0.94040  0.73930  0.33690  Biso   1.000  C
  C71      1.0000 0.44040  0.76070  0.83690  Biso   1.000  C
  C72      1.0000 0.94040  0.26070  0.83690  Biso   1.000  C
  H33      1.0000 0.55290  0.90320  0.67440  Biso   1.000  H
  H34      1.0000 0.05290  0.40320  0.67440  Biso   1.000  H
  H35      1.0000 0.55290  0.09680  0.17440  Biso   1.000  H
  H36      1.0000 0.05290  0.59680  0.17440  Biso   1.000  H
  H37      1.0000 0.44710  0.09680  0.32560  Biso   1.000  H
  H38      1.0000 0.94710  0.59680  0.32560  Biso   1.000  H
  H39      1.0000 0.44710  0.90320  0.82560  Biso   1.000  H
  H40      1.0000 0.94710  0.40320  0.82560  Biso   1.000  H
  C73      1.0000 0.59180  0.63560  0.70470  Biso   1.000  C
  C74      1.0000 0.09180  0.13560  0.70470  Biso   1.000  C
  C75      1.0000 0.59180  0.36440  0.20470  Biso   1.000  C
  C76      1.0000 0.09180  0.86440  0.20470  Biso   1.000  C
  C77      1.0000 0.40820  0.36440  0.29530  Biso   1.000  C
  C78      1.0000 0.90820  0.86440  0.29530  Biso   1.000  C
  C79      1.0000 0.40820  0.63560  0.79530  Biso   1.000  C
  C80      1.0000 0.90820  0.13560  0.79530  Biso   1.000  C
  H41      1.0000 0.60680  0.69240  0.74490  Biso   1.000  H
  H42      1.0000 0.10680  0.19240  0.74490  Biso   1.000  H
  H43      1.0000 0.60680  0.30760  0.24490  Biso   1.000  H
  H44      1.0000 0.10680  0.80760  0.24490  Biso   1.000  H
  H45      1.0000 0.39320  0.30760  0.25510  Biso   1.000  H
  H46      1.0000 0.89320  0.80760  0.25510  Biso   1.000  H
  H47      1.0000 0.39320  0.69240  0.75510  Biso   1.000  H
  H48      1.0000 0.89320  0.19240  0.75510  Biso   1.000  H
  C81      1.0000 0.60160  0.43050  0.68780  Biso   1.000  C
  C82      1.0000 0.10160  0.93050  0.68780  Biso   1.000  C
  C83      1.0000 0.60160  0.56950  0.18780  Biso   1.000  C
  C84      1.0000 0.10160  0.06950  0.18780  Biso   1.000  C
  C85      1.0000 0.39840  0.56950  0.31220  Biso   1.000  C
  C86      1.0000 0.89840  0.06950  0.31220  Biso   1.000  C
  C87      1.0000 0.39840  0.43050  0.81220  Biso   1.000  C
  C88      1.0000 0.89840  0.93050  0.81220  Biso   1.000  C
  C89      1.0000 0.57951  0.34760  0.62860  Biso   1.000  C
  C90      1.0000 0.07951  0.84760  0.62860  Biso   1.000  C
  C91      1.0000 0.57951  0.65240  0.12860  Biso   1.000  C
  C92      1.0000 0.07951  0.15240  0.12860  Biso   1.000  C
  C93      1.0000 0.42049  0.65240  0.37140  Biso   1.000  C
  C94      1.0000 0.92049  0.15240  0.37140  Biso   1.000  C
  C95      1.0000 0.42049  0.34760  0.87140  Biso   1.000  C
  C96      1.0000 0.92049  0.84760  0.87140  Biso   1.000  C
  H49      1.0000 0.58670  0.20810  0.61630  Biso   1.000  H
  H50      1.0000 0.08670  0.70810  0.61630  Biso   1.000  H
  H51      1.0000 0.58670  0.79190  0.11630  Biso   1.000  H
  H52      1.0000 0.08670  0.29190  0.11630  Biso   1.000  H
  H53      1.0000 0.41330  0.79190  0.38370  Biso   1.000  H
  H54      1.0000 0.91330  0.29190  0.38370  Biso   1.000  H
  H55      1.0000 0.41330  0.20810  0.88370  Biso   1.000  H
  H56      1.0000 0.91330  0.70810  0.88370  Biso   1.000  H
  C97      1.0000 0.54710  0.47180  0.58750  Biso   1.000  C
  C98      1.0000 0.04710  0.97180  0.58750  Biso   1.000  C
  C99      1.0000 0.54710  0.52820  0.08750  Biso   1.000  C
  C100     1.0000 0.04710  0.02820  0.08750  Biso   1.000  C
  C101     1.0000 0.45290  0.52820  0.41250  Biso   1.000  C
  C102     1.0000 0.95290  0.02820  0.41250  Biso   1.000  C
  C103     1.0000 0.45290  0.47180  0.91250  Biso   1.000  C
  C104     1.0000 0.95290  0.97180  0.91250  Biso   1.000  C
  H57      1.0000 0.53140  0.41660  0.54720  Biso   1.000  H
  H58      1.0000 0.03140  0.91660  0.54720  Biso   1.000  H
  H59      1.0000 0.53140  0.58340  0.04720  Biso   1.000  H
  H60      1.0000 0.03140  0.08340  0.04720  Biso   1.000  H
  H61      1.0000 0.46860  0.58340  0.45280  Biso   1.000  H
  H62      1.0000 0.96860  0.08340  0.45280  Biso   1.000  H
  H63      1.0000 0.46860  0.41660  0.95280  Biso   1.000  H
  H64      1.0000 0.96860  0.91660  0.95280  Biso   1.000  H
  C105     1.0000 0.63584  0.29050  0.73310  Biso   1.000  C
  C106     1.0000 0.13584  0.79050  0.73310  Biso   1.000  C
  C107     1.0000 0.63584  0.70950  0.23310  Biso   1.000  C
  C108     1.0000 0.13584  0.20950  0.23310  Biso   1.000  C
  C109     1.0000 0.36416  0.70950  0.26690  Biso   1.000  C
  C110     1.0000 0.86416  0.20950  0.26690  Biso   1.000  C
  C111     1.0000 0.36416  0.29050  0.76690  Biso   1.000  C
  C112     1.0000 0.86416  0.79050  0.76690  Biso   1.000  C
  C113     1.0000 0.29453  0.66350  0.59290  Biso   1.000  C
  C114     1.0000 0.79453  0.16350  0.59290  Biso   1.000  C
  C115     1.0000 0.29453  0.33650  0.09290  Biso   1.000  C
  C116     1.0000 0.79453  0.83650  0.09290  Biso   1.000  C
  C117     1.0000 0.70547  0.33650  0.40710  Biso   1.000  C
  C118     1.0000 0.20547  0.83650  0.40710  Biso   1.000  C
  C119     1.0000 0.70547  0.66350  0.90710  Biso   1.000  C
  C120     1.0000 0.20547  0.16350  0.90710  Biso   1.000  C
  H65      1.0000 0.32280  0.63880  0.60340  Biso   1.000  H
  H66      1.0000 0.82280  0.13880  0.60340  Biso   1.000  H
  H67      1.0000 0.32280  0.36120  0.10340  Biso   1.000  H
  H68      1.0000 0.82280  0.86120  0.10340  Biso   1.000  H
  H69      1.0000 0.67720  0.36120  0.39660  Biso   1.000  H
  H70      1.0000 0.17720  0.86120  0.39660  Biso   1.000  H
  H71      1.0000 0.67720  0.63880  0.89660  Biso   1.000  H
  H72      1.0000 0.17720  0.13880  0.89660  Biso   1.000  H
  C121     1.0000 0.26637  0.51280  0.55410  Biso   1.000  C
  C122     1.0000 0.76637  0.01280  0.55410  Biso   1.000  C
  C123     1.0000 0.26637  0.48720  0.05410  Biso   1.000  C
  C124     1.0000 0.76637  0.98720  0.05410  Biso   1.000  C
  C125     1.0000 0.73363  0.48720  0.44590  Biso   1.000  C
  C126     1.0000 0.23363  0.98720  0.44590  Biso   1.000  C
  C127     1.0000 0.73363  0.51280  0.94590  Biso   1.000  C
  C128     1.0000 0.23363  0.01280  0.94590  Biso   1.000  C
  H73      1.0000 0.27540  0.38780  0.53810  Biso   1.000  H
  H74      1.0000 0.77540  0.88780  0.53810  Biso   1.000  H
  H75      1.0000 0.27540  0.61220  0.03810  Biso   1.000  H
  H76      1.0000 0.77540  0.11220  0.03810  Biso   1.000  H
  H77      1.0000 0.72460  0.61220  0.46190  Biso   1.000  H
  H78      1.0000 0.22460  0.11220  0.46190  Biso   1.000  H
  H79      1.0000 0.72460  0.38780  0.96190  Biso   1.000  H
  H80      1.0000 0.22460  0.88780  0.96190  Biso   1.000  H
  C129     1.0000 0.22517  0.54360  0.53810  Biso   1.000  C
  C130     1.0000 0.72517  0.04360  0.53810  Biso   1.000  C
  C131     1.0000 0.22517  0.45640  0.03810  Biso   1.000  C
  C132     1.0000 0.72517  0.95640  0.03810  Biso   1.000  C
  C133     1.0000 0.77483  0.45640  0.46190  Biso   1.000  C
  C134     1.0000 0.27483  0.95640  0.46190  Biso   1.000  C
  C135     1.0000 0.77483  0.54360  0.96190  Biso   1.000  C
  C136     1.0000 0.27483  0.04360  0.96190  Biso   1.000  C
  H81      1.0000 0.20600  0.44030  0.51130  Biso   1.000  H
  H82      1.0000 0.70600  0.94030  0.51130  Biso   1.000  H
  H83      1.0000 0.20600  0.55970  0.01130  Biso   1.000  H
  H84      1.0000 0.70600  0.05970  0.01130  Biso   1.000  H
  H85      1.0000 0.79400  0.55970  0.48870  Biso   1.000  H
  H86      1.0000 0.29400  0.05970  0.48870  Biso   1.000  H
  H87      1.0000 0.79400  0.44030  0.98870  Biso   1.000  H
  H88      1.0000 0.29400  0.94030  0.98870  Biso   1.000  H
  C137     1.0000 0.21203  0.72770  0.56280  Biso   1.000  C
  C138     1.0000 0.71203  0.22770  0.56280  Biso   1.000  C
  C139     1.0000 0.21203  0.27230  0.06280  Biso   1.000  C
  C140     1.0000 0.71203  0.77230  0.06280  Biso   1.000  C
  C141     1.0000 0.78797  0.27230  0.43720  Biso   1.000  C
  C142     1.0000 0.28797  0.77230  0.43720  Biso   1.000  C
  C143     1.0000 0.78797  0.72770  0.93720  Biso   1.000  C
  C144     1.0000 0.28797  0.22770  0.93720  Biso   1.000  C
  C145     1.0000 0.24265  0.87300  0.60210  Biso   1.000  C
  C146     1.0000 0.74265  0.37300  0.60210  Biso   1.000  C
  C147     1.0000 0.24265  0.12700  0.10210  Biso   1.000  C
  C148     1.0000 0.74265  0.62700  0.10210  Biso   1.000  C
  C149     1.0000 0.75735  0.12700  0.39790  Biso   1.000  C
  C150     1.0000 0.25735  0.62700  0.39790  Biso   1.000  C
  C151     1.0000 0.75735  0.87300  0.89790  Biso   1.000  C
  C152     1.0000 0.25735  0.37300  0.89790  Biso   1.000  C
  C153     1.0000 0.16986  0.77740  0.55130  Biso   1.000  C
  C154     1.0000 0.66986  0.27740  0.55130  Biso   1.000  C
  C155     1.0000 0.16986  0.22260  0.05130  Biso   1.000  C
  C156     1.0000 0.66986  0.72260  0.05130  Biso   1.000  C
  C157     1.0000 0.83014  0.22260  0.44870  Biso   1.000  C
  C158     1.0000 0.33014  0.72260  0.44870  Biso   1.000  C
  C159     1.0000 0.83014  0.77740  0.94870  Biso   1.000  C
  C160     1.0000 0.33014  0.27740  0.94870  Biso   1.000  C
  H89      1.0000 0.14920  0.68240  0.52400  Biso   1.000  H
  H90      1.0000 0.64920  0.18240  0.52400  Biso   1.000  H
  H91      1.0000 0.14920  0.31760  0.02400  Biso   1.000  H
  H92      1.0000 0.64920  0.81760  0.02400  Biso   1.000  H
  H93      1.0000 0.85080  0.31760  0.47600  Biso   1.000  H
  H94      1.0000 0.35080  0.81760  0.47600  Biso   1.000  H
  H95      1.0000 0.85080  0.68240  0.97600  Biso   1.000  H
  H96      1.0000 0.35080  0.18240  0.97600  Biso   1.000  H
  C161     1.0000 0.15998  0.95200  0.57800  Biso   1.000  C
  C162     1.0000 0.65998  0.45200  0.57800  Biso   1.000  C
  C163     1.0000 0.15998  0.04800  0.07800  Biso   1.000  C
  C164     1.0000 0.65998  0.54800  0.07800  Biso   1.000  C
  C165     1.0000 0.84002  0.04800  0.42200  Biso   1.000  C
  C166     1.0000 0.34002  0.54800  0.42200  Biso   1.000  C
  C167     1.0000 0.84002  0.95200  0.92200  Biso   1.000  C
  C168     1.0000 0.34002  0.45200  0.92200  Biso   1.000  C
  H97      1.0000 0.13210  0.97880  0.57000  Biso   1.000  H
  H98      1.0000 0.63210  0.47880  0.57000  Biso   1.000  H
  H99      1.0000 0.13210  0.02120  0.07000  Biso   1.000  H
  H100     1.0000 0.63210  0.52120  0.07000  Biso   1.000  H
  H101     1.0000 0.86790  0.02120  0.43000  Biso   1.000  H
  H102     1.0000 0.36790  0.52120  0.43000  Biso   1.000  H
  H103     1.0000 0.86790  0.97880  0.93000  Biso   1.000  H
  H104     1.0000 0.36790  0.47880  0.93000  Biso   1.000  H
  C169     1.0000 0.19040  0.09870  0.61940  Biso   1.000  C
  C170     1.0000 0.69040  0.59870  0.61940  Biso   1.000  C
  C171     1.0000 0.19040  0.90130  0.11940  Biso   1.000  C
  C172     1.0000 0.69040  0.40130  0.11940  Biso   1.000  C
  C173     1.0000 0.80960  0.90130  0.38060  Biso   1.000  C
  C174     1.0000 0.30960  0.40130  0.38060  Biso   1.000  C
  C175     1.0000 0.80960  0.09870  0.88060  Biso   1.000  C
  C176     1.0000 0.30960  0.59870  0.88060  Biso   1.000  C
  C177     1.0000 0.23156  0.05910  0.62920  Biso   1.000  C
  C178     1.0000 0.73156  0.55910  0.62920  Biso   1.000  C
  C179     1.0000 0.23156  0.94090  0.12920  Biso   1.000  C
  C180     1.0000 0.73156  0.44090  0.12920  Biso   1.000  C
  C181     1.0000 0.76844  0.94090  0.37080  Biso   1.000  C
  C182     1.0000 0.26844  0.44090  0.37080  Biso   1.000  C
  C183     1.0000 0.76844  0.05910  0.87080  Biso   1.000  C
  C184     1.0000 0.26844  0.55910  0.87080  Biso   1.000  C
  C185     1.0000 0.18297  0.28600  0.65080  Biso   1.000  C
  C186     1.0000 0.68297  0.78600  0.65080  Biso   1.000  C
  C187     1.0000 0.18297  0.71400  0.15080  Biso   1.000  C
  C188     1.0000 0.68297  0.21400  0.15080  Biso   1.000  C
  C189     1.0000 0.81703  0.71400  0.34920  Biso   1.000  C
  C190     1.0000 0.31703  0.21400  0.34920  Biso   1.000  C
  C191     1.0000 0.81703  0.28600  0.84920  Biso   1.000  C
  C192     1.0000 0.31703  0.78600  0.84920  Biso   1.000  C
  H105     1.0000 0.15580  0.31780  0.64590  Biso   1.000  H
  H106     1.0000 0.65580  0.81780  0.64590  Biso   1.000  H
  H107     1.0000 0.15580  0.68220  0.14590  Biso   1.000  H
  H108     1.0000 0.65580  0.18220  0.14590  Biso   1.000  H
  H109     1.0000 0.84420  0.68220  0.35410  Biso   1.000  H
  H110     1.0000 0.34420  0.18220  0.35410  Biso   1.000  H
  H111     1.0000 0.84420  0.31780  0.85410  Biso   1.000  H
  H112     1.0000 0.34420  0.81780  0.85410  Biso   1.000  H
  C193     1.0000 0.21451  0.41670  0.68750  Biso   1.000  C
  C194     1.0000 0.71451  0.91670  0.68750  Biso   1.000  C
  C195     1.0000 0.21451  0.58330  0.18750  Biso   1.000  C
  C196     1.0000 0.71451  0.08330  0.18750  Biso   1.000  C
  C197     1.0000 0.78549  0.58330  0.31250  Biso   1.000  C
  C198     1.0000 0.28549  0.08330  0.31250  Biso   1.000  C
  C199     1.0000 0.78549  0.41670  0.81250  Biso   1.000  C
  C200     1.0000 0.28549  0.91670  0.81250  Biso   1.000  C
  H113     1.0000 0.20960  0.54050  0.70880  Biso   1.000  H
  H114     1.0000 0.70960  0.04050  0.70880  Biso   1.000  H
  H115     1.0000 0.20960  0.45950  0.20880  Biso   1.000  H
  H116     1.0000 0.70960  0.95950  0.20880  Biso   1.000  H
  H117     1.0000 0.79040  0.45950  0.29120  Biso   1.000  H
  H118     1.0000 0.29040  0.95950  0.29120  Biso   1.000  H
  H119     1.0000 0.79040  0.54050  0.79120  Biso   1.000  H
  H120     1.0000 0.29040  0.04050  0.79120  Biso   1.000  H
  C201     1.0000 0.25457  0.37000  0.69420  Biso   1.000  C
  C202     1.0000 0.75457  0.87000  0.69420  Biso   1.000  C
  C203     1.0000 0.25457  0.63000  0.19420  Biso   1.000  C
  C204     1.0000 0.75457  0.13000  0.19420  Biso   1.000  C
  C205     1.0000 0.74543  0.63000  0.30580  Biso   1.000  C
  C206     1.0000 0.24543  0.13000  0.30580  Biso   1.000  C
  C207     1.0000 0.74543  0.37000  0.80580  Biso   1.000  C
  C208     1.0000 0.24543  0.87000  0.80580  Biso   1.000  C
  H121     1.0000 0.27610  0.46640  0.71890  Biso   1.000  H
  H122     1.0000 0.77610  0.96640  0.71890  Biso   1.000  H
  H123     1.0000 0.27610  0.53360  0.21890  Biso   1.000  H
  H124     1.0000 0.77610  0.03360  0.21890  Biso   1.000  H
  H125     1.0000 0.72390  0.53360  0.28110  Biso   1.000  H
  H126     1.0000 0.22390  0.03360  0.28110  Biso   1.000  H
  H127     1.0000 0.72390  0.46640  0.78110  Biso   1.000  H
  H128     1.0000 0.22390  0.96640  0.78110  Biso   1.000  H
  N1       1.0000 0.28338  0.84360  0.61627  Biso   1.000  N
  N2       1.0000 0.78338  0.34360  0.61627  Biso   1.000  N
  N3       1.0000 0.28338  0.15640  0.11627  Biso   1.000  N
  N4       1.0000 0.78338  0.65640  0.11627  Biso   1.000  N
  N5       1.0000 0.71662  0.15640  0.38373  Biso   1.000  N
  N6       1.0000 0.21662  0.65640  0.38373  Biso   1.000  N
  N7       1.0000 0.71662  0.84360  0.88373  Biso   1.000  N
  N8       1.0000 0.21662  0.34360  0.88373  Biso   1.000  N
  N9       1.0000 0.26346  0.19300  0.66642  Biso   1.000  N
  N10      1.0000 0.76346  0.69300  0.66642  Biso   1.000  N
  N11      1.0000 0.26346  0.80700  0.16642  Biso   1.000  N
  N12      1.0000 0.76346  0.30700  0.16642  Biso   1.000  N
  N13      1.0000 0.73654  0.80700  0.33358  Biso   1.000  N
  N14      1.0000 0.23654  0.30700  0.33358  Biso   1.000  N
  N15      1.0000 0.73654  0.19300  0.83358  Biso   1.000  N
  N16      1.0000 0.23654  0.69300  0.83358  Biso   1.000  N
  O1       1.0000 0.34521  0.21400  0.57734  Biso   1.000  O
  O2       1.0000 0.84521  0.71400  0.57734  Biso   1.000  O
  O3       1.0000 0.34521  0.78600  0.07734  Biso   1.000  O
  O4       1.0000 0.84521  0.28600  0.07734  Biso   1.000  O
  O5       1.0000 0.65479  0.78600  0.42266  Biso   1.000  O
  O6       1.0000 0.15479  0.28600  0.42266  Biso   1.000  O
  O7       1.0000 0.65479  0.21400  0.92266  Biso   1.000  O
  O8       1.0000 0.15479  0.71400  0.92266  Biso   1.000  O
  O9       1.0000 0.36602  0.98650  0.65882  Biso   1.000  O
  O10      1.0000 0.86602  0.48650  0.65882  Biso   1.000  O
  O11      1.0000 0.36602  0.01350  0.15882  Biso   1.000  O
  O12      1.0000 0.86602  0.51350  0.15882  Biso   1.000  O
  O13      1.0000 0.63398  0.01350  0.34118  Biso   1.000  O
  O14      1.0000 0.13398  0.51350  0.34118  Biso   1.000  O
  O15      1.0000 0.63398  0.98650  0.84118  Biso   1.000  O
  O16      1.0000 0.13398  0.48650  0.84118  Biso   1.000  O
  O17      1.0000 0.64497  0.10590  0.71717  Biso   1.000  O
  O18      1.0000 0.14497  0.60590  0.71717  Biso   1.000  O
  O19      1.0000 0.64497  0.89410  0.21717  Biso   1.000  O
  O20      1.0000 0.14497  0.39410  0.21717  Biso   1.000  O
  O21      1.0000 0.35503  0.89410  0.28283  Biso   1.000  O
  O22      1.0000 0.85503  0.39410  0.28283  Biso   1.000  O
  O23      1.0000 0.35503  0.10590  0.78283  Biso   1.000  O
  O24      1.0000 0.85503  0.60590  0.78283  Biso   1.000  O
  O25      1.0000 0.65341  0.36610  0.78802  Biso   1.000  O
  O26      1.0000 0.15341  0.86610  0.78802  Biso   1.000  O
  O27      1.0000 0.65341  0.63390  0.28802  Biso   1.000  O
  O28      1.0000 0.15341  0.13390  0.28802  Biso   1.000  O
  O29      1.0000 0.34659  0.63390  0.21198  Biso   1.000  O
  O30      1.0000 0.84659  0.13390  0.21198  Biso   1.000  O
  O31      1.0000 0.34659  0.36610  0.71198  Biso   1.000  O
  O32      1.0000 0.84659  0.86610  0.71198  Biso   1.000  O
  O33      1.0000 0.50513  0.79990  0.56138  Biso   1.000  O
  O34      1.0000 0.00513  0.29990  0.56138  Biso   1.000  O
  O35      1.0000 0.50513  0.20010  0.06138  Biso   1.000  O
  O36      1.0000 0.00513  0.70010  0.06138  Biso   1.000  O
  O37      1.0000 0.49487  0.20010  0.43862  Biso   1.000  O
  O38      1.0000 0.99487  0.70010  0.43862  Biso   1.000  O
  O39      1.0000 0.49487  0.79990  0.93862  Biso   1.000  O
  O40      1.0000 0.99487  0.29990  0.93862  Biso   1.000  O
  Cu1      1.0000 0.31784  0.09799  0.66686  Biso   1.000  Cu
  Cu2      1.0000 0.81784  0.59799  0.66686  Biso   1.000  Cu
  Cu3      1.0000 0.31784  0.90201  0.16686  Biso   1.000  Cu
  Cu4      1.0000 0.81784  0.40201  0.16686  Biso   1.000  Cu
  Cu5      1.0000 0.68216  0.90201  0.33314  Biso   1.000  Cu
  Cu6      1.0000 0.18216  0.40201  0.33314  Biso   1.000  Cu
  Cu7      1.0000 0.68216  0.09799  0.83314  Biso   1.000  Cu
  Cu8      1.0000 0.18216  0.59799  0.83314  Biso   1.000  Cu
