data_image0
_cell_length_a       12.558
_cell_length_b       8.086
_cell_length_c       24.48
_cell_angle_alpha    90
_cell_angle_beta     98.07
_cell_angle_gamma    90

_symmetry_space_group_name_H-M    "P 1"
_symmetry_int_tables_number       1

loop_
  _symmetry_equiv_pos_as_xyz
  'x, y, z'

loop_
  _atom_site_label
  _atom_site_occupancy
  _atom_site_fract_x
  _atom_site_fract_y
  _atom_site_fract_z
  _atom_site_thermal_displace_type
  _atom_site_B_iso_or_equiv
  _atom_site_type_symbol
  Cu1      1.0000 0.33052  0.09919  0.06506  Biso   1.000  Cu
  Cu2      1.0000 0.83052  0.40081  0.56506  Biso   1.000  Cu
  Cu3      1.0000 0.66948  0.90081  0.93494  Biso   1.000  Cu
  Cu4      1.0000 0.16948  0.59919  0.43494  Biso   1.000  Cu
  O1       1.0000 0.45800  0.26750  0.14135  Biso   1.000  O
  O2       1.0000 0.95800  0.23250  0.64135  Biso   1.000  O
  O3       1.0000 0.54200  0.73250  0.85865  Biso   1.000  O
  O4       1.0000 0.04200  0.76750  0.35865  Biso   1.000  O
  O5       1.0000 0.48280  0.04770  0.08866  Biso   1.000  O
  O6       1.0000 0.98280  0.45230  0.58866  Biso   1.000  O
  O7       1.0000 0.51720  0.95230  0.91134  Biso   1.000  O
  O8       1.0000 0.01720  0.54770  0.41134  Biso   1.000  O
  O9       1.0000 0.27950  0.96970  0.12397  Biso   1.000  O
  O10      1.0000 0.77950  0.53030  0.62397  Biso   1.000  O
  O11      1.0000 0.72050  0.03030  0.87603  Biso   1.000  O
  O12      1.0000 0.22050  0.46970  0.37603  Biso   1.000  O
  O13      1.0000 0.28650  0.78620  0.05589  Biso   1.000  O
  O14      1.0000 0.78650  0.71380  0.55589  Biso   1.000  O
  O15      1.0000 0.71350  0.21380  0.94411  Biso   1.000  O
  O16      1.0000 0.21350  0.28620  0.44411  Biso   1.000  O
  O17      1.0000 0.94790  0.06380  0.23257  Biso   1.000  O
  O18      1.0000 0.44790  0.43620  0.73257  Biso   1.000  O
  O19      1.0000 0.05210  0.93620  0.76743  Biso   1.000  O
  O20      1.0000 0.55210  0.56380  0.26743  Biso   1.000  O
  O21      1.0000 0.11150  0.30290  0.23034  Biso   1.000  O
  O22      1.0000 0.61150  0.19710  0.73034  Biso   1.000  O
  O23      1.0000 0.88850  0.69710  0.76966  Biso   1.000  O
  O24      1.0000 0.38850  0.80290  0.26966  Biso   1.000  O
  N1       1.0000 0.17600  0.17190  0.03679  Biso   1.000  N
  N2       1.0000 0.67600  0.32810  0.53679  Biso   1.000  N
  N3       1.0000 0.82400  0.82810  0.96321  Biso   1.000  N
  N4       1.0000 0.32400  0.67190  0.46321  Biso   1.000  N
  N5       1.0000 0.36220  0.23680  0.99940  Biso   1.000  N
  N6       1.0000 0.86220  0.26320  0.49940  Biso   1.000  N
  N7       1.0000 0.63780  0.76320  0.00060  Biso   1.000  N
  N8       1.0000 0.13780  0.73680  0.50060  Biso   1.000  N
  C1       1.0000 0.51600  0.15100  0.12770  Biso   1.000  C
  C2       1.0000 0.01600  0.34900  0.62770  Biso   1.000  C
  C3       1.0000 0.48400  0.84900  0.87230  Biso   1.000  C
  C4       1.0000 0.98400  0.65100  0.37230  Biso   1.000  C
  C5       1.0000 0.63040  0.13000  0.15620  Biso   1.000  C
  C6       1.0000 0.13040  0.37000  0.65620  Biso   1.000  C
  C7       1.0000 0.36960  0.87000  0.84380  Biso   1.000  C
  C8       1.0000 0.86960  0.63000  0.34380  Biso   1.000  C
  C9       1.0000 0.66400  0.21510  0.20540  Biso   1.000  C
  C10      1.0000 0.16400  0.28490  0.70540  Biso   1.000  C
  C11      1.0000 0.33600  0.78490  0.79460  Biso   1.000  C
  C12      1.0000 0.83600  0.71510  0.29460  Biso   1.000  C
  H1       1.0000 0.61400  0.28480  0.22080  Biso   1.000  H
  H2       1.0000 0.11400  0.21520  0.72080  Biso   1.000  H
  H3       1.0000 0.38600  0.71520  0.77920  Biso   1.000  H
  H4       1.0000 0.88600  0.78480  0.27920  Biso   1.000  H
  C13      1.0000 0.77080  0.19860  0.23200  Biso   1.000  C
  C14      1.0000 0.27080  0.30140  0.73200  Biso   1.000  C
  C15      1.0000 0.22920  0.80140  0.76800  Biso   1.000  C
  C16      1.0000 0.72920  0.69860  0.26800  Biso   1.000  C
  H5       1.0000 0.79480  0.25820  0.26540  Biso   1.000  H
  H6       1.0000 0.29480  0.24180  0.76540  Biso   1.000  H
  H7       1.0000 0.20520  0.74180  0.73460  Biso   1.000  H
  H8       1.0000 0.70520  0.75820  0.23460  Biso   1.000  H
  C17      1.0000 0.84290  0.09410  0.20960  Biso   1.000  C
  C18      1.0000 0.34290  0.40590  0.70960  Biso   1.000  C
  C19      1.0000 0.15710  0.90590  0.79040  Biso   1.000  C
  C20      1.0000 0.65710  0.59410  0.29040  Biso   1.000  C
  C21      1.0000 0.80910  0.00940  0.16000  Biso   1.000  C
  C22      1.0000 0.30910  0.49060  0.66000  Biso   1.000  C
  C23      1.0000 0.19090  0.99060  0.84000  Biso   1.000  C
  C24      1.0000 0.69090  0.50940  0.34000  Biso   1.000  C
  H9       1.0000 0.85910  0.94160  0.14380  Biso   1.000  H
  H10      1.0000 0.35910  0.55840  0.64380  Biso   1.000  H
  H11      1.0000 0.14090  0.05840  0.85620  Biso   1.000  H
  H12      1.0000 0.64090  0.44160  0.35620  Biso   1.000  H
  C25      1.0000 0.70340  0.02680  0.13440  Biso   1.000  C
  C26      1.0000 0.20340  0.47320  0.63440  Biso   1.000  C
  C27      1.0000 0.29660  0.97320  0.86560  Biso   1.000  C
  C28      1.0000 0.79660  0.52680  0.36560  Biso   1.000  C
  H13      1.0000 0.67960  0.96670  0.10110  Biso   1.000  H
  H14      1.0000 0.17960  0.53330  0.60110  Biso   1.000  H
  H15      1.0000 0.32040  0.03330  0.89890  Biso   1.000  H
  H16      1.0000 0.82040  0.46670  0.39890  Biso   1.000  H
  C29      1.0000 0.99480  0.15530  0.28060  Biso   1.000  C
  C30      1.0000 0.49480  0.34470  0.78060  Biso   1.000  C
  C31      1.0000 0.00520  0.84470  0.71940  Biso   1.000  C
  C32      1.0000 0.50520  0.65530  0.21940  Biso   1.000  C
  H17      1.0000 0.05630  0.09590  0.29840  Biso   1.000  H
  H18      1.0000 0.55630  0.40410  0.79840  Biso   1.000  H
  H19      1.0000 0.94370  0.90410  0.70160  Biso   1.000  H
  H20      1.0000 0.44370  0.59590  0.20160  Biso   1.000  H
  H21      1.0000 0.94340  0.16290  0.30600  Biso   1.000  H
  H22      1.0000 0.44340  0.33710  0.80600  Biso   1.000  H
  H23      1.0000 0.05660  0.83710  0.69400  Biso   1.000  H
  H24      1.0000 0.55660  0.66290  0.19400  Biso   1.000  H
  C33      1.0000 0.03160  0.32820  0.26600  Biso   1.000  C
  C34      1.0000 0.53160  0.17180  0.76600  Biso   1.000  C
  C35      1.0000 0.96840  0.67180  0.73400  Biso   1.000  C
  C36      1.0000 0.46840  0.82820  0.23400  Biso   1.000  C
  H25      1.0000 0.97180  0.38940  0.24730  Biso   1.000  H
  H26      1.0000 0.47180  0.11060  0.74730  Biso   1.000  H
  H27      1.0000 0.02820  0.61060  0.75270  Biso   1.000  H
  H28      1.0000 0.52820  0.88940  0.25270  Biso   1.000  H
  H29      1.0000 0.06130  0.38750  0.29860  Biso   1.000  H
  H30      1.0000 0.56130  0.11250  0.79860  Biso   1.000  H
  H31      1.0000 0.93870  0.61250  0.70140  Biso   1.000  H
  H32      1.0000 0.43870  0.88750  0.20140  Biso   1.000  H
  C37      1.0000 0.14860  0.43730  0.20380  Biso   1.000  C
  C38      1.0000 0.64860  0.06270  0.70380  Biso   1.000  C
  C39      1.0000 0.85140  0.56270  0.79620  Biso   1.000  C
  C40      1.0000 0.35140  0.93730  0.29620  Biso   1.000  C
  C41      1.0000 0.12940  0.60450  0.21530  Biso   1.000  C
  C42      1.0000 0.62940  0.89550  0.71530  Biso   1.000  C
  C43      1.0000 0.87060  0.39550  0.78470  Biso   1.000  C
  C44      1.0000 0.37060  0.10450  0.28470  Biso   1.000  C
  H33      1.0000 0.08830  0.63260  0.24420  Biso   1.000  H
  H34      1.0000 0.58830  0.86740  0.74420  Biso   1.000  H
  H35      1.0000 0.91170  0.36740  0.75580  Biso   1.000  H
  H36      1.0000 0.41170  0.13260  0.25580  Biso   1.000  H
  C45      1.0000 0.16940  0.72760  0.18360  Biso   1.000  C
  C46      1.0000 0.66940  0.77240  0.68360  Biso   1.000  C
  C47      1.0000 0.83060  0.27240  0.81640  Biso   1.000  C
  C48      1.0000 0.33060  0.22760  0.31640  Biso   1.000  C
  H37      1.0000 0.15890  0.84180  0.19220  Biso   1.000  H
  H38      1.0000 0.65890  0.65820  0.69220  Biso   1.000  H
  H39      1.0000 0.84110  0.15820  0.80780  Biso   1.000  H
  H40      1.0000 0.34110  0.34180  0.30780  Biso   1.000  H
  C49      1.0000 0.22600  0.68880  0.13970  Biso   1.000  C
  C50      1.0000 0.72600  0.81120  0.63970  Biso   1.000  C
  C51      1.0000 0.77400  0.31120  0.86030  Biso   1.000  C
  C52      1.0000 0.27400  0.18880  0.36030  Biso   1.000  C
  C53      1.0000 0.24710  0.51980  0.12950  Biso   1.000  C
  C54      1.0000 0.74710  0.98020  0.62950  Biso   1.000  C
  C55      1.0000 0.75290  0.48020  0.87050  Biso   1.000  C
  C56      1.0000 0.25290  0.01980  0.37050  Biso   1.000  C
  H41      1.0000 0.28660  0.49160  0.09990  Biso   1.000  H
  H42      1.0000 0.78660  0.00840  0.59990  Biso   1.000  H
  H43      1.0000 0.71340  0.50840  0.90010  Biso   1.000  H
  H44      1.0000 0.21340  0.99160  0.40010  Biso   1.000  H
  C57      1.0000 0.21030  0.39580  0.16180  Biso   1.000  C
  C58      1.0000 0.71030  0.10420  0.66180  Biso   1.000  C
  C59      1.0000 0.78970  0.60420  0.83820  Biso   1.000  C
  C60      1.0000 0.28970  0.89580  0.33820  Biso   1.000  C
  H45      1.0000 0.22730  0.28190  0.15620  Biso   1.000  H
  H46      1.0000 0.72730  0.21810  0.65620  Biso   1.000  H
  H47      1.0000 0.77270  0.71810  0.84380  Biso   1.000  H
  H48      1.0000 0.27270  0.78190  0.34380  Biso   1.000  H
  C61      1.0000 0.26590  0.82000  0.10360  Biso   1.000  C
  C62      1.0000 0.76590  0.68000  0.60360  Biso   1.000  C
  C63      1.0000 0.73410  0.18000  0.89640  Biso   1.000  C
  C64      1.0000 0.23410  0.32000  0.39640  Biso   1.000  C
  C65      1.0000 0.08440  0.13820  0.05690  Biso   1.000  C
  C66      1.0000 0.58440  0.36180  0.55690  Biso   1.000  C
  C67      1.0000 0.91560  0.86180  0.94310  Biso   1.000  C
  C68      1.0000 0.41560  0.63820  0.44310  Biso   1.000  C
  H49      1.0000 0.08820  0.07360  0.09000  Biso   1.000  H
  H50      1.0000 0.58820  0.42640  0.59000  Biso   1.000  H
  H51      1.0000 0.91180  0.92640  0.91000  Biso   1.000  H
  H52      1.0000 0.41180  0.57360  0.41000  Biso   1.000  H
  C69      1.0000 0.98410  0.19330  0.03140  Biso   1.000  C
  C70      1.0000 0.48410  0.30670  0.53140  Biso   1.000  C
  C71      1.0000 0.01590  0.80670  0.96860  Biso   1.000  C
  C72      1.0000 0.51590  0.69330  0.46860  Biso   1.000  C
  H53      1.0000 0.92020  0.16470  0.04670  Biso   1.000  H
  H54      1.0000 0.42020  0.33530  0.54670  Biso   1.000  H
  H55      1.0000 0.07980  0.83530  0.95330  Biso   1.000  H
  H56      1.0000 0.57980  0.66470  0.45330  Biso   1.000  H
  C73      1.0000 0.97730  0.28790  0.98430  Biso   1.000  C
  C74      1.0000 0.47730  0.21210  0.48430  Biso   1.000  C
  C75      1.0000 0.02270  0.71210  0.01570  Biso   1.000  C
  C76      1.0000 0.52270  0.78790  0.51570  Biso   1.000  C
  H57      1.0000 0.90890  0.32730  0.96670  Biso   1.000  H
  H58      1.0000 0.40890  0.17270  0.46670  Biso   1.000  H
  H59      1.0000 0.09110  0.67270  0.03330  Biso   1.000  H
  H60      1.0000 0.59110  0.82730  0.53330  Biso   1.000  H
  C77      1.0000 0.07200  0.32840  0.96170  Biso   1.000  C
  C78      1.0000 0.57200  0.17160  0.46170  Biso   1.000  C
  C79      1.0000 0.92800  0.67160  0.03830  Biso   1.000  C
  C80      1.0000 0.42800  0.82840  0.53830  Biso   1.000  C
  C81      1.0000 0.16990  0.26720  0.98980  Biso   1.000  C
  C82      1.0000 0.66990  0.23280  0.48980  Biso   1.000  C
  C83      1.0000 0.83010  0.73280  0.01020  Biso   1.000  C
  C84      1.0000 0.33010  0.76720  0.51020  Biso   1.000  C
  C85      1.0000 0.07630  0.43030  0.91310  Biso   1.000  C
  C86      1.0000 0.57630  0.06970  0.41310  Biso   1.000  C
  C87      1.0000 0.92370  0.56970  0.08690  Biso   1.000  C
  C88      1.0000 0.42370  0.93030  0.58690  Biso   1.000  C
  H61      1.0000 0.01030  0.47070  0.89310  Biso   1.000  H
  H62      1.0000 0.51030  0.02930  0.39310  Biso   1.000  H
  H63      1.0000 0.98970  0.52930  0.10690  Biso   1.000  H
  H64      1.0000 0.48970  0.97070  0.60690  Biso   1.000  H
  C89      1.0000 0.17100  0.47010  0.89560  Biso   1.000  C
  C90      1.0000 0.67100  0.02990  0.39560  Biso   1.000  C
  C91      1.0000 0.82900  0.52990  0.10440  Biso   1.000  C
  C92      1.0000 0.32900  0.97010  0.60440  Biso   1.000  C
  H65      1.0000 0.17110  0.53890  0.86370  Biso   1.000  H
  H66      1.0000 0.67110  0.96110  0.36370  Biso   1.000  H
  H67      1.0000 0.82890  0.46110  0.13630  Biso   1.000  H
  H68      1.0000 0.32890  0.03890  0.63630  Biso   1.000  H
  C93      1.0000 0.27360  0.41090  0.92370  Biso   1.000  C
  C94      1.0000 0.77360  0.08910  0.42370  Biso   1.000  C
  C95      1.0000 0.72640  0.58910  0.07630  Biso   1.000  C
  C96      1.0000 0.22640  0.91090  0.57630  Biso   1.000  C
  C97      1.0000 0.27140  0.30750  0.97060  Biso   1.000  C
  C98      1.0000 0.77140  0.19250  0.47060  Biso   1.000  C
  C99      1.0000 0.72860  0.69250  0.02940  Biso   1.000  C
  C100     1.0000 0.22860  0.80750  0.52940  Biso   1.000  C
  C101     1.0000 0.37630  0.44380  0.90810  Biso   1.000  C
  C102     1.0000 0.87630  0.05620  0.40810  Biso   1.000  C
  C103     1.0000 0.62370  0.55620  0.09190  Biso   1.000  C
  C104     1.0000 0.12370  0.94380  0.59190  Biso   1.000  C
  H69      1.0000 0.38210  0.51570  0.87750  Biso   1.000  H
  H70      1.0000 0.88210  0.98430  0.37750  Biso   1.000  H
  H71      1.0000 0.61790  0.48430  0.12250  Biso   1.000  H
  H72      1.0000 0.11790  0.01570  0.62250  Biso   1.000  H
  C105     1.0000 0.46680  0.37390  0.93710  Biso   1.000  C
  C106     1.0000 0.96680  0.12610  0.43710  Biso   1.000  C
  C107     1.0000 0.53320  0.62610  0.06290  Biso   1.000  C
  C108     1.0000 0.03320  0.87390  0.56290  Biso   1.000  C
  H73      1.0000 0.53600  0.39730  0.92660  Biso   1.000  H
  H74      1.0000 0.03600  0.10270  0.42660  Biso   1.000  H
  H75      1.0000 0.46400  0.60270  0.07340  Biso   1.000  H
  H76      1.0000 0.96400  0.89730  0.57340  Biso   1.000  H
  C109     1.0000 0.45840  0.26810  0.98290  Biso   1.000  C
  C110     1.0000 0.95840  0.23190  0.48290  Biso   1.000  C
  C111     1.0000 0.54160  0.73190  0.01710  Biso   1.000  C
  C112     1.0000 0.04160  0.76810  0.51710  Biso   1.000  C
  H77      1.0000 0.52180  0.21660  0.00200  Biso   1.000  H
  H78      1.0000 0.02180  0.28340  0.50200  Biso   1.000  H
  H79      1.0000 0.47820  0.78340  0.99800  Biso   1.000  H
  H80      1.0000 0.97820  0.71660  0.49800  Biso   1.000  H
