data_image0
_cell_length_a       7.9395
_cell_length_b       36.786
_cell_length_c       12.7184
_cell_angle_alpha    90
_cell_angle_beta     91.804
_cell_angle_gamma    90

_symmetry_space_group_name_H-M    "P 1"
_symmetry_int_tables_number       1

loop_
  _symmetry_equiv_pos_as_xyz
  'x, y, z'

loop_
  _atom_site_label
  _atom_site_occupancy
  _atom_site_fract_x
  _atom_site_fract_y
  _atom_site_fract_z
  _atom_site_thermal_displace_type
  _atom_site_B_iso_or_equiv
  _atom_site_type_symbol
  Cu1      1.0000 0.00000  0.50000  0.50000  Biso   1.000  Cu
  Cu2      1.0000 0.00000  0.00000  0.00000  Biso   1.000  Cu
  Cu3      1.0000 0.50000  0.50000  0.50000  Biso   1.000  Cu
  Cu4      1.0000 0.50000  0.00000  0.00000  Biso   1.000  Cu
  O1       1.0000 0.41550  0.43069  0.90950  Biso   1.000  O
  O2       1.0000 0.41550  0.06931  0.40950  Biso   1.000  O
  O3       1.0000 0.58450  0.56931  0.09050  Biso   1.000  O
  O4       1.0000 0.58450  0.93069  0.59050  Biso   1.000  O
  N1       1.0000 0.15620  0.53117  0.59170  Biso   1.000  N
  N2       1.0000 0.15620  0.96883  0.09170  Biso   1.000  N
  N3       1.0000 0.84380  0.46883  0.40830  Biso   1.000  N
  N4       1.0000 0.84380  0.03117  0.90830  Biso   1.000  N
  N5       1.0000 0.33110  0.53082  0.59660  Biso   1.000  N
  N6       1.0000 0.33110  0.96918  0.09660  Biso   1.000  N
  N7       1.0000 0.66890  0.46918  0.40340  Biso   1.000  N
  N8       1.0000 0.66890  0.03082  0.90340  Biso   1.000  N
  C1       1.0000 0.37660  0.55640  0.66230  Biso   1.000  C
  C2       1.0000 0.37660  0.94360  0.16230  Biso   1.000  C
  C3       1.0000 0.62340  0.44360  0.33770  Biso   1.000  C
  C4       1.0000 0.62340  0.05640  0.83770  Biso   1.000  C
  N9       1.0000 0.24350  0.57346  0.70020  Biso   1.000  N
  N10      1.0000 0.24350  0.92654  0.20020  Biso   1.000  N
  N11      1.0000 0.75650  0.42654  0.29980  Biso   1.000  N
  N12      1.0000 0.75650  0.07346  0.79980  Biso   1.000  N
  C5       1.0000 0.10780  0.55700  0.65440  Biso   1.000  C
  C6       1.0000 0.10780  0.94300  0.15440  Biso   1.000  C
  C7       1.0000 0.89220  0.44300  0.34560  Biso   1.000  C
  C8       1.0000 0.89220  0.05700  0.84560  Biso   1.000  C
  C9       1.0000 0.24390  0.60700  0.76410  Biso   1.000  C
  C10      1.0000 0.24390  0.89300  0.26410  Biso   1.000  C
  C11      1.0000 0.75610  0.39300  0.23590  Biso   1.000  C
  C12      1.0000 0.75610  0.10700  0.73590  Biso   1.000  C
  C13      1.0000 0.28150  0.64010  0.70030  Biso   1.000  C
  C14      1.0000 0.28150  0.85990  0.20030  Biso   1.000  C
  C15      1.0000 0.71850  0.35990  0.29970  Biso   1.000  C
  C16      1.0000 0.71850  0.14010  0.79970  Biso   1.000  C
  C17      1.0000 0.17930  0.64580  0.60240  Biso   1.000  C
  C18      1.0000 0.17930  0.85420  0.10240  Biso   1.000  C
  C19      1.0000 0.82070  0.35420  0.39760  Biso   1.000  C
  C20      1.0000 0.82070  0.14580  0.89760  Biso   1.000  C
  O5       1.0000 0.22050  0.62070  0.52160  Biso   1.000  O
  O6       1.0000 0.22050  0.87930  0.02160  Biso   1.000  O
  O7       1.0000 0.77950  0.37930  0.47840  Biso   1.000  O
  O8       1.0000 0.77950  0.12070  0.97840  Biso   1.000  O
  N13      1.0000 0.13640  0.51201  0.37150  Biso   1.000  N
  N14      1.0000 0.13640  0.98799  0.87150  Biso   1.000  N
  N15      1.0000 0.86360  0.48799  0.62850  Biso   1.000  N
  N16      1.0000 0.86360  0.01201  0.12850  Biso   1.000  N
  N17      1.0000 0.31060  0.51079  0.36800  Biso   1.000  N
  N18      1.0000 0.31060  0.98921  0.86800  Biso   1.000  N
  N19      1.0000 0.68940  0.48921  0.63200  Biso   1.000  N
  N20      1.0000 0.68940  0.01079  0.13200  Biso   1.000  N
  C21      1.0000 0.34600  0.51870  0.27120  Biso   1.000  C
  C22      1.0000 0.34600  0.98130  0.77120  Biso   1.000  C
  C23      1.0000 0.65400  0.48130  0.72880  Biso   1.000  C
  C24      1.0000 0.65400  0.01870  0.22880  Biso   1.000  C
  N21      1.0000 0.20540  0.52480  0.21220  Biso   1.000  N
  N22      1.0000 0.20540  0.97520  0.71220  Biso   1.000  N
  N23      1.0000 0.79460  0.47520  0.78780  Biso   1.000  N
  N24      1.0000 0.79460  0.02480  0.28780  Biso   1.000  N
  C25      1.0000 0.07990  0.52050  0.27810  Biso   1.000  C
  C26      1.0000 0.07990  0.97950  0.77810  Biso   1.000  C
  C27      1.0000 0.92010  0.47950  0.72190  Biso   1.000  C
  C28      1.0000 0.92010  0.02050  0.22190  Biso   1.000  C
  C29      1.0000 0.19610  0.53610  0.10060  Biso   1.000  C
  C30      1.0000 0.19610  0.96390  0.60060  Biso   1.000  C
  C31      1.0000 0.80390  0.46390  0.89940  Biso   1.000  C
  C32      1.0000 0.80390  0.03610  0.39940  Biso   1.000  C
  C33      1.0000 0.24230  0.50620  0.02750  Biso   1.000  C
  C34      1.0000 0.24230  0.99380  0.52750  Biso   1.000  C
  C35      1.0000 0.75770  0.49380  0.97250  Biso   1.000  C
  C36      1.0000 0.75770  0.00620  0.47250  Biso   1.000  C
  C37      1.0000 0.25020  0.51990  0.91680  Biso   1.000  C
  C38      1.0000 0.25020  0.98010  0.41680  Biso   1.000  C
  C39      1.0000 0.74980  0.48010  0.08320  Biso   1.000  C
  C40      1.0000 0.74980  0.01990  0.58320  Biso   1.000  C
  O9       1.0000 0.27260  0.49242  0.84020  Biso   1.000  O
  O10      1.0000 0.27260  0.00758  0.34020  Biso   1.000  O
  O11      1.0000 0.72740  0.50758  0.15980  Biso   1.000  O
  O12      1.0000 0.72740  0.99242  0.65980  Biso   1.000  O
  N25      1.0000 0.19960  0.45156  0.53300  Biso   1.000  N
  N26      1.0000 0.19960  0.04844  0.03300  Biso   1.000  N
  N27      1.0000 0.80040  0.54844  0.46700  Biso   1.000  N
  N28      1.0000 0.80040  0.95156  0.96700  Biso   1.000  N
  N29      1.0000 0.37370  0.45371  0.53310  Biso   1.000  N
  N30      1.0000 0.37370  0.04629  0.03310  Biso   1.000  N
  N31      1.0000 0.62630  0.54629  0.46690  Biso   1.000  N
  N32      1.0000 0.62630  0.95371  0.96690  Biso   1.000  N
  C41      1.0000 0.43010  0.42070  0.54260  Biso   1.000  C
  C42      1.0000 0.43010  0.07930  0.04260  Biso   1.000  C
  C43      1.0000 0.56990  0.57930  0.45740  Biso   1.000  C
  C44      1.0000 0.56990  0.92070  0.95740  Biso   1.000  C
  N33      1.0000 0.30560  0.39661  0.54750  Biso   1.000  N
  N34      1.0000 0.30560  0.10339  0.04750  Biso   1.000  N
  N35      1.0000 0.69440  0.60339  0.45250  Biso   1.000  N
  N36      1.0000 0.69440  0.89661  0.95250  Biso   1.000  N
  C45      1.0000 0.16380  0.41720  0.54300  Biso   1.000  C
  C46      1.0000 0.16380  0.08280  0.04300  Biso   1.000  C
  C47      1.0000 0.83620  0.58280  0.45700  Biso   1.000  C
  C48      1.0000 0.83620  0.91720  0.95700  Biso   1.000  C
  C49      1.0000 0.31720  0.35640  0.54820  Biso   1.000  C
  C50      1.0000 0.31720  0.14360  0.04820  Biso   1.000  C
  C51      1.0000 0.68280  0.64360  0.45180  Biso   1.000  C
  C52      1.0000 0.68280  0.85640  0.95180  Biso   1.000  C
  C53      1.0000 0.37100  0.33960  0.64000  Biso   1.000  C
  C54      1.0000 0.37100  0.16040  0.14000  Biso   1.000  C
  C55      1.0000 0.62900  0.66040  0.36000  Biso   1.000  C
  C56      1.0000 0.62900  0.83960  0.86000  Biso   1.000  C
  C57      1.0000 0.28630  0.34410  0.74260  Biso   1.000  C
  C58      1.0000 0.28630  0.15590  0.24260  Biso   1.000  C
  C59      1.0000 0.71370  0.65590  0.25740  Biso   1.000  C
  C60      1.0000 0.71370  0.84410  0.75740  Biso   1.000  C
  O13      1.0000 0.26680  0.38099  0.77120  Biso   1.000  O
  O14      1.0000 0.26680  0.11901  0.27120  Biso   1.000  O
  O15      1.0000 0.73320  0.61901  0.22880  Biso   1.000  O
  O16      1.0000 0.73320  0.88099  0.72880  Biso   1.000  O
  C61      1.0000 0.17410  0.35560  0.15050  Biso   1.000  C
  C62      1.0000 0.17410  0.14440  0.65050  Biso   1.000  C
  C63      1.0000 0.82590  0.64440  0.84950  Biso   1.000  C
  C64      1.0000 0.82590  0.85560  0.34950  Biso   1.000  C
  C65      1.0000 0.19320  0.33040  0.22970  Biso   1.000  C
  C66      1.0000 0.19320  0.16960  0.72970  Biso   1.000  C
  C67      1.0000 0.80680  0.66960  0.77030  Biso   1.000  C
  C68      1.0000 0.80680  0.83040  0.27030  Biso   1.000  C
  C69      1.0000 0.13990  0.29530  0.21470  Biso   1.000  C
  C70      1.0000 0.13990  0.20470  0.71470  Biso   1.000  C
  C71      1.0000 0.86010  0.70470  0.78530  Biso   1.000  C
  C72      1.0000 0.86010  0.79530  0.28530  Biso   1.000  C
  C73      1.0000 0.06510  0.28450  0.12110  Biso   1.000  C
  C74      1.0000 0.06510  0.21550  0.62110  Biso   1.000  C
  C75      1.0000 0.93490  0.71550  0.87890  Biso   1.000  C
  C76      1.0000 0.93490  0.78450  0.37890  Biso   1.000  C
  C77      1.0000 0.04870  0.30960  0.04090  Biso   1.000  C
  C78      1.0000 0.04870  0.19040  0.54090  Biso   1.000  C
  C79      1.0000 0.95130  0.69040  0.95910  Biso   1.000  C
  C80      1.0000 0.95130  0.80960  0.45910  Biso   1.000  C
  C81      1.0000 0.10140  0.34480  0.05470  Biso   1.000  C
  C82      1.0000 0.10140  0.15520  0.55470  Biso   1.000  C
  C83      1.0000 0.89860  0.65520  0.94530  Biso   1.000  C
  C84      1.0000 0.89860  0.84480  0.44530  Biso   1.000  C
  S1       1.0000 0.24020  0.40154  0.17057  Biso   1.000  S
  S2       1.0000 0.24020  0.09846  0.67057  Biso   1.000  S
  S3       1.0000 0.75980  0.59846  0.82943  Biso   1.000  S
  S4       1.0000 0.75980  0.90154  0.32943  Biso   1.000  S
  O17      1.0000 0.26320  0.40559  0.28350  Biso   1.000  O
  O18      1.0000 0.26320  0.09441  0.78350  Biso   1.000  O
  O19      1.0000 0.73680  0.59441  0.71650  Biso   1.000  O
  O20      1.0000 0.73680  0.90559  0.21650  Biso   1.000  O
  O21      1.0000 0.39600  0.40509  0.11510  Biso   1.000  O
  O22      1.0000 0.39600  0.09491  0.61510  Biso   1.000  O
  O23      1.0000 0.60400  0.59491  0.88490  Biso   1.000  O
  O24      1.0000 0.60400  0.90509  0.38490  Biso   1.000  O
  O25      1.0000 0.10520  0.42353  0.12650  Biso   1.000  O
  O26      1.0000 0.10520  0.07647  0.62650  Biso   1.000  O
  O27      1.0000 0.89480  0.57647  0.87350  Biso   1.000  O
  O28      1.0000 0.89480  0.92353  0.37350  Biso   1.000  O
  N37      1.0000 0.16670  0.27030  0.30340  Biso   1.000  N
  N38      1.0000 0.16670  0.22970  0.80340  Biso   1.000  N
  N39      1.0000 0.83330  0.72970  0.69660  Biso   1.000  N
  N40      1.0000 0.83330  0.77030  0.19660  Biso   1.000  N
  O29      1.0000 0.15480  0.28350  0.39200  Biso   1.000  O
  O30      1.0000 0.15480  0.21650  0.89200  Biso   1.000  O
  O31      1.0000 0.84520  0.71650  0.60800  Biso   1.000  O
  O32      1.0000 0.84520  0.78350  0.10800  Biso   1.000  O
  O33      1.0000 0.20870  0.23980  0.28770  Biso   1.000  O
  O34      1.0000 0.20870  0.26020  0.78770  Biso   1.000  O
  O35      1.0000 0.79130  0.76020  0.71230  Biso   1.000  O
  O36      1.0000 0.79130  0.73980  0.21230  Biso   1.000  O
  Cl1      1.0000 0.98280  0.24147  0.10060  Biso   1.000  Cl
  Cl2      1.0000 0.98280  0.25853  0.60060  Biso   1.000  Cl
  Cl3      1.0000 0.01720  0.75853  0.89940  Biso   1.000  Cl
  Cl4      1.0000 0.01720  0.74147  0.39940  Biso   1.000  Cl
  C85      1.0000 0.28310  0.66090  0.15430  Biso   1.000  C
  C86      1.0000 0.28310  0.83910  0.65430  Biso   1.000  C
  C87      1.0000 0.71690  0.33910  0.84570  Biso   1.000  C
  C88      1.0000 0.71690  0.16090  0.34570  Biso   1.000  C
  C89      1.0000 0.28390  0.69740  0.17860  Biso   1.000  C
  C90      1.0000 0.28390  0.80260  0.67860  Biso   1.000  C
  C91      1.0000 0.71610  0.30260  0.82140  Biso   1.000  C
  C92      1.0000 0.71610  0.19740  0.32140  Biso   1.000  C
  C93      1.0000 0.35450  0.72170  0.11030  Biso   1.000  C
  C94      1.0000 0.35450  0.77830  0.61030  Biso   1.000  C
  C95      1.0000 0.64550  0.27830  0.88970  Biso   1.000  C
  C96      1.0000 0.64550  0.22170  0.38970  Biso   1.000  C
  C97      1.0000 0.42610  0.71050  0.01860  Biso   1.000  C
  C98      1.0000 0.42610  0.78950  0.51860  Biso   1.000  C
  C99      1.0000 0.57390  0.28950  0.98140  Biso   1.000  C
  C100     1.0000 0.57390  0.21050  0.48140  Biso   1.000  C
  C101     1.0000 0.42470  0.67370  0.99470  Biso   1.000  C
  C102     1.0000 0.42470  0.82630  0.49470  Biso   1.000  C
  C103     1.0000 0.57530  0.32630  0.00530  Biso   1.000  C
  C104     1.0000 0.57530  0.17370  0.50530  Biso   1.000  C
  C105     1.0000 0.35540  0.64930  0.06170  Biso   1.000  C
  C106     1.0000 0.35540  0.85070  0.56170  Biso   1.000  C
  C107     1.0000 0.64460  0.35070  0.93830  Biso   1.000  C
  C108     1.0000 0.64460  0.14930  0.43830  Biso   1.000  C
  S5       1.0000 0.19160  0.62864  0.23965  Biso   1.000  S
  S6       1.0000 0.19160  0.87136  0.73965  Biso   1.000  S
  S7       1.0000 0.80840  0.37136  0.76035  Biso   1.000  S
  S8       1.0000 0.80840  0.12864  0.26035  Biso   1.000  S
  O37      1.0000 0.13370  0.64958  0.32860  Biso   1.000  O
  O38      1.0000 0.13370  0.85042  0.82860  Biso   1.000  O
  O39      1.0000 0.86630  0.35042  0.67140  Biso   1.000  O
  O40      1.0000 0.86630  0.14958  0.17140  Biso   1.000  O
  O41      1.0000 0.32240  0.60277  0.26730  Biso   1.000  O
  O42      1.0000 0.32240  0.89723  0.76730  Biso   1.000  O
  O43      1.0000 0.67760  0.39723  0.73270  Biso   1.000  O
  O44      1.0000 0.67760  0.10277  0.23270  Biso   1.000  O
  O45      1.0000 0.05500  0.61283  0.17620  Biso   1.000  O
  O46      1.0000 0.05500  0.88717  0.67620  Biso   1.000  O
  O47      1.0000 0.94500  0.38717  0.82380  Biso   1.000  O
  O48      1.0000 0.94500  0.11283  0.32380  Biso   1.000  O
  N41      1.0000 0.35100  0.76020  0.14540  Biso   1.000  N
  N42      1.0000 0.35100  0.73980  0.64540  Biso   1.000  N
  N43      1.0000 0.64900  0.23980  0.85460  Biso   1.000  N
  N44      1.0000 0.64900  0.26020  0.35460  Biso   1.000  N
  O49      1.0000 0.22710  0.77000  0.19180  Biso   1.000  O
  O50      1.0000 0.22710  0.73000  0.69180  Biso   1.000  O
  O51      1.0000 0.77290  0.23000  0.80820  Biso   1.000  O
  O52      1.0000 0.77290  0.27000  0.30820  Biso   1.000  O
  O53      1.0000 0.46110  0.77980  0.12660  Biso   1.000  O
  O54      1.0000 0.46110  0.72020  0.62660  Biso   1.000  O
  O55      1.0000 0.53890  0.22020  0.87340  Biso   1.000  O
  O56      1.0000 0.53890  0.27980  0.37340  Biso   1.000  O
  Cl5      1.0000 0.51170  0.73978  0.92870  Biso   1.000  Cl
  Cl6      1.0000 0.51170  0.76022  0.42870  Biso   1.000  Cl
  Cl7      1.0000 0.48830  0.26022  0.07130  Biso   1.000  Cl
  Cl8      1.0000 0.48830  0.23978  0.57130  Biso   1.000  Cl
  H1       1.0000 0.37200  0.41010  0.86600  Biso   1.000  H
  H2       1.0000 0.37200  0.08990  0.36600  Biso   1.000  H
  H3       1.0000 0.62800  0.58990  0.13400  Biso   1.000  H
  H4       1.0000 0.62800  0.91010  0.63400  Biso   1.000  H
  H5       1.0000 0.37800  0.42040  0.98000  Biso   1.000  H
  H6       1.0000 0.37800  0.07960  0.48000  Biso   1.000  H
  H7       1.0000 0.62200  0.57960  0.02000  Biso   1.000  H
  H8       1.0000 0.62200  0.92040  0.52000  Biso   1.000  H
  H9       1.0000 0.47600  0.56120  0.67800  Biso   1.000  H
  H10      1.0000 0.47600  0.93880  0.17800  Biso   1.000  H
  H11      1.0000 0.52400  0.43880  0.32200  Biso   1.000  H
  H12      1.0000 0.52400  0.06120  0.82200  Biso   1.000  H
  H13      1.0000 0.99300  0.56320  0.66900  Biso   1.000  H
  H14      1.0000 0.99300  0.93680  0.16900  Biso   1.000  H
  H15      1.0000 0.00700  0.43680  0.33100  Biso   1.000  H
  H16      1.0000 0.00700  0.06320  0.83100  Biso   1.000  H
  H17      1.0000 0.32800  0.60420  0.82100  Biso   1.000  H
  H18      1.0000 0.32800  0.89580  0.32100  Biso   1.000  H
  H19      1.0000 0.67200  0.39580  0.17900  Biso   1.000  H
  H20      1.0000 0.67200  0.10420  0.67900  Biso   1.000  H
  H21      1.0000 0.14100  0.60830  0.78900  Biso   1.000  H
  H22      1.0000 0.14100  0.89170  0.28900  Biso   1.000  H
  H23      1.0000 0.85900  0.39170  0.21100  Biso   1.000  H
  H24      1.0000 0.85900  0.10830  0.71100  Biso   1.000  H
  H25      1.0000 0.26800  0.66090  0.74800  Biso   1.000  H
  H26      1.0000 0.26800  0.83910  0.24800  Biso   1.000  H
  H27      1.0000 0.73200  0.33910  0.25200  Biso   1.000  H
  H28      1.0000 0.73200  0.16090  0.75200  Biso   1.000  H
  H29      1.0000 0.39400  0.63850  0.67600  Biso   1.000  H
  H30      1.0000 0.39400  0.86150  0.17600  Biso   1.000  H
  H31      1.0000 0.60600  0.36150  0.32400  Biso   1.000  H
  H32      1.0000 0.60600  0.13850  0.82400  Biso   1.000  H
  H33      1.0000 0.20700  0.67100  0.57700  Biso   1.000  H
  H34      1.0000 0.20700  0.82900  0.07700  Biso   1.000  H
  H35      1.0000 0.79300  0.32900  0.42300  Biso   1.000  H
  H36      1.0000 0.79300  0.17100  0.92300  Biso   1.000  H
  H37      1.0000 0.05700  0.64200  0.62200  Biso   1.000  H
  H38      1.0000 0.05700  0.85800  0.12200  Biso   1.000  H
  H39      1.0000 0.94300  0.35800  0.37800  Biso   1.000  H
  H40      1.0000 0.94300  0.14200  0.87800  Biso   1.000  H
  H41      1.0000 0.19500  0.63100  0.44800  Biso   1.000  H
  H42      1.0000 0.19500  0.86900  0.94800  Biso   1.000  H
  H43      1.0000 0.80500  0.36900  0.55200  Biso   1.000  H
  H44      1.0000 0.80500  0.13100  0.05200  Biso   1.000  H
  H45      1.0000 0.45300  0.52020  0.24500  Biso   1.000  H
  H46      1.0000 0.45300  0.97980  0.74500  Biso   1.000  H
  H47      1.0000 0.54700  0.47980  0.75500  Biso   1.000  H
  H48      1.0000 0.54700  0.02020  0.25500  Biso   1.000  H
  H49      1.0000 0.97900  0.52310  0.26200  Biso   1.000  H
  H50      1.0000 0.97900  0.97690  0.76200  Biso   1.000  H
  H51      1.0000 0.02100  0.47690  0.73800  Biso   1.000  H
  H52      1.0000 0.02100  0.02310  0.23800  Biso   1.000  H
  H53      1.0000 0.09000  0.54490  0.08800  Biso   1.000  H
  H54      1.0000 0.09000  0.95510  0.58800  Biso   1.000  H
  H55      1.0000 0.91000  0.45510  0.91200  Biso   1.000  H
  H56      1.0000 0.91000  0.04490  0.41200  Biso   1.000  H
  H57      1.0000 0.27800  0.55510  0.09800  Biso   1.000  H
  H58      1.0000 0.27800  0.94490  0.59800  Biso   1.000  H
  H59      1.0000 0.72200  0.44490  0.90200  Biso   1.000  H
  H60      1.0000 0.72200  0.05510  0.40200  Biso   1.000  H
  H61      1.0000 0.16200  0.48700  0.03100  Biso   1.000  H
  H62      1.0000 0.16200  0.01300  0.53100  Biso   1.000  H
  H63      1.0000 0.83800  0.51300  0.96900  Biso   1.000  H
  H64      1.0000 0.83800  0.98700  0.46900  Biso   1.000  H
  H65      1.0000 0.33800  0.49840  0.04800  Biso   1.000  H
  H66      1.0000 0.33800  0.00160  0.54800  Biso   1.000  H
  H67      1.0000 0.66200  0.50160  0.95200  Biso   1.000  H
  H68      1.0000 0.66200  0.99840  0.45200  Biso   1.000  H
  H69      1.0000 0.15000  0.53080  0.89700  Biso   1.000  H
  H70      1.0000 0.15000  0.96920  0.39700  Biso   1.000  H
  H71      1.0000 0.85000  0.46920  0.10300  Biso   1.000  H
  H72      1.0000 0.85000  0.03080  0.60300  Biso   1.000  H
  H73      1.0000 0.33200  0.53780  0.91000  Biso   1.000  H
  H74      1.0000 0.33200  0.96220  0.41000  Biso   1.000  H
  H75      1.0000 0.66800  0.46220  0.09000  Biso   1.000  H
  H76      1.0000 0.66800  0.03780  0.59000  Biso   1.000  H
  H77      1.0000 0.33100  0.46910  0.87300  Biso   1.000  H
  H78      1.0000 0.33100  0.03090  0.37300  Biso   1.000  H
  H79      1.0000 0.66900  0.53090  0.12700  Biso   1.000  H
  H80      1.0000 0.66900  0.96910  0.62700  Biso   1.000  H
  H81      1.0000 0.53700  0.41490  0.54200  Biso   1.000  H
  H82      1.0000 0.53700  0.08510  0.04200  Biso   1.000  H
  H83      1.0000 0.46300  0.58510  0.45800  Biso   1.000  H
  H84      1.0000 0.46300  0.91490  0.95800  Biso   1.000  H
  H85      1.0000 0.05000  0.40780  0.54600  Biso   1.000  H
  H86      1.0000 0.05000  0.09220  0.04600  Biso   1.000  H
  H87      1.0000 0.95000  0.59220  0.45400  Biso   1.000  H
  H88      1.0000 0.95000  0.90780  0.95400  Biso   1.000  H
  H89      1.0000 0.19500  0.34400  0.54800  Biso   1.000  H
  H90      1.0000 0.19500  0.15600  0.04800  Biso   1.000  H
  H91      1.0000 0.80500  0.65600  0.45200  Biso   1.000  H
  H92      1.0000 0.80500  0.84400  0.95200  Biso   1.000  H
  H93      1.0000 0.38000  0.34720  0.48300  Biso   1.000  H
  H94      1.0000 0.38000  0.15280  0.98300  Biso   1.000  H
  H95      1.0000 0.62000  0.65280  0.51700  Biso   1.000  H
  H96      1.0000 0.62000  0.84720  0.01700  Biso   1.000  H
  H97      1.0000 0.37900  0.31090  0.62900  Biso   1.000  H
  H98      1.0000 0.37900  0.18910  0.12900  Biso   1.000  H
  H99      1.0000 0.62100  0.68910  0.37100  Biso   1.000  H
  H100     1.0000 0.62100  0.81090  0.87100  Biso   1.000  H
  H101     1.0000 0.51300  0.35600  0.64300  Biso   1.000  H
  H102     1.0000 0.51300  0.14400  0.14300  Biso   1.000  H
  H103     1.0000 0.48700  0.64400  0.35700  Biso   1.000  H
  H104     1.0000 0.48700  0.85600  0.85700  Biso   1.000  H
  H105     1.0000 0.17200  0.32980  0.74700  Biso   1.000  H
  H106     1.0000 0.17200  0.17020  0.24700  Biso   1.000  H
  H107     1.0000 0.82800  0.67020  0.25300  Biso   1.000  H
  H108     1.0000 0.82800  0.82980  0.75300  Biso   1.000  H
  H109     1.0000 0.35600  0.32940  0.80000  Biso   1.000  H
  H110     1.0000 0.35600  0.17060  0.30000  Biso   1.000  H
  H111     1.0000 0.64400  0.67060  0.20000  Biso   1.000  H
  H112     1.0000 0.64400  0.82940  0.70000  Biso   1.000  H
  H113     1.0000 0.14700  0.38850  0.80600  Biso   1.000  H
  H114     1.0000 0.14700  0.11150  0.30600  Biso   1.000  H
  H115     1.0000 0.85300  0.61150  0.19400  Biso   1.000  H
  H116     1.0000 0.85300  0.88850  0.69400  Biso   1.000  H
  H117     1.0000 0.24100  0.33590  0.28800  Biso   1.000  H
  H118     1.0000 0.24100  0.16410  0.78800  Biso   1.000  H
  H119     1.0000 0.75900  0.66410  0.71200  Biso   1.000  H
  H120     1.0000 0.75900  0.83590  0.21200  Biso   1.000  H
  H121     1.0000 0.99600  0.30280  0.98600  Biso   1.000  H
  H122     1.0000 0.99600  0.19720  0.48600  Biso   1.000  H
  H123     1.0000 0.00400  0.69720  0.01400  Biso   1.000  H
  H124     1.0000 0.00400  0.80280  0.51400  Biso   1.000  H
  H125     1.0000 0.08900  0.36060  0.00700  Biso   1.000  H
  H126     1.0000 0.08900  0.13940  0.50700  Biso   1.000  H
  H127     1.0000 0.91100  0.63940  0.99300  Biso   1.000  H
  H128     1.0000 0.91100  0.86060  0.49300  Biso   1.000  H
  H129     1.0000 0.23600  0.70510  0.24100  Biso   1.000  H
  H130     1.0000 0.23600  0.79490  0.74100  Biso   1.000  H
  H131     1.0000 0.76400  0.29490  0.75900  Biso   1.000  H
  H132     1.0000 0.76400  0.20510  0.25900  Biso   1.000  H
  H133     1.0000 0.47200  0.66600  0.93200  Biso   1.000  H
  H134     1.0000 0.47200  0.83400  0.43200  Biso   1.000  H
  H135     1.0000 0.52800  0.33400  0.06800  Biso   1.000  H
  H136     1.0000 0.52800  0.16600  0.56800  Biso   1.000  H
  H137     1.0000 0.35000  0.62610  0.04600  Biso   1.000  H
  H138     1.0000 0.35000  0.87390  0.54600  Biso   1.000  H
  H139     1.0000 0.65000  0.37390  0.95400  Biso   1.000  H
  H140     1.0000 0.65000  0.12610  0.45400  Biso   1.000  H
