data_image0
_cell_length_a       8.211
_cell_length_b       13.4308
_cell_length_c       25.664
_cell_angle_alpha    90
_cell_angle_beta     90
_cell_angle_gamma    90

_symmetry_space_group_name_H-M    "P 1"
_symmetry_int_tables_number       1

loop_
  _symmetry_equiv_pos_as_xyz
  'x, y, z'

loop_
  _atom_site_label
  _atom_site_occupancy
  _atom_site_fract_x
  _atom_site_fract_y
  _atom_site_fract_z
  _atom_site_thermal_displace_type
  _atom_site_B_iso_or_equiv
  _atom_site_type_symbol
  Cu1      1.0000 0.84362  0.30980  0.00293  Biso   1.000  Cu
  Cu2      1.0000 0.65638  0.69020  0.50293  Biso   1.000  Cu
  Cu3      1.0000 0.15638  0.80980  0.49707  Biso   1.000  Cu
  Cu4      1.0000 0.34362  0.19020  0.99707  Biso   1.000  Cu
  P1       1.0000 0.13500  0.31191  0.07429  Biso   1.000  P
  P2       1.0000 0.36500  0.68809  0.57429  Biso   1.000  P
  P3       1.0000 0.86500  0.81191  0.42571  Biso   1.000  P
  P4       1.0000 0.63500  0.18809  0.92571  Biso   1.000  P
  O1       1.0000 0.98120  0.36310  0.05660  Biso   1.000  O
  O2       1.0000 0.51880  0.63690  0.55660  Biso   1.000  O
  O3       1.0000 0.01880  0.86310  0.44340  Biso   1.000  O
  O4       1.0000 0.48120  0.13690  0.94340  Biso   1.000  O
  C1       1.0000 0.15670  0.17930  0.21610  Biso   1.000  C
  C2       1.0000 0.34330  0.82070  0.71610  Biso   1.000  C
  C3       1.0000 0.84330  0.67930  0.28390  Biso   1.000  C
  C4       1.0000 0.65670  0.32070  0.78390  Biso   1.000  C
  C5       1.0000 0.11930  0.28820  0.14320  Biso   1.000  C
  C6       1.0000 0.38070  0.71180  0.64320  Biso   1.000  C
  C7       1.0000 0.88070  0.78820  0.35680  Biso   1.000  C
  C8       1.0000 0.61930  0.21180  0.85680  Biso   1.000  C
  C9       1.0000 0.16700  0.19890  0.16180  Biso   1.000  C
  C10      1.0000 0.33300  0.80110  0.66180  Biso   1.000  C
  C11      1.0000 0.83300  0.69890  0.33820  Biso   1.000  C
  C12      1.0000 0.66700  0.30110  0.83820  Biso   1.000  C
  C13      1.0000 0.01850  0.30760  0.34050  Biso   1.000  C
  C14      1.0000 0.48150  0.69240  0.84050  Biso   1.000  C
  C15      1.0000 0.98150  0.80760  0.15950  Biso   1.000  C
  C16      1.0000 0.51850  0.19240  0.65950  Biso   1.000  C
  C17      1.0000 0.09490  0.23440  0.30520  Biso   1.000  C
  C18      1.0000 0.40510  0.76560  0.80520  Biso   1.000  C
  C19      1.0000 0.90510  0.73440  0.19480  Biso   1.000  C
  C20      1.0000 0.59490  0.26560  0.69480  Biso   1.000  C
  C21      1.0000 0.09850  0.25530  0.25060  Biso   1.000  C
  C22      1.0000 0.40150  0.74470  0.75060  Biso   1.000  C
  C23      1.0000 0.90150  0.75530  0.24940  Biso   1.000  C
  C24      1.0000 0.59850  0.24470  0.74940  Biso   1.000  C
  O5       1.0000 0.79360  0.20250  0.34730  Biso   1.000  O
  O6       1.0000 0.70640  0.79750  0.84730  Biso   1.000  O
  O7       1.0000 0.20640  0.70250  0.15270  Biso   1.000  O
  O8       1.0000 0.29360  0.29750  0.65270  Biso   1.000  O
  C25      1.0000 0.05990  0.36340  0.17600  Biso   1.000  C
  C26      1.0000 0.44010  0.63660  0.67600  Biso   1.000  C
  C27      1.0000 0.94010  0.86340  0.32400  Biso   1.000  C
  C28      1.0000 0.55990  0.13660  0.82400  Biso   1.000  C
  C29      1.0000 0.10590  0.39530  0.35740  Biso   1.000  C
  C30      1.0000 0.39410  0.60470  0.85740  Biso   1.000  C
  C31      1.0000 0.89410  0.89530  0.14260  Biso   1.000  C
  C32      1.0000 0.60590  0.10470  0.64260  Biso   1.000  C
  C33      1.0000 0.20970  0.08720  0.23740  Biso   1.000  C
  C34      1.0000 0.29030  0.91280  0.73740  Biso   1.000  C
  C35      1.0000 0.79030  0.58720  0.26260  Biso   1.000  C
  C36      1.0000 0.70970  0.41280  0.76260  Biso   1.000  C
  O9       1.0000 0.15200  0.13090  0.37730  Biso   1.000  O
  O10      1.0000 0.34800  0.86910  0.87730  Biso   1.000  O
  O11      1.0000 0.84800  0.63090  0.12270  Biso   1.000  O
  O12      1.0000 0.65200  0.36910  0.62270  Biso   1.000  O
  C37      1.0000 0.21050  0.06720  0.29160  Biso   1.000  C
  C38      1.0000 0.28950  0.93280  0.79160  Biso   1.000  C
  C39      1.0000 0.78950  0.56720  0.20840  Biso   1.000  C
  C40      1.0000 0.71050  0.43280  0.70840  Biso   1.000  C
  C41      1.0000 0.04800  0.34260  0.23010  Biso   1.000  C
  C42      1.0000 0.45200  0.65740  0.73010  Biso   1.000  C
  C43      1.0000 0.95200  0.84260  0.26990  Biso   1.000  C
  C44      1.0000 0.54800  0.15740  0.76990  Biso   1.000  C
  C45      1.0000 0.86280  0.29350  0.35720  Biso   1.000  C
  C46      1.0000 0.63720  0.70650  0.85720  Biso   1.000  C
  C47      1.0000 0.13720  0.79350  0.14280  Biso   1.000  C
  C48      1.0000 0.36280  0.20650  0.64280  Biso   1.000  C
  C49      1.0000 0.15770  0.14300  0.32450  Biso   1.000  C
  C50      1.0000 0.34230  0.85700  0.82450  Biso   1.000  C
  C51      1.0000 0.84230  0.64300  0.17550  Biso   1.000  C
  C52      1.0000 0.65770  0.35700  0.67550  Biso   1.000  C
  O13      1.0000 0.28600  0.38310  0.06810  Biso   1.000  O
  O14      1.0000 0.21400  0.61690  0.56810  Biso   1.000  O
  O15      1.0000 0.71400  0.88310  0.43190  Biso   1.000  O
  O16      1.0000 0.78600  0.11690  0.93190  Biso   1.000  O
  C53      1.0000 0.25760  0.05070  0.39720  Biso   1.000  C
  C54      1.0000 0.24240  0.94930  0.89720  Biso   1.000  C
  C55      1.0000 0.74240  0.55070  0.10280  Biso   1.000  C
  C56      1.0000 0.75760  0.44930  0.60280  Biso   1.000  C
  C57      1.0000 0.27180  0.41200  0.34420  Biso   1.000  C
  C58      1.0000 0.22820  0.58800  0.84420  Biso   1.000  C
  C59      1.0000 0.72820  0.91200  0.15580  Biso   1.000  C
  C60      1.0000 0.77180  0.08800  0.65580  Biso   1.000  C
  C61      1.0000 0.67700  0.20450  0.31330  Biso   1.000  C
  C62      1.0000 0.82300  0.79550  0.81330  Biso   1.000  C
  C63      1.0000 0.32300  0.70450  0.18670  Biso   1.000  C
  C64      1.0000 0.17700  0.29550  0.68670  Biso   1.000  C
  C65      1.0000 0.02580  0.46640  0.39010  Biso   1.000  C
  C66      1.0000 0.47420  0.53360  0.89010  Biso   1.000  C
  C67      1.0000 0.97420  0.96640  0.10990  Biso   1.000  C
  C68      1.0000 0.52580  0.03360  0.60990  Biso   1.000  C
  C69      1.0000 0.86230  0.45200  0.40390  Biso   1.000  C
  C70      1.0000 0.63770  0.54800  0.90390  Biso   1.000  C
  C71      1.0000 0.13770  0.95200  0.09610  Biso   1.000  C
  C72      1.0000 0.36230  0.04800  0.59610  Biso   1.000  C
  C73      1.0000 0.11230  0.55000  0.40780  Biso   1.000  C
  C74      1.0000 0.38770  0.45000  0.90780  Biso   1.000  C
  C75      1.0000 0.88770  0.05000  0.09220  Biso   1.000  C
  C76      1.0000 0.61230  0.95000  0.59220  Biso   1.000  C
  C77      1.0000 0.35400  0.49300  0.36230  Biso   1.000  C
  C78      1.0000 0.14600  0.50700  0.86230  Biso   1.000  C
  C79      1.0000 0.64600  0.99300  0.13770  Biso   1.000  C
  C80      1.0000 0.85400  0.00700  0.63770  Biso   1.000  C
  C81      1.0000 0.27100  0.56520  0.39470  Biso   1.000  C
  C82      1.0000 0.22900  0.43480  0.89470  Biso   1.000  C
  C83      1.0000 0.72900  0.06520  0.10530  Biso   1.000  C
  C84      1.0000 0.77100  0.93480  0.60530  Biso   1.000  C
  C85      1.0000 0.78100  0.36250  0.38900  Biso   1.000  C
  C86      1.0000 0.71900  0.63750  0.88900  Biso   1.000  C
  C87      1.0000 0.21900  0.86250  0.11100  Biso   1.000  C
  C88      1.0000 0.28100  0.13750  0.61100  Biso   1.000  C
  P5       1.0000 0.38550  0.66754  0.41901  Biso   1.000  P
  P6       1.0000 0.11450  0.33246  0.91901  Biso   1.000  P
  P7       1.0000 0.61450  0.16754  0.08099  Biso   1.000  P
  P8       1.0000 0.88550  0.83246  0.58099  Biso   1.000  P
  O17      1.0000 0.26920  0.73500  0.44460  Biso   1.000  O
  O18      1.0000 0.23080  0.26500  0.94460  Biso   1.000  O
  O19      1.0000 0.73080  0.23500  0.05540  Biso   1.000  O
  O20      1.0000 0.76920  0.76500  0.55540  Biso   1.000  O
  O21      1.0000 0.46030  0.72050  0.36937  Biso   1.000  O
  O22      1.0000 0.03970  0.27950  0.86937  Biso   1.000  O
  O23      1.0000 0.53970  0.22050  0.13063  Biso   1.000  O
  O24      1.0000 0.96030  0.77950  0.63063  Biso   1.000  O
  O25      1.0000 0.52690  0.62880  0.45010  Biso   1.000  O
  O26      1.0000 0.97310  0.37120  0.95010  Biso   1.000  O
  O27      1.0000 0.47310  0.12880  0.04990  Biso   1.000  O
  O28      1.0000 0.02690  0.87120  0.54990  Biso   1.000  O
  C89      1.0000 0.66600  0.09150  0.28510  Biso   1.000  C
  C90      1.0000 0.83400  0.90850  0.78510  Biso   1.000  C
  C91      1.0000 0.33400  0.59150  0.21490  Biso   1.000  C
  C92      1.0000 0.16600  0.40850  0.71490  Biso   1.000  C
  O29      1.0000 0.17660  0.21490  0.04713  Biso   1.000  O
  O30      1.0000 0.32340  0.78510  0.54713  Biso   1.000  O
  O31      1.0000 0.82340  0.71490  0.45287  Biso   1.000  O
  O32      1.0000 0.67660  0.28510  0.95287  Biso   1.000  O
  C93      1.0000 0.35280  0.77390  0.33540  Biso   1.000  C
  C94      1.0000 0.14720  0.22610  0.83540  Biso   1.000  C
  C95      1.0000 0.64720  0.27390  0.16460  Biso   1.000  C
  C96      1.0000 0.85280  0.72610  0.66460  Biso   1.000  C
  C97      1.0000 0.46870  0.82770  0.29610  Biso   1.000  C
  C98      1.0000 0.03130  0.17230  0.79610  Biso   1.000  C
  C99      1.0000 0.53130  0.32770  0.20390  Biso   1.000  C
  C100     1.0000 0.96870  0.67230  0.70390  Biso   1.000  C
  C101     1.0000 0.27400  0.06740  0.46220  Biso   1.000  C
  C102     1.0000 0.22600  0.93260  0.96220  Biso   1.000  C
  C103     1.0000 0.72600  0.56740  0.03780  Biso   1.000  C
  C104     1.0000 0.77400  0.43260  0.53780  Biso   1.000  C
  C105     1.0000 0.26000  0.57340  0.06200  Biso   1.000  C
  C106     1.0000 0.24000  0.42660  0.56200  Biso   1.000  C
  C107     1.0000 0.74000  0.07340  0.43800  Biso   1.000  C
  C108     1.0000 0.76000  0.92660  0.93800  Biso   1.000  C
  C109     1.0000 0.27300  0.47770  0.05180  Biso   1.000  C
  C110     1.0000 0.22700  0.52230  0.55180  Biso   1.000  C
  C111     1.0000 0.72700  0.97770  0.44820  Biso   1.000  C
  C112     1.0000 0.77300  0.02230  0.94820  Biso   1.000  C
