data_image0
_cell_length_a       20.402
_cell_length_b       7.233
_cell_length_c       18.215
_cell_angle_alpha    90
_cell_angle_beta     112.363
_cell_angle_gamma    90

_symmetry_space_group_name_H-M    "P 1"
_symmetry_int_tables_number       1

loop_
  _symmetry_equiv_pos_as_xyz
  'x, y, z'

loop_
  _atom_site_label
  _atom_site_occupancy
  _atom_site_fract_x
  _atom_site_fract_y
  _atom_site_fract_z
  _atom_site_thermal_displace_type
  _atom_site_B_iso_or_equiv
  _atom_site_type_symbol
  Cu1      1.0000 0.72752  0.09373  0.63308  Biso   1.000  Cu
  Cu2      1.0000 0.27248  0.09373  0.86692  Biso   1.000  Cu
  Cu3      1.0000 0.22751  0.59373  0.63308  Biso   1.000  Cu
  Cu4      1.0000 0.77248  0.59373  0.86692  Biso   1.000  Cu
  Cu5      1.0000 0.27248  0.90627  0.36692  Biso   1.000  Cu
  Cu6      1.0000 0.72752  0.90627  0.13308  Biso   1.000  Cu
  Cu7      1.0000 0.77248  0.40627  0.36692  Biso   1.000  Cu
  Cu8      1.0000 0.22751  0.40627  0.13308  Biso   1.000  Cu
  O1       1.0000 0.81878  0.32420  0.84234  Biso   1.000  O
  O2       1.0000 0.18122  0.32420  0.65766  Biso   1.000  O
  O3       1.0000 0.31878  0.82420  0.84234  Biso   1.000  O
  O4       1.0000 0.68122  0.82420  0.65766  Biso   1.000  O
  O5       1.0000 0.18122  0.67580  0.15766  Biso   1.000  O
  O6       1.0000 0.81878  0.67580  0.34234  Biso   1.000  O
  O7       1.0000 0.68122  0.17580  0.15766  Biso   1.000  O
  O8       1.0000 0.31878  0.17580  0.34234  Biso   1.000  O
  O9       1.0000 0.73495  0.22960  0.72845  Biso   1.000  O
  O10      1.0000 0.26505  0.22960  0.77155  Biso   1.000  O
  O11      1.0000 0.23495  0.72960  0.72845  Biso   1.000  O
  O12      1.0000 0.76505  0.72960  0.77155  Biso   1.000  O
  O13      1.0000 0.26505  0.77040  0.27155  Biso   1.000  O
  O14      1.0000 0.73495  0.77040  0.22845  Biso   1.000  O
  O15      1.0000 0.76505  0.27040  0.27155  Biso   1.000  O
  O16      1.0000 0.23495  0.27040  0.22845  Biso   1.000  O
  O17      1.0000 0.91510  0.11510  0.80281  Biso   1.000  O
  O18      1.0000 0.08490  0.11510  0.69719  Biso   1.000  O
  O19      1.0000 0.41510  0.61510  0.80281  Biso   1.000  O
  O20      1.0000 0.58490  0.61510  0.69719  Biso   1.000  O
  O21      1.0000 0.08490  0.88490  0.19719  Biso   1.000  O
  O22      1.0000 0.91510  0.88490  0.30281  Biso   1.000  O
  O23      1.0000 0.58490  0.38490  0.19719  Biso   1.000  O
  O24      1.0000 0.41510  0.38490  0.30281  Biso   1.000  O
  O25      1.0000 0.82796  0.05620  0.68623  Biso   1.000  O
  O26      1.0000 0.17204  0.05620  0.81377  Biso   1.000  O
  O27      1.0000 0.32796  0.55620  0.68623  Biso   1.000  O
  O28      1.0000 0.67204  0.55620  0.81377  Biso   1.000  O
  O29      1.0000 0.17204  0.94380  0.31377  Biso   1.000  O
  O30      1.0000 0.82796  0.94380  0.18623  Biso   1.000  O
  O31      1.0000 0.67204  0.44380  0.31377  Biso   1.000  O
  O32      1.0000 0.32796  0.44380  0.18623  Biso   1.000  O
  N1       1.0000 0.62716  0.16650  0.57379  Biso   1.000  N
  N2       1.0000 0.37284  0.16650  0.92621  Biso   1.000  N
  N3       1.0000 0.12716  0.66650  0.57379  Biso   1.000  N
  N4       1.0000 0.87284  0.66650  0.92621  Biso   1.000  N
  N5       1.0000 0.37284  0.83350  0.42621  Biso   1.000  N
  N6       1.0000 0.62716  0.83350  0.07379  Biso   1.000  N
  N7       1.0000 0.87284  0.33350  0.42621  Biso   1.000  N
  N8       1.0000 0.12716  0.33350  0.07379  Biso   1.000  N
  N9       1.0000 0.65211  0.06930  0.46695  Biso   1.000  N
  N10      1.0000 0.34789  0.06930  0.03305  Biso   1.000  N
  N11      1.0000 0.15211  0.56930  0.46695  Biso   1.000  N
  N12      1.0000 0.84789  0.56930  0.03305  Biso   1.000  N
  N13      1.0000 0.34789  0.93070  0.53305  Biso   1.000  N
  N14      1.0000 0.65211  0.93070  0.96695  Biso   1.000  N
  N15      1.0000 0.84789  0.43070  0.53305  Biso   1.000  N
  N16      1.0000 0.15211  0.43070  0.96695  Biso   1.000  N
  N17      1.0000 0.71955  0.04060  0.52293  Biso   1.000  N
  N18      1.0000 0.28045  0.04060  0.97707  Biso   1.000  N
  N19      1.0000 0.21955  0.54060  0.52293  Biso   1.000  N
  N20      1.0000 0.78045  0.54060  0.97707  Biso   1.000  N
  N21      1.0000 0.28045  0.95940  0.47707  Biso   1.000  N
  N22      1.0000 0.71955  0.95940  0.02293  Biso   1.000  N
  N23      1.0000 0.78045  0.45940  0.47707  Biso   1.000  N
  N24      1.0000 0.21955  0.45940  0.02293  Biso   1.000  N
  C1       1.0000 0.58417  0.23530  0.60795  Biso   1.000  C
  C2       1.0000 0.41583  0.23530  0.89205  Biso   1.000  C
  C3       1.0000 0.08417  0.73530  0.60795  Biso   1.000  C
  C4       1.0000 0.91583  0.73530  0.89205  Biso   1.000  C
  C5       1.0000 0.41583  0.76470  0.39205  Biso   1.000  C
  C6       1.0000 0.58417  0.76470  0.10795  Biso   1.000  C
  C7       1.0000 0.91583  0.26470  0.39205  Biso   1.000  C
  C8       1.0000 0.08417  0.26470  0.10795  Biso   1.000  C
  H1       1.0000 0.60220  0.25360  0.66260  Biso   1.000  H
  H2       1.0000 0.39780  0.25360  0.83740  Biso   1.000  H
  H3       1.0000 0.10220  0.75360  0.66260  Biso   1.000  H
  H4       1.0000 0.89780  0.75360  0.83740  Biso   1.000  H
  H5       1.0000 0.39780  0.74640  0.33740  Biso   1.000  H
  H6       1.0000 0.60220  0.74640  0.16260  Biso   1.000  H
  H7       1.0000 0.89780  0.24640  0.33740  Biso   1.000  H
  H8       1.0000 0.10220  0.24640  0.16260  Biso   1.000  H
  C9       1.0000 0.51426  0.27940  0.56433  Biso   1.000  C
  C10      1.0000 0.48574  0.27940  0.93567  Biso   1.000  C
  C11      1.0000 0.01426  0.77940  0.56433  Biso   1.000  C
  C12      1.0000 0.98574  0.77940  0.93567  Biso   1.000  C
  C13      1.0000 0.48574  0.72060  0.43567  Biso   1.000  C
  C14      1.0000 0.51426  0.72060  0.06433  Biso   1.000  C
  C15      1.0000 0.98574  0.22060  0.43567  Biso   1.000  C
  C16      1.0000 0.01426  0.22060  0.06433  Biso   1.000  C
  H9       1.0000 0.48540  0.32600  0.58900  Biso   1.000  H
  H10      1.0000 0.51460  0.32600  0.91100  Biso   1.000  H
  H11      1.0000 0.98540  0.82600  0.58900  Biso   1.000  H
  H12      1.0000 0.01460  0.82600  0.91100  Biso   1.000  H
  H13      1.0000 0.51460  0.67400  0.41100  Biso   1.000  H
  H14      1.0000 0.48540  0.67400  0.08900  Biso   1.000  H
  H15      1.0000 0.01460  0.17400  0.41100  Biso   1.000  H
  H16      1.0000 0.98540  0.17400  0.08900  Biso   1.000  H
  C17      1.0000 0.48797  0.25240  0.48262  Biso   1.000  C
  C18      1.0000 0.51203  0.25240  0.01738  Biso   1.000  C
  C19      1.0000 0.98797  0.75240  0.48262  Biso   1.000  C
  C20      1.0000 0.01203  0.75240  0.01738  Biso   1.000  C
  C21      1.0000 0.51203  0.74760  0.51738  Biso   1.000  C
  C22      1.0000 0.48797  0.74760  0.98262  Biso   1.000  C
  C23      1.0000 0.01203  0.24760  0.51738  Biso   1.000  C
  C24      1.0000 0.98797  0.24760  0.98262  Biso   1.000  C
  H17      1.0000 0.44110  0.28180  0.45190  Biso   1.000  H
  H18      1.0000 0.55890  0.28180  0.04810  Biso   1.000  H
  H19      1.0000 0.94110  0.78180  0.45190  Biso   1.000  H
  H20      1.0000 0.05890  0.78180  0.04810  Biso   1.000  H
  H21      1.0000 0.55890  0.71820  0.54810  Biso   1.000  H
  H22      1.0000 0.44110  0.71820  0.95190  Biso   1.000  H
  H23      1.0000 0.05890  0.21820  0.54810  Biso   1.000  H
  H24      1.0000 0.94110  0.21820  0.95190  Biso   1.000  H
  C25      1.0000 0.53174  0.18170  0.44720  Biso   1.000  C
  C26      1.0000 0.46826  0.18170  0.05280  Biso   1.000  C
  C27      1.0000 0.03174  0.68170  0.44720  Biso   1.000  C
  C28      1.0000 0.96826  0.68170  0.05280  Biso   1.000  C
  C29      1.0000 0.46826  0.81830  0.55280  Biso   1.000  C
  C30      1.0000 0.53174  0.81830  0.94720  Biso   1.000  C
  C31      1.0000 0.96826  0.31830  0.55280  Biso   1.000  C
  C32      1.0000 0.03174  0.31830  0.94720  Biso   1.000  C
  H25      1.0000 0.51490  0.16300  0.39260  Biso   1.000  H
  H26      1.0000 0.48510  0.16300  0.10740  Biso   1.000  H
  H27      1.0000 0.01490  0.66300  0.39260  Biso   1.000  H
  H28      1.0000 0.98510  0.66300  0.10740  Biso   1.000  H
  H29      1.0000 0.48510  0.83700  0.60740  Biso   1.000  H
  H30      1.0000 0.51490  0.83700  0.89260  Biso   1.000  H
  H31      1.0000 0.98510  0.33700  0.60740  Biso   1.000  H
  H32      1.0000 0.01490  0.33700  0.89260  Biso   1.000  H
  C33      1.0000 0.60122  0.13950  0.49497  Biso   1.000  C
  C34      1.0000 0.39878  0.13950  0.00503  Biso   1.000  C
  C35      1.0000 0.10122  0.63950  0.49497  Biso   1.000  C
  C36      1.0000 0.89878  0.63950  0.00503  Biso   1.000  C
  C37      1.0000 0.39878  0.86050  0.50503  Biso   1.000  C
  C38      1.0000 0.60122  0.86050  0.99497  Biso   1.000  C
  C39      1.0000 0.89878  0.36050  0.50503  Biso   1.000  C
  C40      1.0000 0.10122  0.36050  0.99497  Biso   1.000  C
  C41      1.0000 0.75805  0.97970  0.48291  Biso   1.000  C
  C42      1.0000 0.24195  0.97970  0.01709  Biso   1.000  C
  C43      1.0000 0.25805  0.47970  0.48291  Biso   1.000  C
  C44      1.0000 0.74195  0.47970  0.01709  Biso   1.000  C
  C45      1.0000 0.24195  0.02030  0.51709  Biso   1.000  C
  C46      1.0000 0.75805  0.02030  0.98291  Biso   1.000  C
  C47      1.0000 0.74195  0.52030  0.51709  Biso   1.000  C
  C48      1.0000 0.25805  0.52030  0.98291  Biso   1.000  C
  C49      1.0000 0.71567  0.96950  0.40160  Biso   1.000  C
  C50      1.0000 0.28433  0.96950  0.09840  Biso   1.000  C
  C51      1.0000 0.21567  0.46950  0.40160  Biso   1.000  C
  C52      1.0000 0.78433  0.46950  0.09840  Biso   1.000  C
  C53      1.0000 0.28433  0.03050  0.59840  Biso   1.000  C
  C54      1.0000 0.71567  0.03050  0.90160  Biso   1.000  C
  C55      1.0000 0.78433  0.53050  0.59840  Biso   1.000  C
  C56      1.0000 0.21567  0.53050  0.90160  Biso   1.000  C
  H33      1.0000 0.73020  0.93150  0.36140  Biso   1.000  H
  H34      1.0000 0.26980  0.93150  0.13860  Biso   1.000  H
  H35      1.0000 0.23020  0.43150  0.36140  Biso   1.000  H
  H36      1.0000 0.76980  0.43150  0.13860  Biso   1.000  H
  H37      1.0000 0.26980  0.06850  0.63860  Biso   1.000  H
  H38      1.0000 0.73020  0.06850  0.86140  Biso   1.000  H
  H39      1.0000 0.76980  0.56850  0.63860  Biso   1.000  H
  H40      1.0000 0.23020  0.56850  0.86140  Biso   1.000  H
  C57      1.0000 0.64914  0.02570  0.39251  Biso   1.000  C
  C58      1.0000 0.35086  0.02570  0.10749  Biso   1.000  C
  C59      1.0000 0.14914  0.52570  0.39251  Biso   1.000  C
  C60      1.0000 0.85086  0.52570  0.10749  Biso   1.000  C
  C61      1.0000 0.35086  0.97430  0.60749  Biso   1.000  C
  C62      1.0000 0.64914  0.97430  0.89251  Biso   1.000  C
  C63      1.0000 0.85086  0.47430  0.60749  Biso   1.000  C
  C64      1.0000 0.14914  0.47430  0.89251  Biso   1.000  C
  C65      1.0000 0.58441  0.03240  0.31782  Biso   1.000  C
  C66      1.0000 0.41559  0.03240  0.18218  Biso   1.000  C
  C67      1.0000 0.08441  0.53240  0.31782  Biso   1.000  C
  C68      1.0000 0.91559  0.53240  0.18218  Biso   1.000  C
  C69      1.0000 0.41559  0.96760  0.68218  Biso   1.000  C
  C70      1.0000 0.58441  0.96760  0.81782  Biso   1.000  C
  C71      1.0000 0.91559  0.46760  0.68218  Biso   1.000  C
  C72      1.0000 0.08441  0.46760  0.81782  Biso   1.000  C
  H41      1.0000 0.54510  0.07760  0.32940  Biso   1.000  H
  H42      1.0000 0.45490  0.07760  0.17060  Biso   1.000  H
  H43      1.0000 0.04510  0.57760  0.32940  Biso   1.000  H
  H44      1.0000 0.95490  0.57760  0.17060  Biso   1.000  H
  H45      1.0000 0.45490  0.92240  0.67060  Biso   1.000  H
  H46      1.0000 0.54510  0.92240  0.82940  Biso   1.000  H
  H47      1.0000 0.95490  0.42240  0.67060  Biso   1.000  H
  H48      1.0000 0.04510  0.42240  0.82940  Biso   1.000  H
  H49      1.0000 0.57380  0.91050  0.29560  Biso   1.000  H
  H50      1.0000 0.42620  0.91050  0.20440  Biso   1.000  H
  H51      1.0000 0.07380  0.41050  0.29560  Biso   1.000  H
  H52      1.0000 0.92620  0.41050  0.20440  Biso   1.000  H
  H53      1.0000 0.42620  0.08950  0.70440  Biso   1.000  H
  H54      1.0000 0.57380  0.08950  0.79560  Biso   1.000  H
  H55      1.0000 0.92620  0.58950  0.70440  Biso   1.000  H
  H56      1.0000 0.07380  0.58950  0.79560  Biso   1.000  H
  H57      1.0000 0.59260  0.11350  0.28050  Biso   1.000  H
  H58      1.0000 0.40740  0.11350  0.21950  Biso   1.000  H
  H59      1.0000 0.09260  0.61350  0.28050  Biso   1.000  H
  H60      1.0000 0.90740  0.61350  0.21950  Biso   1.000  H
  H61      1.0000 0.40740  0.88650  0.71950  Biso   1.000  H
  H62      1.0000 0.59260  0.88650  0.78050  Biso   1.000  H
  H63      1.0000 0.90740  0.38650  0.71950  Biso   1.000  H
  H64      1.0000 0.09260  0.38650  0.78050  Biso   1.000  H
  C73      1.0000 0.83442  0.93050  0.52295  Biso   1.000  C
  C74      1.0000 0.16558  0.93050  0.97705  Biso   1.000  C
  C75      1.0000 0.33442  0.43050  0.52295  Biso   1.000  C
  C76      1.0000 0.66558  0.43050  0.97705  Biso   1.000  C
  C77      1.0000 0.16558  0.06950  0.47705  Biso   1.000  C
  C78      1.0000 0.83442  0.06950  0.02295  Biso   1.000  C
  C79      1.0000 0.66558  0.56950  0.47705  Biso   1.000  C
  C80      1.0000 0.33442  0.56950  0.02295  Biso   1.000  C
  H65      1.0000 0.84940  0.95130  0.57900  Biso   1.000  H
  H66      1.0000 0.15060  0.95130  0.92100  Biso   1.000  H
  H67      1.0000 0.34940  0.45130  0.57900  Biso   1.000  H
  H68      1.0000 0.65060  0.45130  0.92100  Biso   1.000  H
  H69      1.0000 0.15060  0.04870  0.42100  Biso   1.000  H
  H70      1.0000 0.84940  0.04870  0.07900  Biso   1.000  H
  H71      1.0000 0.65060  0.54870  0.42100  Biso   1.000  H
  H72      1.0000 0.34940  0.54870  0.07900  Biso   1.000  H
  H73      1.0000 0.86210  0.00590  0.50220  Biso   1.000  H
  H74      1.0000 0.13790  0.00590  0.99780  Biso   1.000  H
  H75      1.0000 0.36210  0.50590  0.50220  Biso   1.000  H
  H76      1.0000 0.63790  0.50590  0.99780  Biso   1.000  H
  H77      1.0000 0.13790  0.99410  0.49780  Biso   1.000  H
  H78      1.0000 0.86210  0.99410  0.00220  Biso   1.000  H
  H79      1.0000 0.63790  0.49410  0.49780  Biso   1.000  H
  H80      1.0000 0.36210  0.49410  0.00220  Biso   1.000  H
  H81      1.0000 0.84100  0.80260  0.51350  Biso   1.000  H
  H82      1.0000 0.15900  0.80260  0.98650  Biso   1.000  H
  H83      1.0000 0.34100  0.30260  0.51350  Biso   1.000  H
  H84      1.0000 0.65900  0.30260  0.98650  Biso   1.000  H
  H85      1.0000 0.15900  0.19740  0.48650  Biso   1.000  H
  H86      1.0000 0.84100  0.19740  0.01350  Biso   1.000  H
  H87      1.0000 0.65900  0.69740  0.48650  Biso   1.000  H
  H88      1.0000 0.34100  0.69740  0.01350  Biso   1.000  H
  C81      1.0000 0.85340  0.12690  0.75611  Biso   1.000  C
  C82      1.0000 0.14660  0.12690  0.74389  Biso   1.000  C
  C83      1.0000 0.35340  0.62690  0.75611  Biso   1.000  C
  C84      1.0000 0.64660  0.62690  0.74389  Biso   1.000  C
  C85      1.0000 0.14660  0.87310  0.24389  Biso   1.000  C
  C86      1.0000 0.85340  0.87310  0.25611  Biso   1.000  C
  C87      1.0000 0.64660  0.37310  0.24389  Biso   1.000  C
  C88      1.0000 0.35340  0.37310  0.25611  Biso   1.000  C
  C89      1.0000 0.79857  0.23810  0.77908  Biso   1.000  C
  C90      1.0000 0.20143  0.23810  0.72092  Biso   1.000  C
  C91      1.0000 0.29857  0.73810  0.77908  Biso   1.000  C
  C92      1.0000 0.70143  0.73810  0.72092  Biso   1.000  C
  C93      1.0000 0.20143  0.76190  0.22092  Biso   1.000  C
  C94      1.0000 0.79857  0.76190  0.27908  Biso   1.000  C
  C95      1.0000 0.70143  0.26190  0.22092  Biso   1.000  C
  C96      1.0000 0.29857  0.26190  0.27908  Biso   1.000  C
  O33      1.0000 0.00000  0.87140  0.75000  Biso   1.000  O
  O34      1.0000 0.50000  0.37140  0.75000  Biso   1.000  O
  O35      1.0000 0.00000  0.12860  0.25000  Biso   1.000  O
  O36      1.0000 0.50000  0.62860  0.25000  Biso   1.000  O
  H89      1.0000 0.97500  0.94800  0.76000  Biso   1.000  H
  H90      1.0000 0.02500  0.94800  0.74000  Biso   1.000  H
  H91      1.0000 0.47500  0.44800  0.76000  Biso   1.000  H
  H92      1.0000 0.52500  0.44800  0.74000  Biso   1.000  H
  H93      1.0000 0.02500  0.05200  0.24000  Biso   1.000  H
  H94      1.0000 0.97500  0.05200  0.26000  Biso   1.000  H
  H95      1.0000 0.52500  0.55200  0.24000  Biso   1.000  H
  H96      1.0000 0.47500  0.55200  0.26000  Biso   1.000  H
