data_image0
_cell_length_a       8.0532
_cell_length_b       7.443
_cell_length_c       13.622
_cell_angle_alpha    90
_cell_angle_beta     99.08
_cell_angle_gamma    90

_symmetry_space_group_name_H-M    "P 1"
_symmetry_int_tables_number       1

loop_
  _symmetry_equiv_pos_as_xyz
  'x, y, z'

loop_
  _atom_site_label
  _atom_site_occupancy
  _atom_site_fract_x
  _atom_site_fract_y
  _atom_site_fract_z
  _atom_site_thermal_displace_type
  _atom_site_B_iso_or_equiv
  _atom_site_type_symbol
  Cu1      1.0000 0.18273  0.21585  0.71461  Biso   1.000  Cu
  Cu2      1.0000 0.81727  0.71585  0.28539  Biso   1.000  Cu
  S1       1.0000 0.74130  0.43230  0.97830  Biso   1.000  S
  S2       1.0000 0.25870  0.93230  0.02170  Biso   1.000  S
  S3       1.0000 0.96030  0.81530  0.83060  Biso   1.000  S
  S4       1.0000 0.03970  0.31530  0.16940  Biso   1.000  S
  N1       1.0000 0.74550  0.98920  0.96070  Biso   1.000  N
  N2       1.0000 0.25450  0.48920  0.03930  Biso   1.000  N
  H1       1.0000 0.67930  0.03000  0.99910  Biso   1.000  H
  H2       1.0000 0.32070  0.53000  0.00090  Biso   1.000  H
  H3       1.0000 0.75410  0.87520  0.95230  Biso   1.000  H
  H4       1.0000 0.24590  0.37520  0.04770  Biso   1.000  H
  N3       1.0000 0.84100  0.11000  0.91110  Biso   1.000  N
  N4       1.0000 0.15900  0.61000  0.08890  Biso   1.000  N
  N5       1.0000 0.01990  0.18440  0.81080  Biso   1.000  N
  N6       1.0000 0.98010  0.68440  0.18920  Biso   1.000  N
  N7       1.0000 0.96150  0.34550  0.85390  Biso   1.000  N
  N8       1.0000 0.03850  0.84550  0.14610  Biso   1.000  N
  O1       1.0000 0.07360  0.02580  0.62700  Biso   1.000  O
  O2       1.0000 0.92640  0.52580  0.37300  Biso   1.000  O
  O3       1.0000 0.45250  0.19780  0.87920  Biso   1.000  O
  O4       1.0000 0.54750  0.69780  0.12080  Biso   1.000  O
  O5       1.0000 0.31200  0.40810  0.78870  Biso   1.000  O
  O6       1.0000 0.68800  0.90810  0.21130  Biso   1.000  O
  O7       1.0000 0.00630  0.74610  0.58900  Biso   1.000  O
  O8       1.0000 0.99370  0.24610  0.41100  Biso   1.000  O
  C1       1.0000 0.13100  0.80080  0.75760  Biso   1.000  C
  C2       1.0000 0.86900  0.30080  0.24240  Biso   1.000  C
  H5       1.0000 0.22360  0.87660  0.78700  Biso   1.000  H
  H6       1.0000 0.77640  0.37660  0.21300  Biso   1.000  H
  H7       1.0000 0.17140  0.67810  0.75760  Biso   1.000  H
  H8       1.0000 0.82860  0.17810  0.24240  Biso   1.000  H
  C3       1.0000 0.85250  0.29300  0.91050  Biso   1.000  C
  C4       1.0000 0.14750  0.79300  0.08950  Biso   1.000  C
  C5       1.0000 0.06800  0.86210  0.64960  Biso   1.000  C
  C6       1.0000 0.93200  0.36210  0.35040  Biso   1.000  C
  C7       1.0000 0.43650  0.34700  0.85110  Biso   1.000  C
  C8       1.0000 0.56350  0.84700  0.14890  Biso   1.000  C
  C9       1.0000 0.94580  0.04580  0.84620  Biso   1.000  C
  C10      1.0000 0.05420  0.54580  0.15380  Biso   1.000  C
  C11      1.0000 0.56700  0.49700  0.88270  Biso   1.000  C
  C12      1.0000 0.43300  0.99700  0.11730  Biso   1.000  C
  H9       1.0000 0.50960  0.59850  0.90690  Biso   1.000  H
  H10      1.0000 0.49040  0.09850  0.09310  Biso   1.000  H
  H11      1.0000 0.61230  0.53660  0.82450  Biso   1.000  H
  H12      1.0000 0.38770  0.03660  0.17550  Biso   1.000  H
  O9       1.0000 0.38850  0.18110  0.64560  Biso   1.000  O
  O10      1.0000 0.61150  0.68110  0.35440  Biso   1.000  O
  O11      1.0000 0.04990  0.39530  0.60100  Biso   1.000  O
  O12      1.0000 0.95010  0.89530  0.39900  Biso   1.000  O
  N9       1.0000 0.50980  0.15210  0.50760  Biso   1.000  N
  N10      1.0000 0.49020  0.65210  0.49240  Biso   1.000  N
  C13      1.0000 0.37790  0.16400  0.55380  Biso   1.000  C
  C14      1.0000 0.62210  0.66400  0.44620  Biso   1.000  C
  H13      1.0000 0.27140  0.15890  0.51580  Biso   1.000  H
  H14      1.0000 0.72860  0.65890  0.48420  Biso   1.000  H
  C15      1.0000 0.67730  0.14800  0.56260  Biso   1.000  C
  C16      1.0000 0.32270  0.64800  0.43740  Biso   1.000  C
  H15      1.0000 0.67220  0.14730  0.63250  Biso   1.000  H
  H16      1.0000 0.32780  0.64730  0.36750  Biso   1.000  H
  H17      1.0000 0.73800  0.25200  0.54650  Biso   1.000  H
  H18      1.0000 0.26200  0.75200  0.45350  Biso   1.000  H
  H19      1.0000 0.73370  0.04140  0.54550  Biso   1.000  H
  H20      1.0000 0.26630  0.54140  0.45450  Biso   1.000  H
  C17      1.0000 0.49500  0.15400  0.40220  Biso   1.000  C
  C18      1.0000 0.50500  0.65400  0.59780  Biso   1.000  C
  H21      1.0000 0.37880  0.15700  0.37320  Biso   1.000  H
  H22      1.0000 0.62120  0.65700  0.62680  Biso   1.000  H
  H23      1.0000 0.54670  0.04760  0.38040  Biso   1.000  H
  H24      1.0000 0.45330  0.54760  0.61960  Biso   1.000  H
  H25      1.0000 0.55120  0.25820  0.38170  Biso   1.000  H
  H26      1.0000 0.44880  0.75820  0.61830  Biso   1.000  H
