data_image0
_cell_length_a       13.173
_cell_length_b       6.9196
_cell_length_c       7.6141
_cell_angle_alpha    90
_cell_angle_beta     91.491
_cell_angle_gamma    90

_symmetry_space_group_name_H-M    "P 1"
_symmetry_int_tables_number       1

loop_
  _symmetry_equiv_pos_as_xyz
  'x, y, z'

loop_
  _atom_site_label
  _atom_site_occupancy
  _atom_site_fract_x
  _atom_site_fract_y
  _atom_site_fract_z
  _atom_site_thermal_displace_type
  _atom_site_B_iso_or_equiv
  _atom_site_type_symbol
  Br1      1.0000 0.92325  0.79433  0.27038  Biso   1.000  Br
  Br2      1.0000 0.07675  0.29433  0.22962  Biso   1.000  Br
  Br3      1.0000 0.07675  0.20567  0.72962  Biso   1.000  Br
  Br4      1.0000 0.92325  0.70567  0.77038  Biso   1.000  Br
  Cu1      1.0000 0.00000  0.00000  0.50000  Biso   1.000  Cu
  Cu2      1.0000 0.00000  0.50000  0.00000  Biso   1.000  Cu
  Cl1      1.0000 0.45235  0.23067  0.41075  Biso   1.000  Cl
  Cl2      1.0000 0.54765  0.73067  0.08925  Biso   1.000  Cl
  Cl3      1.0000 0.54765  0.76933  0.58925  Biso   1.000  Cl
  Cl4      1.0000 0.45235  0.26933  0.91075  Biso   1.000  Cl
  N1       1.0000 0.24631  0.64260  0.49600  Biso   1.000  N
  N2       1.0000 0.75369  0.14260  0.00400  Biso   1.000  N
  N3       1.0000 0.75369  0.35740  0.50400  Biso   1.000  N
  N4       1.0000 0.24631  0.85740  0.99600  Biso   1.000  N
  N5       1.0000 0.28997  0.81170  0.45020  Biso   1.000  N
  N6       1.0000 0.71003  0.31170  0.04980  Biso   1.000  N
  N7       1.0000 0.71003  0.18830  0.54980  Biso   1.000  N
  N8       1.0000 0.28997  0.68830  0.95020  Biso   1.000  N
  N9       1.0000 0.21890  0.94040  0.44480  Biso   1.000  N
  N10      1.0000 0.78110  0.44040  0.05520  Biso   1.000  N
  N11      1.0000 0.78110  0.05960  0.55520  Biso   1.000  N
  N12      1.0000 0.21890  0.55960  0.94480  Biso   1.000  N
  N13      1.0000 0.12905  0.85620  0.48658  Biso   1.000  N
  N14      1.0000 0.87095  0.35620  0.01342  Biso   1.000  N
  N15      1.0000 0.87095  0.14380  0.51342  Biso   1.000  N
  N16      1.0000 0.12905  0.64380  0.98658  Biso   1.000  N
  C1       1.0000 0.14784  0.67260  0.51740  Biso   1.000  C
  C2       1.0000 0.85216  0.17260  0.98260  Biso   1.000  C
  C3       1.0000 0.85216  0.32740  0.48260  Biso   1.000  C
  C4       1.0000 0.14784  0.82740  0.01740  Biso   1.000  C
  C5       1.0000 0.30750  0.46720  0.52330  Biso   1.000  C
  C6       1.0000 0.69250  0.96720  0.97670  Biso   1.000  C
  C7       1.0000 0.69250  0.53280  0.47670  Biso   1.000  C
  C8       1.0000 0.30750  0.03280  0.02330  Biso   1.000  C
  C9       1.0000 0.36630  0.42420  0.36110  Biso   1.000  C
  C10      1.0000 0.63370  0.92420  0.13890  Biso   1.000  C
  C11      1.0000 0.63370  0.57580  0.63890  Biso   1.000  C
  C12      1.0000 0.36630  0.07580  0.86110  Biso   1.000  C
  H1       1.0000 0.10280  0.58100  0.55000  Biso   1.000  H
  H2       1.0000 0.89720  0.08100  0.95000  Biso   1.000  H
  H3       1.0000 0.89720  0.41900  0.45000  Biso   1.000  H
  H4       1.0000 0.10280  0.91900  0.05000  Biso   1.000  H
  H5       1.0000 0.26160  0.36700  0.55100  Biso   1.000  H
  H6       1.0000 0.73840  0.86700  0.94900  Biso   1.000  H
  H7       1.0000 0.73840  0.63300  0.44900  Biso   1.000  H
  H8       1.0000 0.26160  0.13300  0.05100  Biso   1.000  H
  H9       1.0000 0.35450  0.49000  0.62500  Biso   1.000  H
  H10      1.0000 0.64550  0.99000  0.87500  Biso   1.000  H
  H11      1.0000 0.64550  0.51000  0.37500  Biso   1.000  H
  H12      1.0000 0.35450  0.01000  0.12500  Biso   1.000  H
  H13      1.0000 0.40590  0.53100  0.32900  Biso   1.000  H
  H14      1.0000 0.59410  0.03100  0.17100  Biso   1.000  H
  H15      1.0000 0.59410  0.46900  0.67100  Biso   1.000  H
  H16      1.0000 0.40590  0.96900  0.82900  Biso   1.000  H
  H17      1.0000 0.32430  0.38800  0.26600  Biso   1.000  H
  H18      1.0000 0.67570  0.88800  0.23400  Biso   1.000  H
  H19      1.0000 0.67570  0.61200  0.73400  Biso   1.000  H
  H20      1.0000 0.32430  0.11200  0.76600  Biso   1.000  H
