data_image0
_cell_length_a       13.883
_cell_length_b       6.6819
_cell_length_c       7.2995
_cell_angle_alpha    90
_cell_angle_beta     98.054
_cell_angle_gamma    90

_symmetry_space_group_name_H-M    "P 1"
_symmetry_int_tables_number       1

loop_
  _symmetry_equiv_pos_as_xyz
  'x, y, z'

loop_
  _atom_site_label
  _atom_site_occupancy
  _atom_site_fract_x
  _atom_site_fract_y
  _atom_site_fract_z
  _atom_site_thermal_displace_type
  _atom_site_B_iso_or_equiv
  _atom_site_type_symbol
  Cu1      1.0000 0.00000  0.00000  0.00000  Biso   1.000  Cu
  Cu2      1.0000 0.00000  0.50000  0.50000  Biso   1.000  Cu
  Cl1      1.0000 0.06644  0.20843  0.80142  Biso   1.000  Cl
  Cl2      1.0000 0.93356  0.70843  0.69858  Biso   1.000  Cl
  Cl3      1.0000 0.93356  0.79157  0.19858  Biso   1.000  Cl
  Cl4      1.0000 0.06644  0.29157  0.30142  Biso   1.000  Cl
  Cl5      1.0000 0.43575  0.19780  0.07386  Biso   1.000  Cl
  Cl6      1.0000 0.56425  0.69780  0.42614  Biso   1.000  Cl
  Cl7      1.0000 0.56425  0.80220  0.92614  Biso   1.000  Cl
  Cl8      1.0000 0.43575  0.30220  0.57386  Biso   1.000  Cl
  N1       1.0000 0.23012  0.61415  0.10343  Biso   1.000  N
  N2       1.0000 0.76988  0.11415  0.39657  Biso   1.000  N
  N3       1.0000 0.76988  0.38585  0.89657  Biso   1.000  N
  N4       1.0000 0.23012  0.88585  0.60343  Biso   1.000  N
  N5       1.0000 0.27401  0.78740  0.16380  Biso   1.000  N
  N6       1.0000 0.72599  0.28740  0.33620  Biso   1.000  N
  N7       1.0000 0.72599  0.21260  0.83620  Biso   1.000  N
  N8       1.0000 0.27401  0.71260  0.66380  Biso   1.000  N
  N9       1.0000 0.21004  0.92740  0.13010  Biso   1.000  N
  N10      1.0000 0.78996  0.42740  0.36990  Biso   1.000  N
  N11      1.0000 0.78996  0.07260  0.86990  Biso   1.000  N
  N12      1.0000 0.21004  0.57260  0.63010  Biso   1.000  N
  N13      1.0000 0.12441  0.84752  0.04954  Biso   1.000  N
  N14      1.0000 0.87559  0.34752  0.45046  Biso   1.000  N
  N15      1.0000 0.87559  0.15248  0.95046  Biso   1.000  N
  N16      1.0000 0.12441  0.65248  0.54954  Biso   1.000  N
  C1       1.0000 0.13837  0.65320  0.03440  Biso   1.000  C
  C2       1.0000 0.86163  0.15320  0.46560  Biso   1.000  C
  C3       1.0000 0.86163  0.34680  0.96560  Biso   1.000  C
  C4       1.0000 0.13837  0.84680  0.53440  Biso   1.000  C
  C5       1.0000 0.28103  0.42120  0.12470  Biso   1.000  C
  C6       1.0000 0.71897  0.92120  0.37530  Biso   1.000  C
  C7       1.0000 0.71897  0.57880  0.87530  Biso   1.000  C
  C8       1.0000 0.28103  0.07880  0.62470  Biso   1.000  C
  C9       1.0000 0.37787  0.43780  0.05320  Biso   1.000  C
  C10      1.0000 0.62213  0.93780  0.44680  Biso   1.000  C
  C11      1.0000 0.62213  0.56220  0.94680  Biso   1.000  C
  C12      1.0000 0.37787  0.06220  0.55320  Biso   1.000  C
  H1       1.0000 0.09820  0.56200  0.98700  Biso   1.000  H
  H2       1.0000 0.90180  0.06200  0.51300  Biso   1.000  H
  H3       1.0000 0.90180  0.43800  0.01300  Biso   1.000  H
  H4       1.0000 0.09820  0.93800  0.48700  Biso   1.000  H
  H5       1.0000 0.24130  0.33000  0.06300  Biso   1.000  H
  H6       1.0000 0.75870  0.83000  0.43700  Biso   1.000  H
  H7       1.0000 0.75870  0.67000  0.93700  Biso   1.000  H
  H8       1.0000 0.24130  0.17000  0.56300  Biso   1.000  H
  H9       1.0000 0.28990  0.38700  0.25200  Biso   1.000  H
  H10      1.0000 0.71010  0.88700  0.24800  Biso   1.000  H
  H11      1.0000 0.71010  0.61300  0.74800  Biso   1.000  H
  H12      1.0000 0.28990  0.11300  0.75200  Biso   1.000  H
  H13      1.0000 0.42010  0.53200  0.12300  Biso   1.000  H
  H14      1.0000 0.57990  0.03200  0.37700  Biso   1.000  H
  H15      1.0000 0.57990  0.46800  0.87700  Biso   1.000  H
  H16      1.0000 0.42010  0.96800  0.62300  Biso   1.000  H
  H17      1.0000 0.36830  0.47900  0.92900  Biso   1.000  H
  H18      1.0000 0.63170  0.97900  0.57100  Biso   1.000  H
  H19      1.0000 0.63170  0.52100  0.07100  Biso   1.000  H
  H20      1.0000 0.36830  0.02100  0.42900  Biso   1.000  H
