data_image0
_cell_length_a       9.6917
_cell_length_b       6.9588
_cell_length_c       11.8878
_cell_angle_alpha    90
_cell_angle_beta     96.971
_cell_angle_gamma    90

_symmetry_space_group_name_H-M    "P 1"
_symmetry_int_tables_number       1

loop_
  _symmetry_equiv_pos_as_xyz
  'x, y, z'

loop_
  _atom_site_label
  _atom_site_occupancy
  _atom_site_fract_x
  _atom_site_fract_y
  _atom_site_fract_z
  _atom_site_thermal_displace_type
  _atom_site_B_iso_or_equiv
  _atom_site_type_symbol
  Cu1      1.0000 0.66351  0.29747  0.90356  Biso   1.000  Cu
  Cu2      1.0000 0.83649  0.79747  0.59644  Biso   1.000  Cu
  Cu3      1.0000 0.33649  0.70253  0.09644  Biso   1.000  Cu
  Cu4      1.0000 0.16351  0.20253  0.40356  Biso   1.000  Cu
  N1       1.0000 0.86980  0.27580  0.94690  Biso   1.000  N
  N2       1.0000 0.63020  0.77580  0.55310  Biso   1.000  N
  N3       1.0000 0.13020  0.72420  0.05310  Biso   1.000  N
  N4       1.0000 0.36980  0.22420  0.44690  Biso   1.000  N
  C1       1.0000 0.94020  0.20490  0.04300  Biso   1.000  C
  C2       1.0000 0.55980  0.70490  0.45700  Biso   1.000  C
  C3       1.0000 0.05980  0.79510  0.95700  Biso   1.000  C
  C4       1.0000 0.44020  0.29510  0.54300  Biso   1.000  C
  O1       1.0000 0.88350  0.13750  0.12310  Biso   1.000  O
  O2       1.0000 0.61650  0.63750  0.37690  Biso   1.000  O
  O3       1.0000 0.11650  0.86250  0.87690  Biso   1.000  O
  O4       1.0000 0.38350  0.36250  0.62310  Biso   1.000  O
  N5       1.0000 0.08480  0.20730  0.05340  Biso   1.000  N
  N6       1.0000 0.41520  0.70730  0.44660  Biso   1.000  N
  N7       1.0000 0.91520  0.79270  0.94660  Biso   1.000  N
  N8       1.0000 0.58480  0.29270  0.55340  Biso   1.000  N
  H1       1.0000 0.12910  0.16110  0.11670  Biso   1.000  H
  H2       1.0000 0.37090  0.66110  0.38330  Biso   1.000  H
  H3       1.0000 0.87090  0.83890  0.88330  Biso   1.000  H
  H4       1.0000 0.62910  0.33890  0.61670  Biso   1.000  H
  C5       1.0000 0.16500  0.27490  0.97430  Biso   1.000  C
  C6       1.0000 0.33500  0.77490  0.52570  Biso   1.000  C
  C7       1.0000 0.83500  0.72510  0.02570  Biso   1.000  C
  C8       1.0000 0.66500  0.22510  0.47430  Biso   1.000  C
  O5       1.0000 0.29290  0.27580  0.99080  Biso   1.000  O
  O6       1.0000 0.20710  0.77580  0.50920  Biso   1.000  O
  O7       1.0000 0.70710  0.72420  0.00920  Biso   1.000  O
  O8       1.0000 0.79290  0.22420  0.49080  Biso   1.000  O
  C9       1.0000 0.08420  0.34720  0.87340  Biso   1.000  C
  C10      1.0000 0.41580  0.84720  0.62660  Biso   1.000  C
  C11      1.0000 0.91580  0.65280  0.12660  Biso   1.000  C
  C12      1.0000 0.58420  0.15280  0.37340  Biso   1.000  C
  F1       1.0000 0.15840  0.41700  0.79456  Biso   1.000  F
  F2       1.0000 0.34160  0.91700  0.70544  Biso   1.000  F
  F3       1.0000 0.84160  0.58300  0.20544  Biso   1.000  F
  F4       1.0000 0.65840  0.08300  0.29456  Biso   1.000  F
  C13      1.0000 0.94210  0.34710  0.86290  Biso   1.000  C
  C14      1.0000 0.55790  0.84710  0.63710  Biso   1.000  C
  C15      1.0000 0.05790  0.65290  0.13710  Biso   1.000  C
  C16      1.0000 0.44210  0.15290  0.36290  Biso   1.000  C
  C17      1.0000 0.85240  0.43300  0.76340  Biso   1.000  C
  C18      1.0000 0.64760  0.93300  0.73660  Biso   1.000  C
  C19      1.0000 0.14760  0.56700  0.23660  Biso   1.000  C
  C20      1.0000 0.35240  0.06700  0.26340  Biso   1.000  C
  O9       1.0000 0.72050  0.41470  0.76648  Biso   1.000  O
  O10      1.0000 0.77950  0.91470  0.73352  Biso   1.000  O
  O11      1.0000 0.27950  0.58530  0.23352  Biso   1.000  O
  O12      1.0000 0.22050  0.08530  0.26648  Biso   1.000  O
  O13      1.0000 0.90510  0.51580  0.68730  Biso   1.000  O
  O14      1.0000 0.59490  0.01580  0.81270  Biso   1.000  O
  O15      1.0000 0.09490  0.48420  0.31270  Biso   1.000  O
  O16      1.0000 0.40510  0.98420  0.18730  Biso   1.000  O
  N9       1.0000 0.60450  0.21310  0.04810  Biso   1.000  N
  N10      1.0000 0.89550  0.71310  0.45190  Biso   1.000  N
  N11      1.0000 0.39550  0.78690  0.95190  Biso   1.000  N
  N12      1.0000 0.10450  0.28690  0.54810  Biso   1.000  N
  H5       1.0000 0.57980  0.31720  0.08740  Biso   1.000  H
  H6       1.0000 0.92020  0.81720  0.41260  Biso   1.000  H
  H7       1.0000 0.42020  0.68280  0.91260  Biso   1.000  H
  H8       1.0000 0.07980  0.18280  0.58740  Biso   1.000  H
  H9       1.0000 0.67590  0.15050  0.08960  Biso   1.000  H
  H10      1.0000 0.82410  0.65050  0.41040  Biso   1.000  H
  H11      1.0000 0.32410  0.84950  0.91040  Biso   1.000  H
  H12      1.0000 0.17590  0.34950  0.58960  Biso   1.000  H
  H13      1.0000 0.53050  0.13240  0.03430  Biso   1.000  H
  H14      1.0000 0.96950  0.63240  0.46570  Biso   1.000  H
  H15      1.0000 0.46950  0.86760  0.96570  Biso   1.000  H
  H16      1.0000 0.03050  0.36760  0.53430  Biso   1.000  H
  O17      1.0000 0.47420  0.39760  0.84910  Biso   1.000  O
  O18      1.0000 0.02580  0.89760  0.65090  Biso   1.000  O
  O19      1.0000 0.52580  0.60240  0.15090  Biso   1.000  O
  O20      1.0000 0.97420  0.10240  0.34910  Biso   1.000  O
  H17      1.0000 0.42530  0.40110  0.77410  Biso   1.000  H
  H18      1.0000 0.07470  0.90110  0.72590  Biso   1.000  H
  H19      1.0000 0.57470  0.59890  0.22590  Biso   1.000  H
  H20      1.0000 0.92530  0.09890  0.27410  Biso   1.000  H
  H21      1.0000 0.40600  0.38090  0.88030  Biso   1.000  H
  H22      1.0000 0.09400  0.88090  0.61970  Biso   1.000  H
  H23      1.0000 0.59400  0.61910  0.11970  Biso   1.000  H
  H24      1.0000 0.90600  0.11910  0.38030  Biso   1.000  H
