data_image0
_cell_length_a       14.6748
_cell_length_b       18.0138
_cell_length_c       8.3678
_cell_angle_alpha    90
_cell_angle_beta     115.946
_cell_angle_gamma    90

_symmetry_space_group_name_H-M    "P 1"
_symmetry_int_tables_number       1

loop_
  _symmetry_equiv_pos_as_xyz
  'x, y, z'

loop_
  _atom_site_label
  _atom_site_occupancy
  _atom_site_fract_x
  _atom_site_fract_y
  _atom_site_fract_z
  _atom_site_thermal_displace_type
  _atom_site_B_iso_or_equiv
  _atom_site_type_symbol
  Cu1      1.0000 0.00000  0.39712  0.25000  Biso   1.000  Cu
  Cu2      1.0000 0.50000  0.89712  0.25000  Biso   1.000  Cu
  Cu3      1.0000 0.00000  0.60288  0.75000  Biso   1.000  Cu
  Cu4      1.0000 0.50000  0.10288  0.75000  Biso   1.000  Cu
  O1       1.0000 0.00000  0.52093  0.25000  Biso   1.000  O
  O2       1.0000 0.50000  0.02093  0.25000  Biso   1.000  O
  O3       1.0000 0.00000  0.47907  0.75000  Biso   1.000  O
  O4       1.0000 0.50000  0.97907  0.75000  Biso   1.000  O
  H1       1.0000 0.98640  0.54730  0.16300  Biso   1.000  H
  H2       1.0000 0.48640  0.04730  0.16300  Biso   1.000  H
  H3       1.0000 0.01360  0.54730  0.33700  Biso   1.000  H
  H4       1.0000 0.51360  0.04730  0.33700  Biso   1.000  H
  H5       1.0000 0.01360  0.45270  0.83700  Biso   1.000  H
  H6       1.0000 0.51360  0.95270  0.83700  Biso   1.000  H
  H7       1.0000 0.98640  0.45270  0.66300  Biso   1.000  H
  H8       1.0000 0.48640  0.95270  0.66300  Biso   1.000  H
  O5       1.0000 0.03483  0.38352  0.04408  Biso   1.000  O
  O6       1.0000 0.53483  0.88352  0.04408  Biso   1.000  O
  O7       1.0000 0.96517  0.38352  0.45592  Biso   1.000  O
  O8       1.0000 0.46517  0.88352  0.45592  Biso   1.000  O
  O9       1.0000 0.96517  0.61648  0.95592  Biso   1.000  O
  O10      1.0000 0.46517  0.11648  0.95592  Biso   1.000  O
  O11      1.0000 0.03483  0.61648  0.54408  Biso   1.000  O
  O12      1.0000 0.53483  0.11648  0.54408  Biso   1.000  O
  O13      1.0000 0.08184  0.26907  0.14512  Biso   1.000  O
  O14      1.0000 0.58184  0.76907  0.14512  Biso   1.000  O
  O15      1.0000 0.91816  0.26907  0.35488  Biso   1.000  O
  O16      1.0000 0.41816  0.76907  0.35488  Biso   1.000  O
  O17      1.0000 0.91816  0.73093  0.85488  Biso   1.000  O
  O18      1.0000 0.41816  0.23093  0.85488  Biso   1.000  O
  O19      1.0000 0.08184  0.73093  0.64512  Biso   1.000  O
  O20      1.0000 0.58184  0.23093  0.64512  Biso   1.000  O
  N1       1.0000 0.14756  0.38989  0.41896  Biso   1.000  N
  N2       1.0000 0.64756  0.88989  0.41896  Biso   1.000  N
  N3       1.0000 0.85244  0.38989  0.08104  Biso   1.000  N
  N4       1.0000 0.35244  0.88989  0.08104  Biso   1.000  N
  N5       1.0000 0.85244  0.61011  0.58104  Biso   1.000  N
  N6       1.0000 0.35244  0.11011  0.58104  Biso   1.000  N
  N7       1.0000 0.14756  0.61011  0.91896  Biso   1.000  N
  N8       1.0000 0.64756  0.11011  0.91896  Biso   1.000  N
  N9       1.0000 0.28008  0.32622  0.60928  Biso   1.000  N
  N10      1.0000 0.78008  0.82622  0.60928  Biso   1.000  N
  N11      1.0000 0.71992  0.32622  0.89072  Biso   1.000  N
  N12      1.0000 0.21992  0.82622  0.89072  Biso   1.000  N
  N13      1.0000 0.71992  0.67378  0.39072  Biso   1.000  N
  N14      1.0000 0.21992  0.17378  0.39072  Biso   1.000  N
  N15      1.0000 0.28008  0.67378  0.10928  Biso   1.000  N
  N16      1.0000 0.78008  0.17378  0.10928  Biso   1.000  N
  H9       1.0000 0.31490  0.29660  0.69300  Biso   1.000  H
  H10      1.0000 0.81490  0.79660  0.69300  Biso   1.000  H
  H11      1.0000 0.68510  0.29660  0.80700  Biso   1.000  H
  H12      1.0000 0.18510  0.79660  0.80700  Biso   1.000  H
  H13      1.0000 0.68510  0.70340  0.30700  Biso   1.000  H
  H14      1.0000 0.18510  0.20340  0.30700  Biso   1.000  H
  H15      1.0000 0.31490  0.70340  0.19300  Biso   1.000  H
  H16      1.0000 0.81490  0.20340  0.19300  Biso   1.000  H
  C1       1.0000 0.18143  0.34051  0.54841  Biso   1.000  C
  C2       1.0000 0.68143  0.84051  0.54841  Biso   1.000  C
  C3       1.0000 0.81857  0.34051  0.95159  Biso   1.000  C
  C4       1.0000 0.31857  0.84051  0.95159  Biso   1.000  C
  C5       1.0000 0.81857  0.65949  0.45159  Biso   1.000  C
  C6       1.0000 0.31857  0.15949  0.45159  Biso   1.000  C
  C7       1.0000 0.18143  0.65949  0.04841  Biso   1.000  C
  C8       1.0000 0.68143  0.15949  0.04841  Biso   1.000  C
  H17      1.0000 0.13690  0.31470  0.58500  Biso   1.000  H
  H18      1.0000 0.63690  0.81470  0.58500  Biso   1.000  H
  H19      1.0000 0.86310  0.31470  0.91500  Biso   1.000  H
  H20      1.0000 0.36310  0.81470  0.91500  Biso   1.000  H
  H21      1.0000 0.86310  0.68530  0.41500  Biso   1.000  H
  H22      1.0000 0.36310  0.18530  0.41500  Biso   1.000  H
  H23      1.0000 0.13690  0.68530  0.08500  Biso   1.000  H
  H24      1.0000 0.63690  0.18530  0.08500  Biso   1.000  H
  C9       1.0000 0.41056  0.37293  0.51200  Biso   1.000  C
  C10      1.0000 0.91056  0.87293  0.51200  Biso   1.000  C
  C11      1.0000 0.58944  0.37293  0.98800  Biso   1.000  C
  C12      1.0000 0.08944  0.87293  0.98800  Biso   1.000  C
  C13      1.0000 0.58944  0.62707  0.48800  Biso   1.000  C
  C14      1.0000 0.08944  0.12707  0.48800  Biso   1.000  C
  C15      1.0000 0.41056  0.62707  0.01200  Biso   1.000  C
  C16      1.0000 0.91056  0.12707  0.01200  Biso   1.000  C
  H25      1.0000 0.46290  0.34390  0.58500  Biso   1.000  H
  H26      1.0000 0.96290  0.84390  0.58500  Biso   1.000  H
  H27      1.0000 0.53710  0.34390  0.91500  Biso   1.000  H
  H28      1.0000 0.03710  0.84390  0.91500  Biso   1.000  H
  H29      1.0000 0.53710  0.65610  0.41500  Biso   1.000  H
  H30      1.0000 0.03710  0.15610  0.41500  Biso   1.000  H
  H31      1.0000 0.46290  0.65610  0.08500  Biso   1.000  H
  H32      1.0000 0.96290  0.15610  0.08500  Biso   1.000  H
  C17      1.0000 0.41985  0.42243  0.39510  Biso   1.000  C
  C18      1.0000 0.91985  0.92243  0.39510  Biso   1.000  C
  C19      1.0000 0.58015  0.42243  0.10490  Biso   1.000  C
  C20      1.0000 0.08015  0.92243  0.10490  Biso   1.000  C
  C21      1.0000 0.58015  0.57757  0.60490  Biso   1.000  C
  C22      1.0000 0.08015  0.07757  0.60490  Biso   1.000  C
  C23      1.0000 0.41985  0.57757  0.89510  Biso   1.000  C
  C24      1.0000 0.91985  0.07757  0.89510  Biso   1.000  C
  H33      1.0000 0.48240  0.42590  0.39500  Biso   1.000  H
  H34      1.0000 0.98240  0.92590  0.39500  Biso   1.000  H
  H35      1.0000 0.51760  0.42590  0.10500  Biso   1.000  H
  H36      1.0000 0.01760  0.92590  0.10500  Biso   1.000  H
  H37      1.0000 0.51760  0.57410  0.60500  Biso   1.000  H
  H38      1.0000 0.01760  0.07410  0.60500  Biso   1.000  H
  H39      1.0000 0.48240  0.57410  0.89500  Biso   1.000  H
  H40      1.0000 0.98240  0.07410  0.89500  Biso   1.000  H
  C25      1.0000 0.33818  0.46554  0.28090  Biso   1.000  C
  C26      1.0000 0.83818  0.96554  0.28090  Biso   1.000  C
  C27      1.0000 0.66182  0.46554  0.21910  Biso   1.000  C
  C28      1.0000 0.16182  0.96554  0.21910  Biso   1.000  C
  C29      1.0000 0.66182  0.53446  0.71910  Biso   1.000  C
  C30      1.0000 0.16182  0.03446  0.71910  Biso   1.000  C
  C31      1.0000 0.33818  0.53446  0.78090  Biso   1.000  C
  C32      1.0000 0.83818  0.03446  0.78090  Biso   1.000  C
  H41      1.0000 0.35100  0.50050  0.21000  Biso   1.000  H
  H42      1.0000 0.85100  0.00050  0.21000  Biso   1.000  H
  H43      1.0000 0.64900  0.50050  0.29000  Biso   1.000  H
  H44      1.0000 0.14900  0.00050  0.29000  Biso   1.000  H
  H45      1.0000 0.64900  0.49950  0.79000  Biso   1.000  H
  H46      1.0000 0.14900  0.99950  0.79000  Biso   1.000  H
  H47      1.0000 0.35100  0.49950  0.71000  Biso   1.000  H
  H48      1.0000 0.85100  0.99950  0.71000  Biso   1.000  H
  C33      1.0000 0.24349  0.45980  0.27640  Biso   1.000  C
  C34      1.0000 0.74349  0.95980  0.27640  Biso   1.000  C
  C35      1.0000 0.75651  0.45980  0.22360  Biso   1.000  C
  C36      1.0000 0.25651  0.95980  0.22360  Biso   1.000  C
  C37      1.0000 0.75651  0.54020  0.72360  Biso   1.000  C
  C38      1.0000 0.25651  0.04020  0.72360  Biso   1.000  C
  C39      1.0000 0.24349  0.54020  0.77640  Biso   1.000  C
  C40      1.0000 0.74349  0.04020  0.77640  Biso   1.000  C
  H49      1.0000 0.19030  0.48700  0.20400  Biso   1.000  H
  H50      1.0000 0.69030  0.98700  0.20400  Biso   1.000  H
  H51      1.0000 0.80970  0.48700  0.29600  Biso   1.000  H
  H52      1.0000 0.30970  0.98700  0.29600  Biso   1.000  H
  H53      1.0000 0.80970  0.51300  0.79600  Biso   1.000  H
  H54      1.0000 0.30970  0.01300  0.79600  Biso   1.000  H
  H55      1.0000 0.19030  0.51300  0.70400  Biso   1.000  H
  H56      1.0000 0.69030  0.01300  0.70400  Biso   1.000  H
  C41      1.0000 0.23223  0.40924  0.39290  Biso   1.000  C
  C42      1.0000 0.73223  0.90924  0.39290  Biso   1.000  C
  C43      1.0000 0.76777  0.40924  0.10710  Biso   1.000  C
  C44      1.0000 0.26777  0.90924  0.10710  Biso   1.000  C
  C45      1.0000 0.76777  0.59076  0.60710  Biso   1.000  C
  C46      1.0000 0.26777  0.09076  0.60710  Biso   1.000  C
  C47      1.0000 0.23223  0.59076  0.89290  Biso   1.000  C
  C48      1.0000 0.73223  0.09076  0.89290  Biso   1.000  C
  C49      1.0000 0.31539  0.36823  0.51010  Biso   1.000  C
  C50      1.0000 0.81539  0.86823  0.51010  Biso   1.000  C
  C51      1.0000 0.68461  0.36823  0.98990  Biso   1.000  C
  C52      1.0000 0.18461  0.86823  0.98990  Biso   1.000  C
  C53      1.0000 0.68461  0.63177  0.48990  Biso   1.000  C
  C54      1.0000 0.18461  0.13177  0.48990  Biso   1.000  C
  C55      1.0000 0.31539  0.63177  0.01010  Biso   1.000  C
  C56      1.0000 0.81539  0.13177  0.01010  Biso   1.000  C
  C57      1.0000 0.08106  0.32230  0.05167  Biso   1.000  C
  C58      1.0000 0.58106  0.82230  0.05167  Biso   1.000  C
  C59      1.0000 0.91894  0.32230  0.44833  Biso   1.000  C
  C60      1.0000 0.41894  0.82230  0.44833  Biso   1.000  C
  C61      1.0000 0.91894  0.67770  0.94833  Biso   1.000  C
  C62      1.0000 0.41894  0.17770  0.94833  Biso   1.000  C
  C63      1.0000 0.08106  0.67770  0.55167  Biso   1.000  C
  C64      1.0000 0.58106  0.17770  0.55167  Biso   1.000  C
  C65      1.0000 0.13783  0.31819  0.93720  Biso   1.000  C
  C66      1.0000 0.63783  0.81819  0.93720  Biso   1.000  C
  C67      1.0000 0.86217  0.31819  0.56280  Biso   1.000  C
  C68      1.0000 0.36217  0.81819  0.56280  Biso   1.000  C
  C69      1.0000 0.86217  0.68181  0.06280  Biso   1.000  C
  C70      1.0000 0.36217  0.18181  0.06280  Biso   1.000  C
  C71      1.0000 0.13783  0.68181  0.43720  Biso   1.000  C
  C72      1.0000 0.63783  0.18181  0.43720  Biso   1.000  C
  H57      1.0000 0.17200  0.36600  0.94200  Biso   1.000  H
  H58      1.0000 0.67200  0.86600  0.94200  Biso   1.000  H
  H59      1.0000 0.82800  0.36600  0.55800  Biso   1.000  H
  H60      1.0000 0.32800  0.86600  0.55800  Biso   1.000  H
  H61      1.0000 0.82800  0.63400  0.05800  Biso   1.000  H
  H62      1.0000 0.32800  0.13400  0.05800  Biso   1.000  H
  H63      1.0000 0.17200  0.63400  0.44200  Biso   1.000  H
  H64      1.0000 0.67200  0.13400  0.44200  Biso   1.000  H
  H65      1.0000 0.09400  0.32230  0.83100  Biso   1.000  H
  H66      1.0000 0.59400  0.82230  0.83100  Biso   1.000  H
  H67      1.0000 0.90600  0.32230  0.66900  Biso   1.000  H
  H68      1.0000 0.40600  0.82230  0.66900  Biso   1.000  H
  H69      1.0000 0.90600  0.67770  0.16900  Biso   1.000  H
  H70      1.0000 0.40600  0.17770  0.16900  Biso   1.000  H
  H71      1.0000 0.09400  0.67770  0.33100  Biso   1.000  H
  H72      1.0000 0.59400  0.17770  0.33100  Biso   1.000  H
  C73      1.0000 0.20180  0.25160  0.96720  Biso   1.000  C
  C74      1.0000 0.70180  0.75160  0.96720  Biso   1.000  C
  C75      1.0000 0.79820  0.25160  0.53280  Biso   1.000  C
  C76      1.0000 0.29820  0.75160  0.53280  Biso   1.000  C
  C77      1.0000 0.79820  0.74840  0.03280  Biso   1.000  C
  C78      1.0000 0.29820  0.24840  0.03280  Biso   1.000  C
  C79      1.0000 0.20180  0.74840  0.46720  Biso   1.000  C
  C80      1.0000 0.70180  0.24840  0.46720  Biso   1.000  C
  H73      1.0000 0.16200  0.20700  0.92600  Biso   1.000  H
  H74      1.0000 0.66200  0.70700  0.92600  Biso   1.000  H
  H75      1.0000 0.83800  0.20700  0.57400  Biso   1.000  H
  H76      1.0000 0.33800  0.70700  0.57400  Biso   1.000  H
  H77      1.0000 0.83800  0.79300  0.07400  Biso   1.000  H
  H78      1.0000 0.33800  0.29300  0.07400  Biso   1.000  H
  H79      1.0000 0.16200  0.79300  0.42600  Biso   1.000  H
  H80      1.0000 0.66200  0.29300  0.42600  Biso   1.000  H
  C81      1.0000 0.23730  0.28280  0.02120  Biso   1.000  C
  C82      1.0000 0.73730  0.78280  0.02120  Biso   1.000  C
  C83      1.0000 0.76270  0.28280  0.47880  Biso   1.000  C
  C84      1.0000 0.26270  0.78280  0.47880  Biso   1.000  C
  C85      1.0000 0.76270  0.71720  0.97880  Biso   1.000  C
  C86      1.0000 0.26270  0.21720  0.97880  Biso   1.000  C
  C87      1.0000 0.23730  0.71720  0.52120  Biso   1.000  C
  C88      1.0000 0.73730  0.21720  0.52120  Biso   1.000  C
  H81      1.0000 0.28800  0.30860  0.11360  Biso   1.000  H
  H82      1.0000 0.78800  0.80860  0.11360  Biso   1.000  H
  H83      1.0000 0.71200  0.30860  0.38640  Biso   1.000  H
  H84      1.0000 0.21200  0.80860  0.38640  Biso   1.000  H
  H85      1.0000 0.71200  0.69140  0.88640  Biso   1.000  H
  H86      1.0000 0.21200  0.19140  0.88640  Biso   1.000  H
  H87      1.0000 0.28800  0.69140  0.61360  Biso   1.000  H
  H88      1.0000 0.78800  0.19140  0.61360  Biso   1.000  H
