data_image0
_cell_length_a       10.997
_cell_length_b       7.771
_cell_length_c       19.421
_cell_angle_alpha    90
_cell_angle_beta     91.39
_cell_angle_gamma    90

_symmetry_space_group_name_H-M    "P 1"
_symmetry_int_tables_number       1

loop_
  _symmetry_equiv_pos_as_xyz
  'x, y, z'

loop_
  _atom_site_label
  _atom_site_occupancy
  _atom_site_fract_x
  _atom_site_fract_y
  _atom_site_fract_z
  _atom_site_thermal_displace_type
  _atom_site_B_iso_or_equiv
  _atom_site_type_symbol
  Zr1      1.0000 0.46303  0.26741  0.20262  Biso   1.000  Zr
  Zr2      1.0000 0.03697  0.76741  0.29738  Biso   1.000  Zr
  Zr3      1.0000 0.53697  0.73259  0.79738  Biso   1.000  Zr
  Zr4      1.0000 0.96303  0.23259  0.70262  Biso   1.000  Zr
  F1       1.0000 0.37098  0.44930  0.25149  Biso   1.000  F
  F2       1.0000 0.12902  0.94930  0.24851  Biso   1.000  F
  F3       1.0000 0.62902  0.55070  0.74851  Biso   1.000  F
  F4       1.0000 0.87098  0.05070  0.75149  Biso   1.000  F
  F5       1.0000 0.54479  0.44040  0.14239  Biso   1.000  F
  F6       1.0000 0.95521  0.94040  0.35761  Biso   1.000  F
  F7       1.0000 0.45521  0.55960  0.85761  Biso   1.000  F
  F8       1.0000 0.04479  0.05960  0.64239  Biso   1.000  F
  F9       1.0000 0.39568  0.07440  0.25772  Biso   1.000  F
  F10      1.0000 0.10432  0.57440  0.24228  Biso   1.000  F
  F11      1.0000 0.60432  0.92560  0.74228  Biso   1.000  F
  F12      1.0000 0.89568  0.42560  0.75772  Biso   1.000  F
  F13      1.0000 0.56862  0.09020  0.15603  Biso   1.000  F
  F14      1.0000 0.93138  0.59020  0.34397  Biso   1.000  F
  F15      1.0000 0.43138  0.90980  0.84397  Biso   1.000  F
  F16      1.0000 0.06862  0.40980  0.65603  Biso   1.000  F
  F17      1.0000 0.59519  0.29270  0.27657  Biso   1.000  F
  F18      1.0000 0.90481  0.79270  0.22343  Biso   1.000  F
  F19      1.0000 0.40481  0.70730  0.72343  Biso   1.000  F
  F20      1.0000 0.09519  0.20730  0.77657  Biso   1.000  F
  F21      1.0000 0.32830  0.24220  0.13253  Biso   1.000  F
  F22      1.0000 0.17170  0.74220  0.36747  Biso   1.000  F
  F23      1.0000 0.67170  0.75780  0.86747  Biso   1.000  F
  F24      1.0000 0.82830  0.25780  0.63253  Biso   1.000  F
  Cu1      1.0000 0.00000  0.50000  0.00000  Biso   1.000  Cu
  Cu2      1.0000 0.50000  0.00000  0.50000  Biso   1.000  Cu
  Cu3      1.0000 0.00000  0.00000  0.00000  Biso   1.000  Cu
  Cu4      1.0000 0.50000  0.50000  0.50000  Biso   1.000  Cu
  N1       1.0000 0.84220  0.68930  0.01501  Biso   1.000  N
  N2       1.0000 0.65780  0.18930  0.48499  Biso   1.000  N
  N3       1.0000 0.15780  0.31070  0.98499  Biso   1.000  N
  N4       1.0000 0.34220  0.81070  0.51501  Biso   1.000  N
  N5       1.0000 0.85020  0.86450  0.02472  Biso   1.000  N
  N6       1.0000 0.64980  0.36450  0.47528  Biso   1.000  N
  N7       1.0000 0.14980  0.13550  0.97528  Biso   1.000  N
  N8       1.0000 0.35020  0.63550  0.52472  Biso   1.000  N
  C1       1.0000 0.74670  0.91860  0.04971  Biso   1.000  C
  C2       1.0000 0.75330  0.41860  0.45029  Biso   1.000  C
  C3       1.0000 0.25330  0.08140  0.95029  Biso   1.000  C
  C4       1.0000 0.24670  0.58140  0.54971  Biso   1.000  C
  N9       1.0000 0.67160  0.78170  0.05659  Biso   1.000  N
  N10      1.0000 0.82840  0.28170  0.44341  Biso   1.000  N
  N11      1.0000 0.32840  0.21830  0.94341  Biso   1.000  N
  N12      1.0000 0.17160  0.71830  0.55659  Biso   1.000  N
  C5       1.0000 0.73270  0.64300  0.03336  Biso   1.000  C
  C6       1.0000 0.76730  0.14300  0.46664  Biso   1.000  C
  C7       1.0000 0.26730  0.35700  0.96664  Biso   1.000  C
  C8       1.0000 0.23270  0.85700  0.53336  Biso   1.000  C
  N13      1.0000 0.54980  0.78070  0.07825  Biso   1.000  N
  N14      1.0000 0.95020  0.28070  0.42175  Biso   1.000  N
  N15      1.0000 0.45020  0.21930  0.92175  Biso   1.000  N
  N16      1.0000 0.04980  0.71930  0.57825  Biso   1.000  N
  N17      1.0000 0.95440  0.37260  0.08591  Biso   1.000  N
  N18      1.0000 0.54560  0.87260  0.41409  Biso   1.000  N
  N19      1.0000 0.04560  0.62740  0.91409  Biso   1.000  N
  N20      1.0000 0.45440  0.12740  0.58591  Biso   1.000  N
  N21      1.0000 0.96530  0.19530  0.09221  Biso   1.000  N
  N22      1.0000 0.53470  0.69530  0.40779  Biso   1.000  N
  N23      1.0000 0.03470  0.80470  0.90779  Biso   1.000  N
  N24      1.0000 0.46530  0.30470  0.59221  Biso   1.000  N
  C9       1.0000 0.93010  0.15760  0.15443  Biso   1.000  C
  C10      1.0000 0.56990  0.65760  0.34557  Biso   1.000  C
  C11      1.0000 0.06990  0.84240  0.84557  Biso   1.000  C
  C12      1.0000 0.43010  0.34240  0.65443  Biso   1.000  C
  N25      1.0000 0.89550  0.30090  0.18751  Biso   1.000  N
  N26      1.0000 0.60450  0.80090  0.31249  Biso   1.000  N
  N27      1.0000 0.10450  0.69910  0.81249  Biso   1.000  N
  N28      1.0000 0.39550  0.19910  0.68751  Biso   1.000  N
  C13      1.0000 0.91250  0.43320  0.14365  Biso   1.000  C
  C14      1.0000 0.58750  0.93320  0.35635  Biso   1.000  C
  C15      1.0000 0.08750  0.56680  0.85635  Biso   1.000  C
  C16      1.0000 0.41250  0.06680  0.64365  Biso   1.000  C
  N29      1.0000 0.85370  0.30330  0.25597  Biso   1.000  N
  N30      1.0000 0.64630  0.80330  0.24403  Biso   1.000  N
  N31      1.0000 0.14630  0.69670  0.74403  Biso   1.000  N
  N32      1.0000 0.35370  0.19670  0.75597  Biso   1.000  N
  N33      1.0000 0.10800  0.66500  0.05960  Biso   1.000  N
  N34      1.0000 0.39200  0.16500  0.44040  Biso   1.000  N
  N35      1.0000 0.89200  0.33500  0.94040  Biso   1.000  N
  N36      1.0000 0.60800  0.83500  0.55960  Biso   1.000  N
  N37      1.0000 0.10640  0.84180  0.05868  Biso   1.000  N
  N38      1.0000 0.39360  0.34180  0.44132  Biso   1.000  N
  N39      1.0000 0.89360  0.15820  0.94132  Biso   1.000  N
  N40      1.0000 0.60640  0.65820  0.55868  Biso   1.000  N
  C17      1.0000 0.19050  0.89670  0.10328  Biso   1.000  C
  C18      1.0000 0.30950  0.39670  0.39672  Biso   1.000  C
  C19      1.0000 0.80950  0.10330  0.89672  Biso   1.000  C
  C20      1.0000 0.69050  0.60330  0.60328  Biso   1.000  C
  N41      1.0000 0.24560  0.75930  0.13238  Biso   1.000  N
  N42      1.0000 0.25440  0.25930  0.36762  Biso   1.000  N
  N43      1.0000 0.75440  0.24070  0.86762  Biso   1.000  N
  N44      1.0000 0.74560  0.74070  0.63238  Biso   1.000  N
  C21      1.0000 0.19330  0.61730  0.10447  Biso   1.000  C
  C22      1.0000 0.30670  0.11730  0.39553  Biso   1.000  C
  C23      1.0000 0.80670  0.38270  0.89553  Biso   1.000  C
  C24      1.0000 0.69330  0.88270  0.60447  Biso   1.000  C
  N45      1.0000 0.34560  0.76520  0.17957  Biso   1.000  N
  N46      1.0000 0.15440  0.26520  0.32043  Biso   1.000  N
  N47      1.0000 0.65440  0.23480  0.82043  Biso   1.000  N
  N48      1.0000 0.84560  0.73480  0.67957  Biso   1.000  N
  H1       1.0000 0.72100  0.03300  0.05800  Biso   1.000  H
  H2       1.0000 0.77900  0.53300  0.44200  Biso   1.000  H
  H3       1.0000 0.27900  0.96700  0.94200  Biso   1.000  H
  H4       1.0000 0.22100  0.46700  0.55800  Biso   1.000  H
  H5       1.0000 0.70400  0.52800  0.02900  Biso   1.000  H
  H6       1.0000 0.79600  0.02800  0.47100  Biso   1.000  H
  H7       1.0000 0.29600  0.47200  0.97100  Biso   1.000  H
  H8       1.0000 0.20400  0.97200  0.52900  Biso   1.000  H
  H9       1.0000 0.54100  0.88000  0.09800  Biso   1.000  H
  H10      1.0000 0.95900  0.38000  0.40200  Biso   1.000  H
  H11      1.0000 0.45900  0.12000  0.90200  Biso   1.000  H
  H12      1.0000 0.04100  0.62000  0.59800  Biso   1.000  H
  H13      1.0000 0.54600  0.71000  0.10600  Biso   1.000  H
  H14      1.0000 0.95400  0.21000  0.39400  Biso   1.000  H
  H15      1.0000 0.45400  0.29000  0.89400  Biso   1.000  H
  H16      1.0000 0.04600  0.79000  0.60600  Biso   1.000  H
  H17      1.0000 0.92600  0.05300  0.17100  Biso   1.000  H
  H18      1.0000 0.57400  0.55300  0.32900  Biso   1.000  H
  H19      1.0000 0.07400  0.94700  0.82900  Biso   1.000  H
  H20      1.0000 0.42600  0.44700  0.67100  Biso   1.000  H
  H21      1.0000 0.90500  0.54600  0.15300  Biso   1.000  H
  H22      1.0000 0.59500  0.04600  0.34700  Biso   1.000  H
  H23      1.0000 0.09500  0.45400  0.84700  Biso   1.000  H
  H24      1.0000 0.40500  0.95400  0.65300  Biso   1.000  H
  H25      1.0000 0.77700  0.30800  0.25500  Biso   1.000  H
  H26      1.0000 0.72300  0.80800  0.24500  Biso   1.000  H
  H27      1.0000 0.22300  0.69200  0.74500  Biso   1.000  H
  H28      1.0000 0.27700  0.19200  0.75500  Biso   1.000  H
  H29      1.0000 0.88200  0.39600  0.27600  Biso   1.000  H
  H30      1.0000 0.61800  0.89600  0.22400  Biso   1.000  H
  H31      1.0000 0.11800  0.60400  0.72400  Biso   1.000  H
  H32      1.0000 0.38200  0.10400  0.77600  Biso   1.000  H
  H33      1.0000 0.21100  0.01800  0.11500  Biso   1.000  H
  H34      1.0000 0.28900  0.51800  0.38500  Biso   1.000  H
  H35      1.0000 0.78900  0.98200  0.88500  Biso   1.000  H
  H36      1.0000 0.71100  0.48200  0.61500  Biso   1.000  H
  H37      1.0000 0.21800  0.50500  0.11600  Biso   1.000  H
  H38      1.0000 0.28200  0.00500  0.38400  Biso   1.000  H
  H39      1.0000 0.78200  0.49500  0.88400  Biso   1.000  H
  H40      1.0000 0.71800  0.99500  0.61600  Biso   1.000  H
  H41      1.0000 0.33800  0.85300  0.20400  Biso   1.000  H
  H42      1.0000 0.16200  0.35300  0.29600  Biso   1.000  H
  H43      1.0000 0.66200  0.14700  0.79600  Biso   1.000  H
  H44      1.0000 0.83800  0.64700  0.70400  Biso   1.000  H
  H45      1.0000 0.34600  0.66100  0.20500  Biso   1.000  H
  H46      1.0000 0.15400  0.16100  0.29500  Biso   1.000  H
  H47      1.0000 0.65400  0.33900  0.79500  Biso   1.000  H
  H48      1.0000 0.84600  0.83900  0.70500  Biso   1.000  H
  O1       1.0000 0.63370  0.27440  0.02448  Biso   1.000  O
  O2       1.0000 0.86630  0.77440  0.47552  Biso   1.000  O
  O3       1.0000 0.36630  0.72560  0.97552  Biso   1.000  O
  O4       1.0000 0.13370  0.22560  0.52448  Biso   1.000  O
  H49      1.0000 0.58300  0.25800  0.98800  Biso   1.000  H
  H50      1.0000 0.91700  0.75800  0.51200  Biso   1.000  H
  H51      1.0000 0.41700  0.74200  0.01200  Biso   1.000  H
  H52      1.0000 0.08300  0.24200  0.48800  Biso   1.000  H
  H53      1.0000 0.59100  0.28500  0.06500  Biso   1.000  H
  H54      1.0000 0.90900  0.78500  0.43500  Biso   1.000  H
  H55      1.0000 0.40900  0.71500  0.93500  Biso   1.000  H
  H56      1.0000 0.09100  0.21500  0.56500  Biso   1.000  H
