data_image0
_cell_length_a       8.4386
_cell_length_b       9.8933
_cell_length_c       10.0779
_cell_angle_alpha    85.708
_cell_angle_beta     65.778
_cell_angle_gamma    75.378

_symmetry_space_group_name_H-M    "P 1"
_symmetry_int_tables_number       1

loop_
  _symmetry_equiv_pos_as_xyz
  'x, y, z'

loop_
  _atom_site_label
  _atom_site_occupancy
  _atom_site_fract_x
  _atom_site_fract_y
  _atom_site_fract_z
  _atom_site_thermal_displace_type
  _atom_site_B_iso_or_equiv
  _atom_site_type_symbol
  Cu1      1.0000 0.50000  0.00000  0.00000  Biso   1.000  Cu
  N1       1.0000 0.30060  0.17277  0.05307  Biso   1.000  N
  N2       1.0000 0.69940  0.82723  0.94693  Biso   1.000  N
  N3       1.0000 0.02740  0.30405  0.15758  Biso   1.000  N
  N4       1.0000 0.97260  0.69595  0.84242  Biso   1.000  N
  N5       1.0000 0.60730  0.06152  0.79115  Biso   1.000  N
  N6       1.0000 0.39270  0.93848  0.20885  Biso   1.000  N
  N7       1.0000 0.78480  0.14589  0.59437  Biso   1.000  N
  N8       1.0000 0.21520  0.85411  0.40563  Biso   1.000  N
  O1       1.0000 0.32080  0.87760  0.92290  Biso   1.000  O
  O2       1.0000 0.67920  0.12240  0.07710  Biso   1.000  O
  H1       1.0000 0.26200  0.93300  0.88500  Biso   1.000  H
  H2       1.0000 0.73800  0.06700  0.11500  Biso   1.000  H
  H3       1.0000 0.25400  0.83100  0.97600  Biso   1.000  H
  H4       1.0000 0.74600  0.16900  0.02400  Biso   1.000  H
  C1       1.0000 0.13050  0.17300  0.12560  Biso   1.000  C
  C2       1.0000 0.86950  0.82700  0.87440  Biso   1.000  C
  H5       1.0000 0.08740  0.09290  0.15140  Biso   1.000  H
  H6       1.0000 0.91260  0.90710  0.84860  Biso   1.000  H
  C3       1.0000 0.30550  0.31180  0.03630  Biso   1.000  C
  C4       1.0000 0.69450  0.68820  0.96370  Biso   1.000  C
  H7       1.0000 0.40850  0.34420  0.98820  Biso   1.000  H
  H8       1.0000 0.59150  0.65580  0.01180  Biso   1.000  H
  C5       1.0000 0.13690  0.39380  0.10090  Biso   1.000  C
  C6       1.0000 0.86310  0.60620  0.89910  Biso   1.000  C
  H9       1.0000 0.10280  0.49090  0.10570  Biso   1.000  H
  H10      1.0000 0.89720  0.50910  0.89430  Biso   1.000  H
  C7       1.0000 0.83230  0.34140  0.24180  Biso   1.000  C
  C8       1.0000 0.16770  0.65860  0.75820  Biso   1.000  C
  H11      1.0000 0.79050  0.25660  0.27100  Biso   1.000  H
  H12      1.0000 0.20950  0.74340  0.72900  Biso   1.000  H
  H13      1.0000 0.77480  0.39170  0.18060  Biso   1.000  H
  H14      1.0000 0.22520  0.60830  0.81940  Biso   1.000  H
  C9       1.0000 0.77820  0.43090  0.37580  Biso   1.000  C
  C10      1.0000 0.22180  0.56910  0.62420  Biso   1.000  C
  C11      1.0000 0.68870  0.57010  0.37930  Biso   1.000  C
  C12      1.0000 0.31130  0.42990  0.62070  Biso   1.000  C
  H15      1.0000 0.66140  0.60460  0.30080  Biso   1.000  H
  H16      1.0000 0.33860  0.39540  0.69920  Biso   1.000  H
  C13      1.0000 0.63940  0.65820  0.49670  Biso   1.000  C
  C14      1.0000 0.36060  0.34180  0.50330  Biso   1.000  C
  H17      1.0000 0.58030  0.75120  0.49640  Biso   1.000  H
  H18      1.0000 0.41970  0.24880  0.50360  Biso   1.000  H
  C15      1.0000 0.67740  0.60920  0.61390  Biso   1.000  C
  C16      1.0000 0.32260  0.39080  0.38610  Biso   1.000  C
  H19      1.0000 0.64360  0.66830  0.69340  Biso   1.000  H
  H20      1.0000 0.35640  0.33170  0.30660  Biso   1.000  H
  C17      1.0000 0.76650  0.47080  0.61260  Biso   1.000  C
  C18      1.0000 0.23350  0.52920  0.38740  Biso   1.000  C
  H21      1.0000 0.79380  0.43770  0.69150  Biso   1.000  H
  H22      1.0000 0.20620  0.56230  0.30850  Biso   1.000  H
  C19      1.0000 0.81610  0.38000  0.49540  Biso   1.000  C
  C20      1.0000 0.18390  0.62000  0.50460  Biso   1.000  C
  C21      1.0000 0.91000  0.22950  0.50510  Biso   1.000  C
  C22      1.0000 0.09000  0.77050  0.49490  Biso   1.000  C
  H23      1.0000 0.97560  0.18750  0.40780  Biso   1.000  H
  H24      1.0000 0.02440  0.81250  0.59220  Biso   1.000  H
  H25      1.0000 0.99590  0.22800  0.54650  Biso   1.000  H
  H26      1.0000 0.00410  0.77200  0.45350  Biso   1.000  H
  C23      1.0000 0.71430  0.05820  0.54870  Biso   1.000  C
  C24      1.0000 0.28570  0.94180  0.45130  Biso   1.000  C
  H27      1.0000 0.73700  0.03770  0.45300  Biso   1.000  H
  H28      1.0000 0.26300  0.96230  0.54700  Biso   1.000  H
  C25      1.0000 0.60460  0.00690  0.67060  Biso   1.000  C
  C26      1.0000 0.39540  0.99310  0.32940  Biso   1.000  C
  H29      1.0000 0.53780  0.94440  0.67260  Biso   1.000  H
  H30      1.0000 0.46220  0.05560  0.32740  Biso   1.000  H
  C27      1.0000 0.71660  0.14380  0.74050  Biso   1.000  C
  C28      1.0000 0.28340  0.85620  0.25950  Biso   1.000  C
  H31      1.0000 0.74390  0.19490  0.79860  Biso   1.000  H
  H32      1.0000 0.25610  0.80510  0.20140  Biso   1.000  H
  O3       1.0000 0.92600  0.26490  0.88240  Biso   1.000  O
  O4       1.0000 0.07400  0.73510  0.11760  Biso   1.000  O
  O5       1.0000 0.10620  0.05260  0.79660  Biso   1.000  O
  O6       1.0000 0.89380  0.94740  0.20340  Biso   1.000  O
  C29      1.0000 0.07540  0.17860  0.82710  Biso   1.000  C
  C30      1.0000 0.92460  0.82140  0.17290  Biso   1.000  C
  H33      1.0000 0.17530  0.21330  0.80650  Biso   1.000  H
  H34      1.0000 0.82470  0.78670  0.19350  Biso   1.000  H
