data_image0
_cell_length_a       5.2793
_cell_length_b       7.967
_cell_length_c       20.909
_cell_angle_alpha    90
_cell_angle_beta     90
_cell_angle_gamma    90

_symmetry_space_group_name_H-M    "P 1"
_symmetry_int_tables_number       1

loop_
  _symmetry_equiv_pos_as_xyz
  'x, y, z'

loop_
  _atom_site_label
  _atom_site_occupancy
  _atom_site_fract_x
  _atom_site_fract_y
  _atom_site_fract_z
  _atom_site_thermal_displace_type
  _atom_site_B_iso_or_equiv
  _atom_site_type_symbol
  Cu1      1.0000 0.99279  0.52906  0.02374  Biso   1.000  Cu
  Cu2      1.0000 0.50721  0.47094  0.52374  Biso   1.000  Cu
  Cu3      1.0000 0.00721  0.02906  0.47626  Biso   1.000  Cu
  Cu4      1.0000 0.49279  0.97094  0.97626  Biso   1.000  Cu
  Cl1      1.0000 0.74720  0.73450  0.06648  Biso   1.000  Cl
  Cl2      1.0000 0.75280  0.26550  0.56648  Biso   1.000  Cl
  Cl3      1.0000 0.25280  0.23450  0.43352  Biso   1.000  Cl
  Cl4      1.0000 0.24720  0.76550  0.93352  Biso   1.000  Cl
  O1       1.0000 0.21710  0.36680  0.98257  Biso   1.000  O
  O2       1.0000 0.28290  0.63320  0.48257  Biso   1.000  O
  O3       1.0000 0.78290  0.86680  0.51743  Biso   1.000  O
  O4       1.0000 0.71710  0.13320  0.01743  Biso   1.000  O
  O5       1.0000 0.25280  0.18720  0.90326  Biso   1.000  O
  O6       1.0000 0.24720  0.81280  0.40326  Biso   1.000  O
  O7       1.0000 0.74720  0.68720  0.59674  Biso   1.000  O
  O8       1.0000 0.75280  0.31280  0.09674  Biso   1.000  O
  O9       1.0000 0.43010  0.46150  0.71060  Biso   1.000  O
  O10      1.0000 0.06990  0.53850  0.21060  Biso   1.000  O
  O11      1.0000 0.56990  0.96150  0.78940  Biso   1.000  O
  O12      1.0000 0.93010  0.03850  0.28940  Biso   1.000  O
  O13      1.0000 0.81470  0.56280  0.71446  Biso   1.000  O
  O14      1.0000 0.68530  0.43720  0.21446  Biso   1.000  O
  O15      1.0000 0.18530  0.06280  0.78554  Biso   1.000  O
  O16      1.0000 0.31470  0.93720  0.28554  Biso   1.000  O
  H1       1.0000 0.78030  0.59630  0.67840  Biso   1.000  H
  H2       1.0000 0.71970  0.40370  0.17840  Biso   1.000  H
  H3       1.0000 0.21970  0.09630  0.82160  Biso   1.000  H
  H4       1.0000 0.28030  0.90370  0.32160  Biso   1.000  H
  O17      1.0000 0.23870  0.55290  0.09376  Biso   1.000  O
  O18      1.0000 0.26130  0.44710  0.59376  Biso   1.000  O
  O19      1.0000 0.76130  0.05290  0.40624  Biso   1.000  O
  O20      1.0000 0.73870  0.94710  0.90624  Biso   1.000  O
  N1       1.0000 0.76720  0.48360  0.95041  Biso   1.000  N
  N2       1.0000 0.73280  0.51640  0.45041  Biso   1.000  N
  N3       1.0000 0.23280  0.98360  0.54959  Biso   1.000  N
  N4       1.0000 0.26720  0.01640  0.04959  Biso   1.000  N
  H5       1.0000 0.61920  0.44240  0.96480  Biso   1.000  H
  H6       1.0000 0.88080  0.55760  0.46480  Biso   1.000  H
  H7       1.0000 0.38080  0.94240  0.53520  Biso   1.000  H
  H8       1.0000 0.11920  0.05760  0.03520  Biso   1.000  H
  H9       1.0000 0.73480  0.58040  0.92980  Biso   1.000  H
  H10      1.0000 0.76520  0.41960  0.42980  Biso   1.000  H
  H11      1.0000 0.26520  0.08040  0.57020  Biso   1.000  H
  H12      1.0000 0.23480  0.91960  0.07020  Biso   1.000  H
  C1       1.0000 0.13660  0.30170  0.93140  Biso   1.000  C
  C2       1.0000 0.36340  0.69830  0.43140  Biso   1.000  C
  C3       1.0000 0.86340  0.80170  0.56860  Biso   1.000  C
  C4       1.0000 0.63660  0.19830  0.06860  Biso   1.000  C
  C5       1.0000 0.88220  0.36180  0.90501  Biso   1.000  C
  C6       1.0000 0.61780  0.63820  0.40501  Biso   1.000  C
  C7       1.0000 0.11780  0.86180  0.59499  Biso   1.000  C
  C8       1.0000 0.38220  0.13820  0.09499  Biso   1.000  C
  H13      1.0000 0.76990  0.26400  0.90320  Biso   1.000  H
  H14      1.0000 0.73010  0.73600  0.40320  Biso   1.000  H
  H15      1.0000 0.23010  0.76400  0.59680  Biso   1.000  H
  H16      1.0000 0.26990  0.23600  0.09680  Biso   1.000  H
  C9       1.0000 0.89940  0.43340  0.83690  Biso   1.000  C
  C10      1.0000 0.60060  0.56660  0.33690  Biso   1.000  C
  C11      1.0000 0.10060  0.93340  0.66310  Biso   1.000  C
  C12      1.0000 0.39940  0.06660  0.16310  Biso   1.000  C
  H17      1.0000 0.98950  0.53950  0.83770  Biso   1.000  H
  H18      1.0000 0.51050  0.46050  0.33770  Biso   1.000  H
  H19      1.0000 0.01050  0.03950  0.66230  Biso   1.000  H
  H20      1.0000 0.48950  0.96050  0.16230  Biso   1.000  H
  H21      1.0000 0.99280  0.35640  0.80980  Biso   1.000  H
  H22      1.0000 0.50720  0.64360  0.30980  Biso   1.000  H
  H23      1.0000 0.00720  0.85640  0.69020  Biso   1.000  H
  H24      1.0000 0.49280  0.14360  0.19020  Biso   1.000  H
  C13      1.0000 0.63580  0.45960  0.81000  Biso   1.000  C
  C14      1.0000 0.86420  0.54040  0.31000  Biso   1.000  C
  C15      1.0000 0.36420  0.95960  0.69000  Biso   1.000  C
  C16      1.0000 0.13580  0.04040  0.19000  Biso   1.000  C
  H25      1.0000 0.53580  0.36060  0.81950  Biso   1.000  H
  H26      1.0000 0.96420  0.63940  0.31950  Biso   1.000  H
  H27      1.0000 0.46420  0.86060  0.68050  Biso   1.000  H
  H28      1.0000 0.03580  0.13940  0.18050  Biso   1.000  H
  H29      1.0000 0.55880  0.55320  0.83240  Biso   1.000  H
  H30      1.0000 0.94120  0.44680  0.33240  Biso   1.000  H
  H31      1.0000 0.44120  0.05320  0.66760  Biso   1.000  H
  H32      1.0000 0.05880  0.94680  0.16760  Biso   1.000  H
  C17      1.0000 0.61780  0.49310  0.73940  Biso   1.000  C
  C18      1.0000 0.88220  0.50690  0.23940  Biso   1.000  C
  C19      1.0000 0.38220  0.99310  0.76060  Biso   1.000  C
  C20      1.0000 0.11780  0.00690  0.26060  Biso   1.000  C
