data_image0
_cell_length_a       12.0685
_cell_length_b       8.3759
_cell_length_c       9.3659
_cell_angle_alpha    90
_cell_angle_beta     74.82
_cell_angle_gamma    90

_symmetry_space_group_name_H-M    "P 1"
_symmetry_int_tables_number       1

loop_
  _symmetry_equiv_pos_as_xyz
  'x, y, z'

loop_
  _atom_site_label
  _atom_site_occupancy
  _atom_site_fract_x
  _atom_site_fract_y
  _atom_site_fract_z
  _atom_site_thermal_displace_type
  _atom_site_B_iso_or_equiv
  _atom_site_type_symbol
  Cu1      1.0000 0.00000  0.00000  0.00000  Biso   1.000  Cu
  Cu2      1.0000 0.50000  0.50000  0.00000  Biso   1.000  Cu
  Cu3      1.0000 0.00000  0.00000  0.50000  Biso   1.000  Cu
  Cu4      1.0000 0.50000  0.50000  0.50000  Biso   1.000  Cu
  S1       1.0000 0.36512  0.07280  0.90962  Biso   1.000  S
  S2       1.0000 0.86512  0.57280  0.90962  Biso   1.000  S
  S3       1.0000 0.63488  0.07280  0.59038  Biso   1.000  S
  S4       1.0000 0.13488  0.57280  0.59038  Biso   1.000  S
  S5       1.0000 0.63488  0.92720  0.09038  Biso   1.000  S
  S6       1.0000 0.13488  0.42720  0.09038  Biso   1.000  S
  S7       1.0000 0.36512  0.92720  0.40962  Biso   1.000  S
  S8       1.0000 0.86512  0.42720  0.40962  Biso   1.000  S
  C1       1.0000 0.22478  0.00709  0.93101  Biso   1.000  C
  C2       1.0000 0.72478  0.50709  0.93101  Biso   1.000  C
  C3       1.0000 0.77522  0.00709  0.56899  Biso   1.000  C
  C4       1.0000 0.27522  0.50709  0.56899  Biso   1.000  C
  C5       1.0000 0.77522  0.99291  0.06899  Biso   1.000  C
  C6       1.0000 0.27522  0.49291  0.06899  Biso   1.000  C
  C7       1.0000 0.22478  0.99291  0.43101  Biso   1.000  C
  C8       1.0000 0.72478  0.49291  0.43101  Biso   1.000  C
  N1       1.0000 0.14160  0.10833  0.98949  Biso   1.000  N
  N2       1.0000 0.64160  0.60833  0.98949  Biso   1.000  N
  N3       1.0000 0.85840  0.10833  0.51051  Biso   1.000  N
  N4       1.0000 0.35840  0.60833  0.51051  Biso   1.000  N
  N5       1.0000 0.85840  0.89167  0.01051  Biso   1.000  N
  N6       1.0000 0.35840  0.39167  0.01051  Biso   1.000  N
  N7       1.0000 0.14160  0.89167  0.48949  Biso   1.000  N
  N8       1.0000 0.64160  0.39167  0.48949  Biso   1.000  N
  C9       1.0000 0.30899  0.25343  0.98309  Biso   1.000  C
  C10      1.0000 0.80899  0.75343  0.98309  Biso   1.000  C
  C11      1.0000 0.69101  0.25343  0.51691  Biso   1.000  C
  C12      1.0000 0.19101  0.75343  0.51691  Biso   1.000  C
  C13      1.0000 0.69101  0.74657  0.01691  Biso   1.000  C
  C14      1.0000 0.19101  0.24657  0.01691  Biso   1.000  C
  C15      1.0000 0.30899  0.74657  0.48309  Biso   1.000  C
  C16      1.0000 0.80899  0.24657  0.48309  Biso   1.000  C
  C17      1.0000 0.19914  0.84310  0.88668  Biso   1.000  C
  C18      1.0000 0.69914  0.34310  0.88668  Biso   1.000  C
  C19      1.0000 0.80086  0.84310  0.61332  Biso   1.000  C
  C20      1.0000 0.30086  0.34310  0.61332  Biso   1.000  C
  C21      1.0000 0.80086  0.15690  0.11332  Biso   1.000  C
  C22      1.0000 0.30086  0.65690  0.11332  Biso   1.000  C
  C23      1.0000 0.19914  0.15690  0.38668  Biso   1.000  C
  C24      1.0000 0.69914  0.65690  0.38668  Biso   1.000  C
  O1       1.0000 0.08558  0.81934  0.92255  Biso   1.000  O
  O2       1.0000 0.58558  0.31934  0.92255  Biso   1.000  O
  O3       1.0000 0.91442  0.81934  0.57745  Biso   1.000  O
  O4       1.0000 0.41442  0.31934  0.57745  Biso   1.000  O
  O5       1.0000 0.91442  0.18066  0.07745  Biso   1.000  O
  O6       1.0000 0.41442  0.68066  0.07745  Biso   1.000  O
  O7       1.0000 0.08558  0.18066  0.42255  Biso   1.000  O
  O8       1.0000 0.58558  0.68066  0.42255  Biso   1.000  O
  O9       1.0000 0.27018  0.74850  0.82856  Biso   1.000  O
  O10      1.0000 0.77018  0.24850  0.82856  Biso   1.000  O
  O11      1.0000 0.72982  0.74850  0.67144  Biso   1.000  O
  O12      1.0000 0.22982  0.24850  0.67144  Biso   1.000  O
  O13      1.0000 0.72982  0.25150  0.17144  Biso   1.000  O
  O14      1.0000 0.22982  0.75150  0.17144  Biso   1.000  O
  O15      1.0000 0.27018  0.25150  0.32856  Biso   1.000  O
  O16      1.0000 0.77018  0.75150  0.32856  Biso   1.000  O
  O17      1.0000 0.00000  0.18340  0.75000  Biso   1.000  O
  O18      1.0000 0.50000  0.68340  0.75000  Biso   1.000  O
  O19      1.0000 0.00000  0.81660  0.25000  Biso   1.000  O
  O20      1.0000 0.50000  0.31660  0.25000  Biso   1.000  O
