data_image0
_cell_length_a       12.287
_cell_length_b       16.181
_cell_length_c       15.631
_cell_angle_alpha    90
_cell_angle_beta     108.46
_cell_angle_gamma    90

_symmetry_space_group_name_H-M    "P 1"
_symmetry_int_tables_number       1

loop_
  _symmetry_equiv_pos_as_xyz
  'x, y, z'

loop_
  _atom_site_label
  _atom_site_occupancy
  _atom_site_fract_x
  _atom_site_fract_y
  _atom_site_fract_z
  _atom_site_thermal_displace_type
  _atom_site_B_iso_or_equiv
  _atom_site_type_symbol
  Cu1      1.0000 0.82016  0.07318  0.70560  Biso   1.000  Cu
  Cu2      1.0000 0.67984  0.57318  0.79440  Biso   1.000  Cu
  Cu3      1.0000 0.17984  0.92682  0.29440  Biso   1.000  Cu
  Cu4      1.0000 0.32016  0.42682  0.20560  Biso   1.000  Cu
  O1       1.0000 0.88550  0.10410  0.83120  Biso   1.000  O
  O2       1.0000 0.61450  0.60410  0.66880  Biso   1.000  O
  O3       1.0000 0.11450  0.89590  0.16880  Biso   1.000  O
  O4       1.0000 0.38550  0.39590  0.33120  Biso   1.000  O
  C1       1.0000 0.02060  0.13390  0.96820  Biso   1.000  C
  C2       1.0000 0.47940  0.63390  0.53180  Biso   1.000  C
  C3       1.0000 0.97940  0.86610  0.03180  Biso   1.000  C
  C4       1.0000 0.52060  0.36610  0.46820  Biso   1.000  C
  F1       1.0000 0.04310  0.08650  0.03160  Biso   1.000  F
  F2       1.0000 0.45690  0.58650  0.46840  Biso   1.000  F
  F3       1.0000 0.95690  0.91350  0.96840  Biso   1.000  F
  F4       1.0000 0.54310  0.41350  0.53160  Biso   1.000  F
  F5       1.0000 0.11340  0.17220  0.99290  Biso   1.000  F
  F6       1.0000 0.38660  0.67220  0.50710  Biso   1.000  F
  F7       1.0000 0.88660  0.82780  0.00710  Biso   1.000  F
  F8       1.0000 0.61340  0.32780  0.49290  Biso   1.000  F
  F9       1.0000 0.95250  0.18240  0.97880  Biso   1.000  F
  F10      1.0000 0.54750  0.68240  0.52120  Biso   1.000  F
  F11      1.0000 0.04750  0.81760  0.02120  Biso   1.000  F
  F12      1.0000 0.45250  0.31760  0.47880  Biso   1.000  F
  C5       1.0000 0.98790  0.09350  0.87680  Biso   1.000  C
  C6       1.0000 0.51210  0.59350  0.62320  Biso   1.000  C
  C7       1.0000 0.01210  0.90650  0.12320  Biso   1.000  C
  C8       1.0000 0.48790  0.40650  0.37680  Biso   1.000  C
  C9       1.0000 0.07300  0.05160  0.85370  Biso   1.000  C
  C10      1.0000 0.42700  0.55160  0.64630  Biso   1.000  C
  C11      1.0000 0.92700  0.94840  0.14630  Biso   1.000  C
  C12      1.0000 0.57300  0.44840  0.35370  Biso   1.000  C
  H1       1.0000 0.18000  0.03500  0.90200  Biso   1.000  H
  H2       1.0000 0.32000  0.53500  0.59800  Biso   1.000  H
  H3       1.0000 0.82000  0.96500  0.09800  Biso   1.000  H
  H4       1.0000 0.68000  0.46500  0.40200  Biso   1.000  H
  C13      1.0000 0.05050  0.01470  0.77060  Biso   1.000  C
  C14      1.0000 0.44950  0.51470  0.72940  Biso   1.000  C
  C15      1.0000 0.94950  0.98530  0.22940  Biso   1.000  C
  C16      1.0000 0.55050  0.48530  0.27060  Biso   1.000  C
  F13      1.0000 0.16620  0.99820  0.68270  Biso   1.000  F
  F14      1.0000 0.33380  0.49820  0.81730  Biso   1.000  F
  F15      1.0000 0.83380  0.00180  0.31730  Biso   1.000  F
  F16      1.0000 0.66620  0.50180  0.18270  Biso   1.000  F
  F17      1.0000 0.24330  0.97430  0.80470  Biso   1.000  F
  F18      1.0000 0.25670  0.47430  0.69530  Biso   1.000  F
  F19      1.0000 0.75670  0.02570  0.19530  Biso   1.000  F
  F20      1.0000 0.74330  0.52570  0.30470  Biso   1.000  F
  F21      1.0000 0.12390  0.89810  0.72460  Biso   1.000  F
  F22      1.0000 0.37610  0.39810  0.77540  Biso   1.000  F
  F23      1.0000 0.87610  0.10190  0.27540  Biso   1.000  F
  F24      1.0000 0.62390  0.60190  0.22460  Biso   1.000  F
  O5       1.0000 0.95930  0.01560  0.70490  Biso   1.000  O
  O6       1.0000 0.54070  0.51560  0.79510  Biso   1.000  O
  O7       1.0000 0.04070  0.98440  0.29510  Biso   1.000  O
  O8       1.0000 0.45930  0.48440  0.20490  Biso   1.000  O
  O9       1.0000 0.68480  0.13460  0.71090  Biso   1.000  O
  O10      1.0000 0.81520  0.63460  0.78910  Biso   1.000  O
  O11      1.0000 0.31520  0.86540  0.28910  Biso   1.000  O
  O12      1.0000 0.18480  0.36540  0.21090  Biso   1.000  O
  C17      1.0000 0.14480  0.96800  0.75110  Biso   1.000  C
  C18      1.0000 0.35520  0.46800  0.74890  Biso   1.000  C
  C19      1.0000 0.85520  0.03200  0.24890  Biso   1.000  C
  C20      1.0000 0.64480  0.53200  0.25110  Biso   1.000  C
  C21      1.0000 0.50100  0.18930  0.67220  Biso   1.000  C
  C22      1.0000 0.99900  0.68930  0.82780  Biso   1.000  C
  C23      1.0000 0.49900  0.81070  0.32780  Biso   1.000  C
  C24      1.0000 0.00100  0.31070  0.17220  Biso   1.000  C
  F25      1.0000 0.47820  0.14880  0.73630  Biso   1.000  F
  F26      1.0000 0.02180  0.64880  0.76370  Biso   1.000  F
  F27      1.0000 0.52180  0.85120  0.26370  Biso   1.000  F
  F28      1.0000 0.97820  0.35120  0.23630  Biso   1.000  F
  F29      1.0000 0.53070  0.26230  0.69890  Biso   1.000  F
  F30      1.0000 0.96930  0.76230  0.80110  Biso   1.000  F
  F31      1.0000 0.46930  0.73770  0.30110  Biso   1.000  F
  F32      1.0000 0.03070  0.23770  0.19890  Biso   1.000  F
  F33      1.0000 0.40380  0.19570  0.60680  Biso   1.000  F
  F34      1.0000 0.09620  0.69570  0.89320  Biso   1.000  F
  F35      1.0000 0.59620  0.80430  0.39320  Biso   1.000  F
  F36      1.0000 0.90380  0.30430  0.10680  Biso   1.000  F
  C25      1.0000 0.59580  0.14490  0.64680  Biso   1.000  C
  C26      1.0000 0.90420  0.64490  0.85320  Biso   1.000  C
  C27      1.0000 0.40420  0.85510  0.35320  Biso   1.000  C
  C28      1.0000 0.09580  0.35510  0.14680  Biso   1.000  C
  C29      1.0000 0.57670  0.12300  0.55780  Biso   1.000  C
  C30      1.0000 0.92330  0.62300  0.94220  Biso   1.000  C
  C31      1.0000 0.42330  0.87700  0.44220  Biso   1.000  C
  C32      1.0000 0.07670  0.37700  0.05780  Biso   1.000  C
  H5       1.0000 0.51700  0.11700  0.52300  Biso   1.000  H
  H6       1.0000 0.98300  0.61700  0.97700  Biso   1.000  H
  H7       1.0000 0.48300  0.88300  0.47700  Biso   1.000  H
  H8       1.0000 0.01700  0.38300  0.02300  Biso   1.000  H
  C33      1.0000 0.65750  0.08390  0.52830  Biso   1.000  C
  C34      1.0000 0.84250  0.58390  0.97170  Biso   1.000  C
  C35      1.0000 0.34250  0.91610  0.47170  Biso   1.000  C
  C36      1.0000 0.15750  0.41610  0.02830  Biso   1.000  C
  C37      1.0000 0.62910  0.06680  0.42760  Biso   1.000  C
  C38      1.0000 0.87090  0.56680  0.07240  Biso   1.000  C
  C39      1.0000 0.37090  0.93320  0.57240  Biso   1.000  C
  C40      1.0000 0.12910  0.43320  0.92760  Biso   1.000  C
  F37      1.0000 0.67410  0.11850  0.38850  Biso   1.000  F
  F38      1.0000 0.82590  0.61850  0.11150  Biso   1.000  F
  F39      1.0000 0.32590  0.88150  0.61150  Biso   1.000  F
  F40      1.0000 0.17410  0.38150  0.88850  Biso   1.000  F
  F41      1.0000 0.66700  0.99200  0.41490  Biso   1.000  F
  F42      1.0000 0.83300  0.49200  0.08510  Biso   1.000  F
  F43      1.0000 0.33300  0.00800  0.58510  Biso   1.000  F
  F44      1.0000 0.16700  0.50800  0.91490  Biso   1.000  F
  F45      1.0000 0.51690  0.06070  0.38510  Biso   1.000  F
  F46      1.0000 0.98310  0.56070  0.11490  Biso   1.000  F
  F47      1.0000 0.48310  0.93930  0.61490  Biso   1.000  F
  F48      1.0000 0.01690  0.43930  0.88510  Biso   1.000  F
  O13      1.0000 0.75620  0.06180  0.57460  Biso   1.000  O
  O14      1.0000 0.74380  0.56180  0.92540  Biso   1.000  O
  O15      1.0000 0.24380  0.93820  0.42540  Biso   1.000  O
  O16      1.0000 0.25620  0.43820  0.07460  Biso   1.000  O
  O17      1.0000 0.87080  0.44250  0.53410  Biso   1.000  O
  O18      1.0000 0.62920  0.94250  0.96590  Biso   1.000  O
  O19      1.0000 0.12920  0.55750  0.46590  Biso   1.000  O
  O20      1.0000 0.37080  0.05750  0.03410  Biso   1.000  O
  N1       1.0000 0.90920  0.36950  0.55980  Biso   1.000  N
  N2       1.0000 0.59080  0.86950  0.94020  Biso   1.000  N
  N3       1.0000 0.09080  0.63050  0.44020  Biso   1.000  N
  N4       1.0000 0.40920  0.13050  0.05980  Biso   1.000  N
  C41      1.0000 0.96050  0.31550  0.50480  Biso   1.000  C
  C42      1.0000 0.53950  0.81550  0.99520  Biso   1.000  C
  C43      1.0000 0.03950  0.68450  0.49520  Biso   1.000  C
  C44      1.0000 0.46050  0.18450  0.00480  Biso   1.000  C
  C45      1.0000 0.85730  0.29140  0.41970  Biso   1.000  C
  C46      1.0000 0.64270  0.79140  0.08030  Biso   1.000  C
  C47      1.0000 0.14270  0.70860  0.58030  Biso   1.000  C
  C48      1.0000 0.35730  0.20860  0.91970  Biso   1.000  C
  H9       1.0000 0.82400  0.34500  0.39200  Biso   1.000  H
  H10      1.0000 0.67600  0.84500  0.10800  Biso   1.000  H
  H11      1.0000 0.17600  0.65500  0.60800  Biso   1.000  H
  H12      1.0000 0.32400  0.15500  0.89200  Biso   1.000  H
  H13      1.0000 0.88600  0.24600  0.38400  Biso   1.000  H
  H14      1.0000 0.61400  0.74600  0.11600  Biso   1.000  H
  H15      1.0000 0.11400  0.75400  0.61600  Biso   1.000  H
  H16      1.0000 0.38600  0.25400  0.88400  Biso   1.000  H
  H17      1.0000 0.81000  0.24300  0.46000  Biso   1.000  H
  H18      1.0000 0.69000  0.74300  0.04000  Biso   1.000  H
  H19      1.0000 0.19000  0.75700  0.54000  Biso   1.000  H
  H20      1.0000 0.31000  0.25700  0.96000  Biso   1.000  H
  C49      1.0000 0.05070  0.36620  0.47860  Biso   1.000  C
  C50      1.0000 0.44930  0.86620  0.02140  Biso   1.000  C
  C51      1.0000 0.94930  0.63380  0.52140  Biso   1.000  C
  C52      1.0000 0.55070  0.13380  0.97860  Biso   1.000  C
  H21      1.0000 0.13800  0.36700  0.54100  Biso   1.000  H
  H22      1.0000 0.36200  0.86700  0.95900  Biso   1.000  H
  H23      1.0000 0.86200  0.63300  0.45900  Biso   1.000  H
  H24      1.0000 0.63800  0.13300  0.04100  Biso   1.000  H
  H25      1.0000 0.08600  0.34000  0.45100  Biso   1.000  H
  H26      1.0000 0.41400  0.84000  0.04900  Biso   1.000  H
  H27      1.0000 0.91400  0.66000  0.54900  Biso   1.000  H
  H28      1.0000 0.58600  0.16000  0.95100  Biso   1.000  H
  C53      1.0000 0.00620  0.24230  0.57100  Biso   1.000  C
  C54      1.0000 0.49380  0.74230  0.92900  Biso   1.000  C
  C55      1.0000 0.99380  0.75770  0.42900  Biso   1.000  C
  C56      1.0000 0.50620  0.25770  0.07100  Biso   1.000  C
  C57      1.0000 0.99110  0.15750  0.53010  Biso   1.000  C
  C58      1.0000 0.50890  0.65750  0.96990  Biso   1.000  C
  C59      1.0000 0.00890  0.84250  0.46990  Biso   1.000  C
  C60      1.0000 0.49110  0.34250  0.03010  Biso   1.000  C
  H29      1.0000 0.04400  0.11000  0.57700  Biso   1.000  H
  H30      1.0000 0.45600  0.61000  0.92300  Biso   1.000  H
  H31      1.0000 0.95600  0.89000  0.42300  Biso   1.000  H
  H32      1.0000 0.54400  0.39000  0.07700  Biso   1.000  H
  H33      1.0000 0.90900  0.16600  0.49400  Biso   1.000  H
  H34      1.0000 0.59100  0.66600  0.00600  Biso   1.000  H
  H35      1.0000 0.09100  0.83400  0.50600  Biso   1.000  H
  H36      1.0000 0.40900  0.33400  0.99400  Biso   1.000  H
  H37      1.0000 0.03100  0.16600  0.48900  Biso   1.000  H
  H38      1.0000 0.46900  0.66600  0.01100  Biso   1.000  H
  H39      1.0000 0.96900  0.83400  0.51100  Biso   1.000  H
  H40      1.0000 0.53100  0.33400  0.98900  Biso   1.000  H
  C61      1.0000 0.12800  0.25350  0.63270  Biso   1.000  C
  C62      1.0000 0.37200  0.75350  0.86730  Biso   1.000  C
  C63      1.0000 0.87200  0.74650  0.36730  Biso   1.000  C
  C64      1.0000 0.62800  0.24650  0.13270  Biso   1.000  C
  H41      1.0000 0.14500  0.19900  0.66100  Biso   1.000  H
  H42      1.0000 0.35500  0.69900  0.83900  Biso   1.000  H
  H43      1.0000 0.85500  0.80100  0.33900  Biso   1.000  H
  H44      1.0000 0.64500  0.30100  0.16100  Biso   1.000  H
  H45      1.0000 0.18400  0.24200  0.60500  Biso   1.000  H
  H46      1.0000 0.31600  0.74200  0.89500  Biso   1.000  H
  H47      1.0000 0.81600  0.75800  0.39500  Biso   1.000  H
  H48      1.0000 0.68400  0.25800  0.10500  Biso   1.000  H
  H49      1.0000 0.14300  0.29500  0.65800  Biso   1.000  H
  H50      1.0000 0.35700  0.79500  0.84200  Biso   1.000  H
  H51      1.0000 0.85700  0.70500  0.34200  Biso   1.000  H
  H52      1.0000 0.64300  0.20500  0.15800  Biso   1.000  H
  N5       1.0000 0.93360  0.25240  0.63200  Biso   1.000  N
  N6       1.0000 0.56640  0.75240  0.86800  Biso   1.000  N
  N7       1.0000 0.06640  0.74760  0.36800  Biso   1.000  N
  N8       1.0000 0.43360  0.24760  0.13200  Biso   1.000  N
  O21      1.0000 0.93240  0.19700  0.69090  Biso   1.000  O
  O22      1.0000 0.56760  0.69700  0.80910  Biso   1.000  O
  O23      1.0000 0.06760  0.80300  0.30910  Biso   1.000  O
  O24      1.0000 0.43240  0.30300  0.19090  Biso   1.000  O
  C65      1.0000 0.89120  0.32790  0.62890  Biso   1.000  C
  C66      1.0000 0.60880  0.82790  0.87110  Biso   1.000  C
  C67      1.0000 0.10880  0.67210  0.37110  Biso   1.000  C
  C68      1.0000 0.39120  0.17210  0.12890  Biso   1.000  C
  C69      1.0000 0.83610  0.36080  0.69050  Biso   1.000  C
  C70      1.0000 0.66390  0.86080  0.80950  Biso   1.000  C
  C71      1.0000 0.16390  0.63920  0.30950  Biso   1.000  C
  C72      1.0000 0.33610  0.13920  0.19050  Biso   1.000  C
  C73      1.0000 0.79880  0.44170  0.69600  Biso   1.000  C
  C74      1.0000 0.70120  0.94170  0.80400  Biso   1.000  C
  C75      1.0000 0.20120  0.55830  0.30400  Biso   1.000  C
  C76      1.0000 0.29880  0.05830  0.19600  Biso   1.000  C
  H53      1.0000 0.79900  0.48800  0.66300  Biso   1.000  H
  H54      1.0000 0.70100  0.98800  0.83700  Biso   1.000  H
  H55      1.0000 0.20100  0.51200  0.33700  Biso   1.000  H
  H56      1.0000 0.29900  0.01200  0.16300  Biso   1.000  H
  N9       1.0000 0.75560  0.44940  0.76230  Biso   1.000  N
  N10      1.0000 0.74440  0.94940  0.73770  Biso   1.000  N
  N11      1.0000 0.24440  0.55060  0.23770  Biso   1.000  N
  N12      1.0000 0.25560  0.05060  0.26230  Biso   1.000  N
  N13      1.0000 0.76430  0.37430  0.80080  Biso   1.000  N
  N14      1.0000 0.73570  0.87430  0.69920  Biso   1.000  N
  N15      1.0000 0.23570  0.62570  0.19920  Biso   1.000  N
  N16      1.0000 0.26430  0.12570  0.30080  Biso   1.000  N
  C77      1.0000 0.72330  0.35940  0.87700  Biso   1.000  C
  C78      1.0000 0.77670  0.85940  0.62300  Biso   1.000  C
  C79      1.0000 0.27670  0.64060  0.12300  Biso   1.000  C
  C80      1.0000 0.22330  0.14060  0.37700  Biso   1.000  C
  H57      1.0000 0.73500  0.30000  0.89500  Biso   1.000  H
  H58      1.0000 0.76500  0.80000  0.60500  Biso   1.000  H
  H59      1.0000 0.26500  0.70000  0.10500  Biso   1.000  H
  H60      1.0000 0.23500  0.20000  0.39500  Biso   1.000  H
  C81      1.0000 0.81220  0.31960  0.75920  Biso   1.000  C
  C82      1.0000 0.68780  0.81960  0.74080  Biso   1.000  C
  C83      1.0000 0.18780  0.68040  0.24080  Biso   1.000  C
  C84      1.0000 0.31220  0.18040  0.25920  Biso   1.000  C
  H61      1.0000 0.82300  0.26400  0.77700  Biso   1.000  H
  H62      1.0000 0.67700  0.76400  0.72300  Biso   1.000  H
  H63      1.0000 0.17700  0.73600  0.22300  Biso   1.000  H
  H64      1.0000 0.32300  0.23600  0.27700  Biso   1.000  H
  H65      1.0000 0.00610  0.41650  0.45090  Biso   1.000  H
  H66      1.0000 0.49390  0.91650  0.04910  Biso   1.000  H
  H67      1.0000 0.99390  0.58350  0.54910  Biso   1.000  H
  H68      1.0000 0.50610  0.08350  0.95090  Biso   1.000  H
  H69      1.0000 0.76970  0.39410  0.92860  Biso   1.000  H
  H70      1.0000 0.73030  0.89410  0.57140  Biso   1.000  H
  H71      1.0000 0.23030  0.60590  0.07140  Biso   1.000  H
  H72      1.0000 0.26970  0.10590  0.42860  Biso   1.000  H
  H73      1.0000 0.63990  0.37340  0.86040  Biso   1.000  H
  H74      1.0000 0.86010  0.87340  0.63960  Biso   1.000  H
  H75      1.0000 0.36010  0.62660  0.13960  Biso   1.000  H
  H76      1.0000 0.13990  0.12660  0.36040  Biso   1.000  H
