data_image0
_cell_length_a       12.2761
_cell_length_b       15.8132
_cell_length_c       15.835
_cell_angle_alpha    84.871
_cell_angle_beta     74.034
_cell_angle_gamma    87.117

_symmetry_space_group_name_H-M    "P 1"
_symmetry_int_tables_number       1

loop_
  _symmetry_equiv_pos_as_xyz
  'x, y, z'

loop_
  _atom_site_label
  _atom_site_occupancy
  _atom_site_fract_x
  _atom_site_fract_y
  _atom_site_fract_z
  _atom_site_thermal_displace_type
  _atom_site_B_iso_or_equiv
  _atom_site_type_symbol
  Cu1      1.0000 0.34294  0.41008  0.30433  Biso   1.000  Cu
  Cu2      1.0000 0.65706  0.58992  0.69567  Biso   1.000  Cu
  O1       1.0000 0.21660  0.35072  0.28382  Biso   1.000  O
  O2       1.0000 0.78340  0.64928  0.71618  Biso   1.000  O
  C1       1.0000 0.03360  0.30970  0.29760  Biso   1.000  C
  C2       1.0000 0.96640  0.69030  0.70240  Biso   1.000  C
  F1       1.0000 0.05490  0.22150  0.30720  Biso   1.000  F
  F2       1.0000 0.94510  0.77850  0.69280  Biso   1.000  F
  F3       1.0000 0.05150  0.32540  0.21670  Biso   1.000  F
  F4       1.0000 0.94850  0.67460  0.78330  Biso   1.000  F
  F5       1.0000 0.92890  0.32120  0.33810  Biso   1.000  F
  F6       1.0000 0.07110  0.67880  0.66190  Biso   1.000  F
  C3       1.0000 0.11990  0.34690  0.33600  Biso   1.000  C
  C4       1.0000 0.88010  0.65310  0.66400  Biso   1.000  C
  C5       1.0000 0.08540  0.37090  0.42070  Biso   1.000  C
  C6       1.0000 0.91460  0.62910  0.57930  Biso   1.000  C
  H1       1.0000 0.00940  0.36660  0.45170  Biso   1.000  H
  H2       1.0000 0.99060  0.63340  0.54830  Biso   1.000  H
  C7       1.0000 0.16010  0.40130  0.46130  Biso   1.000  C
  C8       1.0000 0.83990  0.59870  0.53870  Biso   1.000  C
  C9       1.0000 0.11390  0.42240  0.55660  Biso   1.000  C
  C10      1.0000 0.88610  0.57760  0.44340  Biso   1.000  C
  F7       1.0000 0.13470  0.35580  0.60920  Biso   1.000  F
  F8       1.0000 0.86530  0.64420  0.39080  Biso   1.000  F
  F9       1.0000 0.00360  0.43310  0.57850  Biso   1.000  F
  F10      1.0000 0.99640  0.56690  0.42150  Biso   1.000  F
  F11      1.0000 0.14220  0.48840  0.57080  Biso   1.000  F
  F12      1.0000 0.85780  0.51160  0.42920  Biso   1.000  F
  O3       1.0000 0.26345  0.41388  0.43007  Biso   1.000  O
  O4       1.0000 0.73655  0.58612  0.56993  Biso   1.000  O
  O5       1.0000 0.42000  0.39017  0.18221  Biso   1.000  O
  O6       1.0000 0.58000  0.60983  0.81779  Biso   1.000  O
  C11      1.0000 0.56270  0.37600  0.05230  Biso   1.000  C
  C12      1.0000 0.43730  0.62400  0.94770  Biso   1.000  C
  F13      1.0000 0.62900  0.42800  0.99780  Biso   1.000  F
  F14      1.0000 0.37100  0.57200  0.00220  Biso   1.000  F
  F15      1.0000 0.62000  0.30530  0.05450  Biso   1.000  F
  F16      1.0000 0.38000  0.69470  0.94550  Biso   1.000  F
  F17      1.0000 0.49160  0.36500  0.02040  Biso   1.000  F
  F18      1.0000 0.50840  0.63500  0.97960  Biso   1.000  F
  C13      1.0000 0.52090  0.40640  0.14540  Biso   1.000  C
  C14      1.0000 0.47910  0.59360  0.85460  Biso   1.000  C
  C15      1.0000 0.59570  0.44480  0.17960  Biso   1.000  C
  C16      1.0000 0.40430  0.55520  0.82040  Biso   1.000  C
  H3       1.0000 0.66900  0.45370  0.14420  Biso   1.000  H
  H4       1.0000 0.33100  0.54630  0.85580  Biso   1.000  H
  C17      1.0000 0.56710  0.47050  0.26320  Biso   1.000  C
  C18      1.0000 0.43290  0.52950  0.73680  Biso   1.000  C
  C19      1.0000 0.65590  0.51340  0.29560  Biso   1.000  C
  C20      1.0000 0.34410  0.48660  0.70440  Biso   1.000  C
  F19      1.0000 0.64260  0.49980  0.38170  Biso   1.000  F
  F20      1.0000 0.35740  0.50020  0.61830  Biso   1.000  F
  F21      1.0000 0.76030  0.49930  0.25380  Biso   1.000  F
  F22      1.0000 0.23970  0.50070  0.74620  Biso   1.000  F
  F23      1.0000 0.64440  0.59750  0.28090  Biso   1.000  F
  F24      1.0000 0.35560  0.40250  0.71910  Biso   1.000  F
  O7       1.0000 0.47430  0.46510  0.31941  Biso   1.000  O
  O8       1.0000 0.52570  0.53490  0.68059  Biso   1.000  O
  Cu3      1.0000 0.19668  0.92704  0.20439  Biso   1.000  Cu
  Cu4      1.0000 0.80332  0.07296  0.79561  Biso   1.000  Cu
  O9       1.0000 0.13950  0.88649  0.32678  Biso   1.000  O
  O10      1.0000 0.86050  0.11351  0.67322  Biso   1.000  O
  C21      1.0000 0.02020  0.86030  0.46690  Biso   1.000  C
  C22      1.0000 0.97980  0.13970  0.53310  Biso   1.000  C
  F25      1.0000 0.10130  0.86800  0.50080  Biso   1.000  F
  F26      1.0000 0.89870  0.13200  0.49920  Biso   1.000  F
  F27      1.0000 0.93950  0.89640  0.52300  Biso   1.000  F
  F28      1.0000 0.06050  0.10360  0.47700  Biso   1.000  F
  F29      1.0000 0.00400  0.78400  0.46300  Biso   1.000  F
  F30      1.0000 0.99600  0.21600  0.53700  Biso   1.000  F
  C23      1.0000 0.04320  0.90440  0.37400  Biso   1.000  C
  C24      1.0000 0.95680  0.09560  0.62600  Biso   1.000  C
  C25      1.0000 0.96040  0.95650  0.35230  Biso   1.000  C
  C26      1.0000 0.03960  0.04350  0.64770  Biso   1.000  C
  H5       1.0000 0.89240  0.96470  0.39490  Biso   1.000  H
  H6       1.0000 0.10760  0.03530  0.60510  Biso   1.000  H
  C27      1.0000 0.97510  0.99710  0.26910  Biso   1.000  C
  C28      1.0000 0.02490  0.00290  0.73090  Biso   1.000  C
  C29      1.0000 0.87750  0.05320  0.25220  Biso   1.000  C
  C30      1.0000 0.12250  0.94680  0.74780  Biso   1.000  C
  F31      1.0000 0.84100  0.01610  0.19250  Biso   1.000  F
  F32      1.0000 0.15900  0.98390  0.80750  Biso   1.000  F
  F33      1.0000 0.90990  0.12140  0.21310  Biso   1.000  F
  F34      1.0000 0.09010  0.87860  0.78690  Biso   1.000  F
  F35      1.0000 0.79280  0.06070  0.31370  Biso   1.000  F
  F36      1.0000 0.20720  0.93930  0.68630  Biso   1.000  F
  O11      1.0000 0.05877  0.99352  0.20388  Biso   1.000  O
  O12      1.0000 0.94123  0.00648  0.79612  Biso   1.000  O
  O13      1.0000 0.33040  0.85391  0.20497  Biso   1.000  O
  O14      1.0000 0.66960  0.14609  0.79503  Biso   1.000  O
  C31      1.0000 0.49960  0.77610  0.15740  Biso   1.000  C
  C32      1.0000 0.50040  0.22390  0.84260  Biso   1.000  C
  F37      1.0000 0.46250  0.69440  0.16030  Biso   1.000  F
  F38      1.0000 0.53750  0.30560  0.83970  Biso   1.000  F
  F39      1.0000 0.59100  0.77910  0.09600  Biso   1.000  F
  F40      1.0000 0.40900  0.22090  0.90400  Biso   1.000  F
  F41      1.0000 0.51180  0.77660  0.23560  Biso   1.000  F
  F42      1.0000 0.48820  0.22340  0.76440  Biso   1.000  F
  C33      1.0000 0.40620  0.83740  0.13820  Biso   1.000  C
  C34      1.0000 0.59380  0.16260  0.86180  Biso   1.000  C
  C35      1.0000 0.41510  0.86580  0.05210  Biso   1.000  C
  C36      1.0000 0.58490  0.13420  0.94790  Biso   1.000  C
  H7       1.0000 0.47660  0.84700  0.00830  Biso   1.000  H
  H8       1.0000 0.52340  0.15300  0.99170  Biso   1.000  H
  C37      1.0000 0.33680  0.92090  0.02820  Biso   1.000  C
  C38      1.0000 0.66320  0.07910  0.97180  Biso   1.000  C
  C39      1.0000 0.35530  0.94790  0.93050  Biso   1.000  C
  C40      1.0000 0.64470  0.05210  0.06950  Biso   1.000  C
  F43      1.0000 0.45990  0.96740  0.89360  Biso   1.000  F
  F44      1.0000 0.54010  0.03260  0.10640  Biso   1.000  F
  F45      1.0000 0.32700  0.89000  0.88910  Biso   1.000  F
  F46      1.0000 0.67300  0.11000  0.11090  Biso   1.000  F
  F47      1.0000 0.31400  0.00550  0.92120  Biso   1.000  F
  F48      1.0000 0.68600  0.99450  0.07880  Biso   1.000  F
  O15      1.0000 0.24960  0.95204  0.07748  Biso   1.000  O
  O16      1.0000 0.75040  0.04796  0.92252  Biso   1.000  O
  O17      1.0000 0.07950  0.80658  0.18723  Biso   1.000  O
  O18      1.0000 0.92050  0.19342  0.81277  Biso   1.000  O
  N1       1.0000 0.06070  0.74886  0.14103  Biso   1.000  N
  N2       1.0000 0.93930  0.25114  0.85897  Biso   1.000  N
  C41      1.0000 0.99710  0.68360  0.03700  Biso   1.000  C
  C42      1.0000 0.00290  0.31640  0.96300  Biso   1.000  C
  C43      1.0000 0.08330  0.69570  0.94630  Biso   1.000  C
  C44      1.0000 0.91670  0.30430  0.05370  Biso   1.000  C
  H9       1.0000 0.05070  0.73230  0.90750  Biso   1.000  H
  H10      1.0000 0.94930  0.26770  0.09250  Biso   1.000  H
  H11      1.0000 0.15010  0.72080  0.95230  Biso   1.000  H
  H12      1.0000 0.84990  0.27920  0.04770  Biso   1.000  H
  H13      1.0000 0.10310  0.64160  0.92240  Biso   1.000  H
  H14      1.0000 0.89690  0.35840  0.07760  Biso   1.000  H
  C45      1.0000 0.89400  0.64260  0.02730  Biso   1.000  C
  C46      1.0000 0.10600  0.35740  0.97270  Biso   1.000  C
  H15      1.0000 0.85770  0.68030  0.99180  Biso   1.000  H
  H16      1.0000 0.14230  0.31970  0.00820  Biso   1.000  H
  H17      1.0000 0.91610  0.59050  0.99940  Biso   1.000  H
  H18      1.0000 0.08390  0.40950  0.00060  Biso   1.000  H
  H19      1.0000 0.84230  0.63070  0.08440  Biso   1.000  H
  H20      1.0000 0.15770  0.36930  0.91560  Biso   1.000  H
  C47      1.0000 0.97620  0.76410  0.08780  Biso   1.000  C
  C48      1.0000 0.02380  0.23590  0.91220  Biso   1.000  C
  C49      1.0000 0.86120  0.76720  0.15620  Biso   1.000  C
  C50      1.0000 0.13880  0.23280  0.84380  Biso   1.000  C
  H21      1.0000 0.80240  0.77680  0.12680  Biso   1.000  H
  H22      1.0000 0.19760  0.22320  0.87320  Biso   1.000  H
  H23      1.0000 0.84960  0.71410  0.19160  Biso   1.000  H
  H24      1.0000 0.15040  0.28590  0.80840  Biso   1.000  H
  H25      1.0000 0.85930  0.81240  0.19320  Biso   1.000  H
  H26      1.0000 0.14070  0.18760  0.80680  Biso   1.000  H
  C51      1.0000 0.99790  0.84820  0.03390  Biso   1.000  C
  C52      1.0000 0.00210  0.15180  0.96610  Biso   1.000  C
  H27      1.0000 0.94390  0.85780  0.00000  Biso   1.000  H
  H28      1.0000 0.05610  0.14220  0.00000  Biso   1.000  H
  H29      1.0000 0.99040  0.89290  0.07250  Biso   1.000  H
  H30      1.0000 0.00960  0.10710  0.92750  Biso   1.000  H
  H31      1.0000 0.07310  0.84730  0.99500  Biso   1.000  H
  H32      1.0000 0.92690  0.15270  0.00500  Biso   1.000  H
  N3       1.0000 0.05550  0.62630  0.09200  Biso   1.000  N
  N4       1.0000 0.94450  0.37370  0.90800  Biso   1.000  N
  O19      1.0000 0.07400  0.54820  0.08020  Biso   1.000  O
  O20      1.0000 0.92600  0.45180  0.91980  Biso   1.000  O
  C53      1.0000 0.09530  0.66860  0.14600  Biso   1.000  C
  C54      1.0000 0.90470  0.33140  0.85400  Biso   1.000  C
  C55      1.0000 0.16160  0.63220  0.20280  Biso   1.000  C
  C56      1.0000 0.83840  0.36780  0.79720  Biso   1.000  C
  C57      1.0000 0.19120  0.67110  0.26730  Biso   1.000  C
  C58      1.0000 0.80880  0.32890  0.73270  Biso   1.000  C
  H33      1.0000 0.17420  0.72700  0.28120  Biso   1.000  H
  H34      1.0000 0.82580  0.27300  0.71880  Biso   1.000  H
  N5       1.0000 0.25870  0.53820  0.27098  Biso   1.000  N
  N6       1.0000 0.74130  0.46180  0.72902  Biso   1.000  N
  N7       1.0000 0.24840  0.61420  0.30611  Biso   1.000  N
  N8       1.0000 0.75160  0.38580  0.69389  Biso   1.000  N
  C59      1.0000 0.29760  0.62670  0.37780  Biso   1.000  C
  C60      1.0000 0.70240  0.37330  0.62220  Biso   1.000  C
  H35      1.0000 0.33430  0.57480  0.39310  Biso   1.000  H
  H36      1.0000 0.66570  0.42520  0.60690  Biso   1.000  H
  H37      1.0000 0.35210  0.67070  0.35950  Biso   1.000  H
  H38      1.0000 0.64790  0.32930  0.64050  Biso   1.000  H
  H39      1.0000 0.23880  0.64270  0.42820  Biso   1.000  H
  H40      1.0000 0.76120  0.35730  0.57180  Biso   1.000  H
  C61      1.0000 0.20600  0.54990  0.20820  Biso   1.000  C
  C62      1.0000 0.79400  0.45010  0.79180  Biso   1.000  C
  H41      1.0000 0.19960  0.50820  0.17220  Biso   1.000  H
  H42      1.0000 0.80040  0.49180  0.82780  Biso   1.000  H
  O21      1.0000 0.45470  0.27938  0.33308  Biso   1.000  O
  O22      1.0000 0.54530  0.72062  0.66692  Biso   1.000  O
  N9       1.0000 0.43370  0.22233  0.39788  Biso   1.000  N
  N10      1.0000 0.56630  0.77767  0.60212  Biso   1.000  N
  C63      1.0000 0.48570  0.22110  0.47340  Biso   1.000  C
  C64      1.0000 0.51430  0.77890  0.52660  Biso   1.000  C
  C65      1.0000 0.60850  0.19090  0.43710  Biso   1.000  C
  C66      1.0000 0.39150  0.80910  0.56290  Biso   1.000  C
  H43      1.0000 0.64660  0.18870  0.48280  Biso   1.000  H
  H44      1.0000 0.35340  0.81130  0.51720  Biso   1.000  H
  H45      1.0000 0.61010  0.13530  0.41690  Biso   1.000  H
  H46      1.0000 0.38990  0.86470  0.58310  Biso   1.000  H
  H47      1.0000 0.64610  0.22960  0.38890  Biso   1.000  H
  H48      1.0000 0.35390  0.77040  0.61110  Biso   1.000  H
  C67      1.0000 0.48160  0.31130  0.50270  Biso   1.000  C
  C68      1.0000 0.51840  0.68870  0.49730  Biso   1.000  C
  H49      1.0000 0.51480  0.31080  0.55100  Biso   1.000  H
  H50      1.0000 0.48520  0.68920  0.44900  Biso   1.000  H
  H51      1.0000 0.52330  0.34820  0.45440  Biso   1.000  H
  H52      1.0000 0.47670  0.65180  0.54560  Biso   1.000  H
  H53      1.0000 0.40430  0.33140  0.52090  Biso   1.000  H
  H54      1.0000 0.59570  0.66860  0.47910  Biso   1.000  H
  C69      1.0000 0.41100  0.15660  0.53960  Biso   1.000  C
  C70      1.0000 0.58900  0.84340  0.46040  Biso   1.000  C
  C71      1.0000 0.47230  0.09730  0.59450  Biso   1.000  C
  C72      1.0000 0.52770  0.90270  0.40550  Biso   1.000  C
  H55      1.0000 0.49800  0.12970  0.63350  Biso   1.000  H
  H56      1.0000 0.50200  0.87030  0.36650  Biso   1.000  H
  H57      1.0000 0.42120  0.05500  0.62840  Biso   1.000  H
  H58      1.0000 0.57880  0.94500  0.37160  Biso   1.000  H
  H59      1.0000 0.53620  0.07010  0.55600  Biso   1.000  H
  H60      1.0000 0.46380  0.92990  0.44400  Biso   1.000  H
  C73      1.0000 0.30630  0.19580  0.59920  Biso   1.000  C
  C74      1.0000 0.69370  0.80420  0.40080  Biso   1.000  C
  H61      1.0000 0.32780  0.22860  0.63980  Biso   1.000  H
  H62      1.0000 0.67220  0.77140  0.36020  Biso   1.000  H
  H63      1.0000 0.26740  0.23190  0.56430  Biso   1.000  H
  H64      1.0000 0.73260  0.76810  0.43570  Biso   1.000  H
  H65      1.0000 0.25700  0.15160  0.63130  Biso   1.000  H
  H66      1.0000 0.74300  0.84840  0.36870  Biso   1.000  H
  N11      1.0000 0.37040  0.10658  0.47838  Biso   1.000  N
  N12      1.0000 0.62960  0.89342  0.52162  Biso   1.000  N
  O23      1.0000 0.31950  0.03643  0.50409  Biso   1.000  O
  O24      1.0000 0.68050  0.96357  0.49591  Biso   1.000  O
  C75      1.0000 0.37970  0.14990  0.40010  Biso   1.000  C
  C76      1.0000 0.62030  0.85010  0.59990  Biso   1.000  C
  C77      1.0000 0.34010  0.12410  0.32950  Biso   1.000  C
  C78      1.0000 0.65990  0.87590  0.67050  Biso   1.000  C
  C79      1.0000 0.29560  0.04640  0.32250  Biso   1.000  C
  C80      1.0000 0.70440  0.95360  0.67750  Biso   1.000  C
  H67      1.0000 0.28620  0.00120  0.36540  Biso   1.000  H
  H68      1.0000 0.71380  0.99880  0.63460  Biso   1.000  H
  N13      1.0000 0.26850  0.04494  0.24785  Biso   1.000  N
  N14      1.0000 0.73150  0.95506  0.75215  Biso   1.000  N
  N15      1.0000 0.29410  0.12303  0.20579  Biso   1.000  N
  N16      1.0000 0.70590  0.87697  0.79421  Biso   1.000  N
  C81      1.0000 0.26650  0.14720  0.12350  Biso   1.000  C
  C82      1.0000 0.73350  0.85280  0.87650  Biso   1.000  C
  H69      1.0000 0.23630  0.09940  0.10500  Biso   1.000  H
  H70      1.0000 0.76370  0.90060  0.89500  Biso   1.000  H
  H71      1.0000 0.21110  0.19300  0.13180  Biso   1.000  H
  H72      1.0000 0.78890  0.80700  0.86820  Biso   1.000  H
  H73      1.0000 0.33370  0.16520  0.07930  Biso   1.000  H
  H74      1.0000 0.66630  0.83480  0.92070  Biso   1.000  H
  C83      1.0000 0.33750  0.17070  0.25250  Biso   1.000  C
  C84      1.0000 0.66250  0.82930  0.74750  Biso   1.000  C
  H75      1.0000 0.36190  0.22600  0.23610  Biso   1.000  H
  H76      1.0000 0.63810  0.77400  0.76390  Biso   1.000  H
  F49      1.0000 0.06210  0.24940  0.25240  Biso   1.000  F
  F50      1.0000 0.93790  0.75060  0.74760  Biso   1.000  F
  F51      1.0000 0.00050  0.37550  0.24340  Biso   1.000  F
  F52      1.0000 0.99950  0.62450  0.75660  Biso   1.000  F
  F53      1.0000 0.93700  0.29710  0.35680  Biso   1.000  F
  F54      1.0000 0.06300  0.70290  0.64320  Biso   1.000  F
  F55      1.0000 0.16500  0.38240  0.61000  Biso   1.000  F
  F56      1.0000 0.83500  0.61760  0.39000  Biso   1.000  F
  F57      1.0000 0.00440  0.41520  0.59140  Biso   1.000  F
  F58      1.0000 0.99560  0.58480  0.40860  Biso   1.000  F
  F59      1.0000 0.14380  0.50600  0.56580  Biso   1.000  F
  F60      1.0000 0.85620  0.49400  0.43420  Biso   1.000  F
  F61      1.0000 0.53900  0.29390  0.05570  Biso   1.000  F
  F62      1.0000 0.46100  0.70610  0.94430  Biso   1.000  F
  F63      1.0000 0.49000  0.41210  0.00160  Biso   1.000  F
  F64      1.0000 0.51000  0.58790  0.99840  Biso   1.000  F
  F65      1.0000 0.66520  0.39200  0.01500  Biso   1.000  F
  F66      1.0000 0.33480  0.60800  0.98500  Biso   1.000  F
  F67      1.0000 0.70500  0.45020  0.33400  Biso   1.000  F
  F68      1.0000 0.29500  0.54980  0.66600  Biso   1.000  F
  F69      1.0000 0.74200  0.52900  0.23090  Biso   1.000  F
  F70      1.0000 0.25800  0.47100  0.76910  Biso   1.000  F
  F71      1.0000 0.62670  0.56900  0.33600  Biso   1.000  F
  F72      1.0000 0.37330  0.43100  0.66400  Biso   1.000  F
  F73      1.0000 0.06300  0.90040  0.51330  Biso   1.000  F
  F74      1.0000 0.93700  0.09960  0.48670  Biso   1.000  F
  F75      1.0000 0.91100  0.84340  0.50400  Biso   1.000  F
  F76      1.0000 0.08900  0.15660  0.49600  Biso   1.000  F
  F77      1.0000 0.07050  0.78490  0.46810  Biso   1.000  F
  F78      1.0000 0.92950  0.21510  0.53190  Biso   1.000  F
  F79      1.0000 0.79020  0.01190  0.25770  Biso   1.000  F
  F80      1.0000 0.20980  0.98810  0.74230  Biso   1.000  F
  F81      1.0000 0.90030  0.09950  0.18100  Biso   1.000  F
  F82      1.0000 0.09970  0.90050  0.81900  Biso   1.000  F
  F83      1.0000 0.84300  0.10740  0.31890  Biso   1.000  F
  F84      1.0000 0.15700  0.89260  0.68110  Biso   1.000  F
  F85      1.0000 0.46760  0.71020  0.19590  Biso   1.000  F
  F86      1.0000 0.53240  0.28980  0.80410  Biso   1.000  F
  F87      1.0000 0.58650  0.76410  0.08990  Biso   1.000  F
  F88      1.0000 0.41350  0.23590  0.91010  Biso   1.000  F
  F89      1.0000 0.55130  0.81890  0.20740  Biso   1.000  F
  F90      1.0000 0.44870  0.18110  0.79260  Biso   1.000  F
  F91      1.0000 0.45630  0.93340  0.88190  Biso   1.000  F
  F92      1.0000 0.54370  0.06660  0.11810  Biso   1.000  F
  F93      1.0000 0.29300  0.90910  0.89910  Biso   1.000  F
  F94      1.0000 0.70700  0.09090  0.10090  Biso   1.000  F
  F95      1.0000 0.31090  0.03430  0.91360  Biso   1.000  F
  F96      1.0000 0.68910  0.96570  0.08640  Biso   1.000  F
