data_image0
_cell_length_a       12.022
_cell_length_b       15.121
_cell_length_c       15.893
_cell_angle_alpha    81.471
_cell_angle_beta     76.806
_cell_angle_gamma    85.584

_symmetry_space_group_name_H-M    "P 1"
_symmetry_int_tables_number       1

loop_
  _symmetry_equiv_pos_as_xyz
  'x, y, z'

loop_
  _atom_site_label
  _atom_site_occupancy
  _atom_site_fract_x
  _atom_site_fract_y
  _atom_site_fract_z
  _atom_site_thermal_displace_type
  _atom_site_B_iso_or_equiv
  _atom_site_type_symbol
  Cu1      1.0000 0.36057  0.90189  0.31255  Biso   1.000  Cu
  Cu2      1.0000 0.63943  0.09811  0.68745  Biso   1.000  Cu
  O1       1.0000 0.23670  0.83230  0.29030  Biso   1.000  O
  O2       1.0000 0.76330  0.16770  0.70970  Biso   1.000  O
  C1       1.0000 0.05720  0.79860  0.27500  Biso   1.000  C
  C2       1.0000 0.94280  0.20140  0.72500  Biso   1.000  C
  F1       1.0000 0.07210  0.71100  0.27800  Biso   1.000  F
  F2       1.0000 0.92790  0.28900  0.72200  Biso   1.000  F
  F3       1.0000 0.08260  0.83280  0.19290  Biso   1.000  F
  F4       1.0000 0.91740  0.16720  0.80710  Biso   1.000  F
  F5       1.0000 0.94520  0.81430  0.30460  Biso   1.000  F
  F6       1.0000 0.05480  0.18570  0.69540  Biso   1.000  F
  C3       1.0000 0.13060  0.83640  0.32620  Biso   1.000  C
  C4       1.0000 0.86940  0.16360  0.67380  Biso   1.000  C
  C5       1.0000 0.07830  0.86290  0.40570  Biso   1.000  C
  C6       1.0000 0.92170  0.13710  0.59430  Biso   1.000  C
  H1       1.0000 0.99710  0.86600  0.42170  Biso   1.000  H
  H2       1.0000 0.00290  0.13400  0.57830  Biso   1.000  H
  C7       1.0000 0.14050  0.88560  0.46420  Biso   1.000  C
  C8       1.0000 0.85950  0.11440  0.53580  Biso   1.000  C
  C9       1.0000 0.07300  0.89730  0.55620  Biso   1.000  C
  C10      1.0000 0.92700  0.10270  0.44380  Biso   1.000  C
  F7       1.0000 0.96430  0.92460  0.55940  Biso   1.000  F
  F8       1.0000 0.03570  0.07540  0.44060  Biso   1.000  F
  F9       1.0000 0.11820  0.96120  0.58770  Biso   1.000  F
  F10      1.0000 0.88180  0.03880  0.41230  Biso   1.000  F
  F11      1.0000 0.07550  0.82320  0.61020  Biso   1.000  F
  F12      1.0000 0.92450  0.17680  0.38980  Biso   1.000  F
  O3       1.0000 0.24760  0.89140  0.45030  Biso   1.000  O
  O4       1.0000 0.75240  0.10860  0.54970  Biso   1.000  O
  O5       1.0000 0.44040  0.89170  0.17160  Biso   1.000  O
  O6       1.0000 0.55960  0.10830  0.82840  Biso   1.000  O
  C11      1.0000 0.58710  0.88360  0.04930  Biso   1.000  C
  C12      1.0000 0.41290  0.11640  0.95070  Biso   1.000  C
  F13      1.0000 0.61960  0.79930  0.05220  Biso   1.000  F
  F14      1.0000 0.38040  0.20070  0.94780  Biso   1.000  F
  F15      1.0000 0.50870  0.89490  0.00090  Biso   1.000  F
  F16      1.0000 0.49130  0.10510  0.99910  Biso   1.000  F
  F17      1.0000 0.67680  0.92690  0.00380  Biso   1.000  F
  F18      1.0000 0.32320  0.07310  0.99620  Biso   1.000  F
  C13      1.0000 0.54280  0.90750  0.14030  Biso   1.000  C
  C14      1.0000 0.45720  0.09250  0.85970  Biso   1.000  C
  C15      1.0000 0.61850  0.94660  0.17840  Biso   1.000  C
  C16      1.0000 0.38150  0.05340  0.82160  Biso   1.000  C
  H3       1.0000 0.69290  0.95860  0.14430  Biso   1.000  H
  H4       1.0000 0.30710  0.04140  0.85570  Biso   1.000  H
  C17      1.0000 0.59130  0.96820  0.26110  Biso   1.000  C
  C18      1.0000 0.40870  0.03180  0.73890  Biso   1.000  C
  C19      1.0000 0.68480  0.00660  0.29590  Biso   1.000  C
  C20      1.0000 0.31520  0.99340  0.70410  Biso   1.000  C
  F19      1.0000 0.69590  0.95920  0.36950  Biso   1.000  F
  F20      1.0000 0.30410  0.04080  0.63050  Biso   1.000  F
  F21      1.0000 0.65940  0.09010  0.30800  Biso   1.000  F
  F22      1.0000 0.34060  0.90990  0.69200  Biso   1.000  F
  F23      1.0000 0.78770  0.00460  0.24280  Biso   1.000  F
  F24      1.0000 0.21230  0.99540  0.75720  Biso   1.000  F
  O7       1.0000 0.49570  0.96640  0.31670  Biso   1.000  O
  O8       1.0000 0.50430  0.03360  0.68330  Biso   1.000  O
  O9       1.0000 0.08510  0.30510  0.19070  Biso   1.000  O
  O10      1.0000 0.91490  0.69490  0.80930  Biso   1.000  O
  N1       1.0000 0.06210  0.24600  0.14490  Biso   1.000  N
  N2       1.0000 0.93790  0.75400  0.85510  Biso   1.000  N
  C21      1.0000 0.97160  0.26860  0.09440  Biso   1.000  C
  C22      1.0000 0.02840  0.73140  0.90560  Biso   1.000  C
  C23      1.0000 0.98850  0.35590  0.03720  Biso   1.000  C
  C24      1.0000 0.01150  0.64410  0.96280  Biso   1.000  C
  H5       1.0000 0.98430  0.40390  0.07310  Biso   1.000  H
  H6       1.0000 0.01570  0.59610  0.92690  Biso   1.000  H
  H7       1.0000 0.92870  0.36690  0.00360  Biso   1.000  H
  H8       1.0000 0.07130  0.63310  0.99640  Biso   1.000  H
  H9       1.0000 0.06360  0.35440  0.99710  Biso   1.000  H
  H10      1.0000 0.93640  0.64560  0.00290  Biso   1.000  H
  C25      1.0000 0.85680  0.27010  0.16130  Biso   1.000  C
  C26      1.0000 0.14320  0.72990  0.83870  Biso   1.000  C
  H11      1.0000 0.85120  0.32230  0.19210  Biso   1.000  H
  H12      1.0000 0.14880  0.67770  0.80790  Biso   1.000  H
  H13      1.0000 0.85230  0.21530  0.20330  Biso   1.000  H
  H14      1.0000 0.14770  0.78470  0.79670  Biso   1.000  H
  H15      1.0000 0.79380  0.27350  0.13100  Biso   1.000  H
  H16      1.0000 0.20620  0.72650  0.86900  Biso   1.000  H
  C27      1.0000 0.98760  0.18340  0.04420  Biso   1.000  C
  C28      1.0000 0.01240  0.81660  0.95580  Biso   1.000  C
  C29      1.0000 0.87970  0.14230  0.03830  Biso   1.000  C
  C30      1.0000 0.12030  0.85770  0.96170  Biso   1.000  C
  H17      1.0000 0.89970  0.09020  0.00680  Biso   1.000  H
  H18      1.0000 0.10030  0.90980  0.99320  Biso   1.000  H
  H19      1.0000 0.83430  0.18650  0.00710  Biso   1.000  H
  H20      1.0000 0.16570  0.81350  0.99290  Biso   1.000  H
  H21      1.0000 0.83510  0.12330  0.09710  Biso   1.000  H
  H22      1.0000 0.16490  0.87670  0.90290  Biso   1.000  H
  C31      1.0000 0.07070  0.19570  0.95590  Biso   1.000  C
  C32      1.0000 0.92930  0.80430  0.04410  Biso   1.000  C
  H23      1.0000 0.07280  0.14240  0.92710  Biso   1.000  H
  H24      1.0000 0.92720  0.85760  0.07290  Biso   1.000  H
  H25      1.0000 0.14730  0.20460  0.96400  Biso   1.000  H
  H26      1.0000 0.85270  0.79540  0.03600  Biso   1.000  H
  H27      1.0000 0.04560  0.24820  0.91960  Biso   1.000  H
  H28      1.0000 0.95440  0.75180  0.08040  Biso   1.000  H
  N3       1.0000 0.05140  0.11760  0.10160  Biso   1.000  N
  N4       1.0000 0.94860  0.88240  0.89840  Biso   1.000  N
  O11      1.0000 0.06360  0.03540  0.09530  Biso   1.000  O
  O12      1.0000 0.93640  0.96460  0.90470  Biso   1.000  O
  C33      1.0000 0.09640  0.16060  0.15440  Biso   1.000  C
  C34      1.0000 0.90360  0.83940  0.84560  Biso   1.000  C
  C35      1.0000 0.16620  0.11970  0.21170  Biso   1.000  C
  C36      1.0000 0.83380  0.88030  0.78830  Biso   1.000  C
  C37      1.0000 0.21610  0.03380  0.21650  Biso   1.000  C
  C38      1.0000 0.78390  0.96620  0.78350  Biso   1.000  C
  H29      1.0000 0.21040  0.99230  0.17840  Biso   1.000  H
  H30      1.0000 0.78960  0.00770  0.82160  Biso   1.000  H
  N5       1.0000 0.27340  0.01560  0.28080  Biso   1.000  N
  N6       1.0000 0.72660  0.98440  0.71920  Biso   1.000  N
  N7       1.0000 0.26030  0.09480  0.31660  Biso   1.000  N
  N8       1.0000 0.73970  0.90520  0.68340  Biso   1.000  N
  C39      1.0000 0.31000  0.10070  0.39110  Biso   1.000  C
  C40      1.0000 0.69000  0.89930  0.60890  Biso   1.000  C
  H31      1.0000 0.29250  0.16050  0.40900  Biso   1.000  H
  H32      1.0000 0.70750  0.83950  0.59100  Biso   1.000  H
  H33      1.0000 0.39310  0.09020  0.37470  Biso   1.000  H
  H34      1.0000 0.60690  0.90980  0.62530  Biso   1.000  H
  H35      1.0000 0.27780  0.05550  0.43960  Biso   1.000  H
  H36      1.0000 0.72220  0.94450  0.56040  Biso   1.000  H
  C41      1.0000 0.19870  0.15480  0.27650  Biso   1.000  C
  C42      1.0000 0.80130  0.84520  0.72350  Biso   1.000  C
  H37      1.0000 0.17960  0.21390  0.29030  Biso   1.000  H
  H38      1.0000 0.82040  0.78610  0.70970  Biso   1.000  H
  Cu3      1.0000 0.19981  0.42588  0.20681  Biso   1.000  Cu
  Cu4      1.0000 0.80019  0.57412  0.79319  Biso   1.000  Cu
  O13      1.0000 0.24440  0.45830  0.08130  Biso   1.000  O
  O14      1.0000 0.75560  0.54170  0.91870  Biso   1.000  O
  C43      1.0000 0.33990  0.45810  0.93620  Biso   1.000  C
  C44      1.0000 0.66010  0.54190  0.06380  Biso   1.000  C
  F25      1.0000 0.29500  0.40720  0.89780  Biso   1.000  F
  F26      1.0000 0.70500  0.59280  0.10220  Biso   1.000  F
  F27      1.0000 0.43980  0.45470  0.89230  Biso   1.000  F
  F28      1.0000 0.56020  0.54530  0.10770  Biso   1.000  F
  F29      1.0000 0.30040  0.53240  0.92000  Biso   1.000  F
  F30      1.0000 0.69960  0.46760  0.08000  Biso   1.000  F
  C45      1.0000 0.32790  0.42180  0.03140  Biso   1.000  C
  C46      1.0000 0.67210  0.57820  0.96860  Biso   1.000  C
  C47      1.0000 0.40800  0.35800  0.05590  Biso   1.000  C
  C48      1.0000 0.59200  0.64200  0.94410  Biso   1.000  C
  H39      1.0000 0.46510  0.33520  0.01150  Biso   1.000  H
  H40      1.0000 0.53490  0.66480  0.98850  Biso   1.000  H
  C49      1.0000 0.40830  0.32610  0.14250  Biso   1.000  C
  C50      1.0000 0.59170  0.67390  0.85750  Biso   1.000  C
  C51      1.0000 0.50200  0.25860  0.16080  Biso   1.000  C
  C52      1.0000 0.49800  0.74140  0.83920  Biso   1.000  C
  F31      1.0000 0.54410  0.27800  0.22570  Biso   1.000  F
  F32      1.0000 0.45590  0.72200  0.77430  Biso   1.000  F
  F33      1.0000 0.46270  0.17580  0.18480  Biso   1.000  F
  F34      1.0000 0.53730  0.82420  0.81520  Biso   1.000  F
  F35      1.0000 0.59060  0.25110  0.09510  Biso   1.000  F
  F36      1.0000 0.40940  0.74890  0.90490  Biso   1.000  F
  O15      1.0000 0.33660  0.34640  0.20880  Biso   1.000  O
  O16      1.0000 0.66340  0.65360  0.79120  Biso   1.000  O
  O17      1.0000 0.05680  0.49820  0.20550  Biso   1.000  O
  O18      1.0000 0.94320  0.50180  0.79450  Biso   1.000  O
  C53      1.0000 0.87290  0.55820  0.25550  Biso   1.000  C
  C54      1.0000 0.12710  0.44180  0.74450  Biso   1.000  C
  F37      1.0000 0.78750  0.50800  0.25140  Biso   1.000  F
  F38      1.0000 0.21250  0.49200  0.74860  Biso   1.000  F
  F39      1.0000 0.83120  0.60670  0.32000  Biso   1.000  F
  F40      1.0000 0.16880  0.39330  0.68000  Biso   1.000  F
  F41      1.0000 0.89260  0.61660  0.18390  Biso   1.000  F
  F42      1.0000 0.10740  0.38340  0.81610  Biso   1.000  F
  C55      1.0000 0.97530  0.50120  0.27040  Biso   1.000  C
  C56      1.0000 0.02470  0.49880  0.72960  Biso   1.000  C
  C57      1.0000 0.97010  0.45170  0.35480  Biso   1.000  C
  C58      1.0000 0.02990  0.54830  0.64520  Biso   1.000  C
  H41      1.0000 0.90110  0.45630  0.39760  Biso   1.000  H
  H42      1.0000 0.09890  0.54370  0.60240  Biso   1.000  H
  C59      1.0000 0.05680  0.39890  0.37780  Biso   1.000  C
  C60      1.0000 0.94320  0.60110  0.62220  Biso   1.000  C
  C61      1.0000 0.04720  0.35600  0.46970  Biso   1.000  C
  C62      1.0000 0.95280  0.64400  0.53030  Biso   1.000  C
  F43      1.0000 0.09280  0.27240  0.47700  Biso   1.000  F
  F44      1.0000 0.90720  0.72760  0.52300  Biso   1.000  F
  F45      1.0000 0.94260  0.35490  0.51810  Biso   1.000  F
  F46      1.0000 0.05740  0.64510  0.48190  Biso   1.000  F
  F47      1.0000 0.10840  0.40270  0.50990  Biso   1.000  F
  F48      1.0000 0.89160  0.59730  0.49010  Biso   1.000  F
  O19      1.0000 0.15220  0.38040  0.32970  Biso   1.000  O
  O20      1.0000 0.84780  0.61960  0.67030  Biso   1.000  O
  O21      1.0000 0.45500  0.79070  0.33560  Biso   1.000  O
  O22      1.0000 0.54500  0.20930  0.66440  Biso   1.000  O
  N9       1.0000 0.43260  0.73140  0.40220  Biso   1.000  N
  N10      1.0000 0.56740  0.26860  0.59780  Biso   1.000  N
  C63      1.0000 0.48320  0.72610  0.48130  Biso   1.000  C
  C64      1.0000 0.51680  0.27390  0.51870  Biso   1.000  C
  C65      1.0000 0.47830  0.81920  0.51140  Biso   1.000  C
  C66      1.0000 0.52170  0.18080  0.48860  Biso   1.000  C
  H43      1.0000 0.39830  0.84000  0.52950  Biso   1.000  H
  H44      1.0000 0.60170  0.16000  0.47050  Biso   1.000  H
  H45      1.0000 0.51770  0.86160  0.46310  Biso   1.000  H
  H46      1.0000 0.48230  0.13840  0.53690  Biso   1.000  H
  H47      1.0000 0.51570  0.81500  0.56060  Biso   1.000  H
  H48      1.0000 0.48430  0.18500  0.43940  Biso   1.000  H
  C67      1.0000 0.60940  0.69460  0.45130  Biso   1.000  C
  C68      1.0000 0.39060  0.30540  0.54870  Biso   1.000  C
  H49      1.0000 0.61300  0.63570  0.43180  Biso   1.000  H
  H50      1.0000 0.38700  0.36430  0.56820  Biso   1.000  H
  H51      1.0000 0.64790  0.69050  0.50000  Biso   1.000  H
  H52      1.0000 0.35210  0.30950  0.50000  Biso   1.000  H
  H53      1.0000 0.64760  0.73770  0.40300  Biso   1.000  H
  H54      1.0000 0.35240  0.26230  0.59700  Biso   1.000  H
  C69      1.0000 0.40780  0.65800  0.54680  Biso   1.000  C
  C70      1.0000 0.59220  0.34200  0.45320  Biso   1.000  C
  C71      1.0000 0.46890  0.59080  0.60380  Biso   1.000  C
  C72      1.0000 0.53110  0.40920  0.39620  Biso   1.000  C
  H55      1.0000 0.53980  0.56790  0.56810  Biso   1.000  H
  H56      1.0000 0.46020  0.43210  0.43190  Biso   1.000  H
  H57      1.0000 0.41920  0.54100  0.63040  Biso   1.000  H
  H58      1.0000 0.58080  0.45900  0.36960  Biso   1.000  H
  H59      1.0000 0.48700  0.62010  0.64980  Biso   1.000  H
  H60      1.0000 0.51300  0.37990  0.35020  Biso   1.000  H
  C73      1.0000 0.30250  0.69860  0.60140  Biso   1.000  C
  C74      1.0000 0.69750  0.30140  0.39860  Biso   1.000  C
  H61      1.0000 0.26760  0.74530  0.56460  Biso   1.000  H
  H62      1.0000 0.73240  0.25470  0.43540  Biso   1.000  H
  H63      1.0000 0.32370  0.72480  0.64800  Biso   1.000  H
  H64      1.0000 0.67630  0.27520  0.35200  Biso   1.000  H
  H65      1.0000 0.24770  0.65200  0.62710  Biso   1.000  H
  H66      1.0000 0.75230  0.34800  0.37290  Biso   1.000  H
  N11      1.0000 0.36680  0.60820  0.48470  Biso   1.000  N
  N12      1.0000 0.63320  0.39180  0.51530  Biso   1.000  N
  O23      1.0000 0.31890  0.53380  0.50950  Biso   1.000  O
  O24      1.0000 0.68110  0.46620  0.49050  Biso   1.000  O
  C75      1.0000 0.38090  0.65550  0.40210  Biso   1.000  C
  C76      1.0000 0.61910  0.34450  0.59790  Biso   1.000  C
  C77      1.0000 0.34570  0.62740  0.33050  Biso   1.000  C
  C78      1.0000 0.65430  0.37260  0.66950  Biso   1.000  C
  C79      1.0000 0.29420  0.54730  0.32580  Biso   1.000  C
  C80      1.0000 0.70580  0.45270  0.67420  Biso   1.000  C
  H67      1.0000 0.27670  0.50010  0.37270  Biso   1.000  H
  H68      1.0000 0.72330  0.49990  0.62730  Biso   1.000  H
  N13      1.0000 0.27420  0.54700  0.24870  Biso   1.000  N
  N14      1.0000 0.72580  0.45300  0.75130  Biso   1.000  N
  N15      1.0000 0.31510  0.62570  0.20160  Biso   1.000  N
  N16      1.0000 0.68490  0.37430  0.79840  Biso   1.000  N
  C81      1.0000 0.29610  0.65030  0.11260  Biso   1.000  C
  C82      1.0000 0.70390  0.34970  0.88740  Biso   1.000  C
  H69      1.0000 0.33350  0.70620  0.08610  Biso   1.000  H
  H70      1.0000 0.66650  0.29380  0.91390  Biso   1.000  H
  H71      1.0000 0.21380  0.65850  0.11490  Biso   1.000  H
  H72      1.0000 0.78620  0.34150  0.88510  Biso   1.000  H
  H73      1.0000 0.32830  0.60250  0.07740  Biso   1.000  H
  H74      1.0000 0.67170  0.39750  0.92260  Biso   1.000  H
  C83      1.0000 0.35770  0.67460  0.24860  Biso   1.000  C
  C84      1.0000 0.64230  0.32540  0.75140  Biso   1.000  C
  H75      1.0000 0.39030  0.73140  0.22920  Biso   1.000  H
  H76      1.0000 0.60970  0.26860  0.77080  Biso   1.000  H
