data_image0
_cell_length_a       11.9822
_cell_length_b       15.0665
_cell_length_c       15.8827
_cell_angle_alpha    81.337
_cell_angle_beta     76.852
_cell_angle_gamma    85.591

_symmetry_space_group_name_H-M    "P 1"
_symmetry_int_tables_number       1

loop_
  _symmetry_equiv_pos_as_xyz
  'x, y, z'

loop_
  _atom_site_label
  _atom_site_occupancy
  _atom_site_fract_x
  _atom_site_fract_y
  _atom_site_fract_z
  _atom_site_thermal_displace_type
  _atom_site_B_iso_or_equiv
  _atom_site_type_symbol
  Cu1      1.0000 0.19955  0.42579  0.20661  Biso   1.000  Cu
  Cu2      1.0000 0.80045  0.57421  0.79339  Biso   1.000  Cu
  O1       1.0000 0.24380  0.45880  0.08030  Biso   1.000  O
  O2       1.0000 0.75620  0.54120  0.91970  Biso   1.000  O
  C1       1.0000 0.33830  0.45740  0.93550  Biso   1.000  C
  C2       1.0000 0.66170  0.54260  0.06450  Biso   1.000  C
  F1       1.0000 0.44690  0.45410  0.88900  Biso   1.000  F
  F2       1.0000 0.55310  0.54590  0.11100  Biso   1.000  F
  F3       1.0000 0.28570  0.40470  0.90280  Biso   1.000  F
  F4       1.0000 0.71430  0.59530  0.09720  Biso   1.000  F
  F5       1.0000 0.30700  0.53800  0.91980  Biso   1.000  F
  F6       1.0000 0.69300  0.46200  0.08020  Biso   1.000  F
  C3       1.0000 0.32760  0.42290  0.03190  Biso   1.000  C
  C4       1.0000 0.67240  0.57710  0.96810  Biso   1.000  C
  C5       1.0000 0.40840  0.35780  0.05510  Biso   1.000  C
  C6       1.0000 0.59160  0.64220  0.94490  Biso   1.000  C
  H1       1.0000 0.46560  0.33520  0.01060  Biso   1.000  H
  H2       1.0000 0.53440  0.66480  0.98940  Biso   1.000  H
  C7       1.0000 0.40710  0.32540  0.14190  Biso   1.000  C
  C8       1.0000 0.59290  0.67460  0.85810  Biso   1.000  C
  C9       1.0000 0.50310  0.25680  0.16160  Biso   1.000  C
  C10      1.0000 0.49690  0.74320  0.83840  Biso   1.000  C
  F7       1.0000 0.58840  0.25070  0.09400  Biso   1.000  F
  F8       1.0000 0.41160  0.74930  0.90600  Biso   1.000  F
  F9       1.0000 0.46160  0.17540  0.18490  Biso   1.000  F
  F10      1.0000 0.53840  0.82460  0.81510  Biso   1.000  F
  F11      1.0000 0.54630  0.27790  0.22420  Biso   1.000  F
  F12      1.0000 0.45370  0.72210  0.77580  Biso   1.000  F
  O3       1.0000 0.33740  0.34520  0.20860  Biso   1.000  O
  O4       1.0000 0.66260  0.65480  0.79140  Biso   1.000  O
  O5       1.0000 0.05670  0.49900  0.20560  Biso   1.000  O
  O6       1.0000 0.94330  0.50100  0.79440  Biso   1.000  O
  C11      1.0000 0.87060  0.55960  0.25610  Biso   1.000  C
  C12      1.0000 0.12940  0.44040  0.74390  Biso   1.000  C
  F13      1.0000 0.78660  0.50880  0.25260  Biso   1.000  F
  F14      1.0000 0.21340  0.49120  0.74740  Biso   1.000  F
  F15      1.0000 0.83010  0.60870  0.32110  Biso   1.000  F
  F16      1.0000 0.16990  0.39130  0.67890  Biso   1.000  F
  F17      1.0000 0.89220  0.61610  0.18360  Biso   1.000  F
  F18      1.0000 0.10780  0.38390  0.81640  Biso   1.000  F
  C13      1.0000 0.97580  0.50070  0.27110  Biso   1.000  C
  C14      1.0000 0.02420  0.49930  0.72890  Biso   1.000  C
  C15      1.0000 0.96750  0.45390  0.35540  Biso   1.000  C
  C16      1.0000 0.03250  0.54610  0.64460  Biso   1.000  C
  H3       1.0000 0.89890  0.46020  0.39820  Biso   1.000  H
  H4       1.0000 0.10110  0.53980  0.60180  Biso   1.000  H
  C17      1.0000 0.05720  0.39880  0.37750  Biso   1.000  C
  C18      1.0000 0.94280  0.60120  0.62250  Biso   1.000  C
  C19      1.0000 0.04870  0.35650  0.47160  Biso   1.000  C
  C20      1.0000 0.95130  0.64350  0.52840  Biso   1.000  C
  F19      1.0000 0.10880  0.40200  0.51030  Biso   1.000  F
  F20      1.0000 0.89120  0.59800  0.48970  Biso   1.000  F
  F21      1.0000 0.09320  0.27270  0.47660  Biso   1.000  F
  F22      1.0000 0.90680  0.72730  0.52340  Biso   1.000  F
  F23      1.0000 0.94050  0.35440  0.51840  Biso   1.000  F
  F24      1.0000 0.05950  0.64560  0.48160  Biso   1.000  F
  O7       1.0000 0.15380  0.37990  0.32900  Biso   1.000  O
  O8       1.0000 0.84620  0.62010  0.67100  Biso   1.000  O
  Cu3      1.0000 0.36148  0.90175  0.31232  Biso   1.000  Cu
  Cu4      1.0000 0.63852  0.09825  0.68768  Biso   1.000  Cu
  O9       1.0000 0.44190  0.89180  0.17080  Biso   1.000  O
  O10      1.0000 0.55810  0.10820  0.82920  Biso   1.000  O
  C21      1.0000 0.58920  0.88540  0.04600  Biso   1.000  C
  C22      1.0000 0.41080  0.11460  0.95400  Biso   1.000  C
  F25      1.0000 0.68060  0.92820  0.00140  Biso   1.000  F
  F26      1.0000 0.31940  0.07180  0.99860  Biso   1.000  F
  F27      1.0000 0.62390  0.79740  0.05360  Biso   1.000  F
  F28      1.0000 0.37610  0.20260  0.94640  Biso   1.000  F
  F29      1.0000 0.51030  0.89650  0.99970  Biso   1.000  F
  F30      1.0000 0.48970  0.10350  0.00030  Biso   1.000  F
  C23      1.0000 0.54280  0.91070  0.13850  Biso   1.000  C
  C24      1.0000 0.45720  0.08930  0.86150  Biso   1.000  C
  C25      1.0000 0.62000  0.94540  0.17780  Biso   1.000  C
  C26      1.0000 0.38000  0.05460  0.82220  Biso   1.000  C
  H5       1.0000 0.69650  0.95290  0.14540  Biso   1.000  H
  H6       1.0000 0.30350  0.04710  0.85460  Biso   1.000  H
  C27      1.0000 0.59210  0.96970  0.26110  Biso   1.000  C
  C28      1.0000 0.40790  0.03030  0.73890  Biso   1.000  C
  C29      1.0000 0.68510  0.00620  0.29630  Biso   1.000  C
  C30      1.0000 0.31490  0.99380  0.70370  Biso   1.000  C
  F31      1.0000 0.78830  0.00540  0.24320  Biso   1.000  F
  F32      1.0000 0.21170  0.99460  0.75680  Biso   1.000  F
  F33      1.0000 0.65990  0.09040  0.30920  Biso   1.000  F
  F34      1.0000 0.34010  0.90960  0.69080  Biso   1.000  F
  F35      1.0000 0.69500  0.96030  0.37130  Biso   1.000  F
  F36      1.0000 0.30500  0.03970  0.62870  Biso   1.000  F
  O11      1.0000 0.49760  0.96720  0.31630  Biso   1.000  O
  O12      1.0000 0.50240  0.03280  0.68370  Biso   1.000  O
  O13      1.0000 0.24700  0.89110  0.45180  Biso   1.000  O
  O14      1.0000 0.75300  0.10890  0.54820  Biso   1.000  O
  C31      1.0000 0.07280  0.89840  0.55650  Biso   1.000  C
  C32      1.0000 0.92720  0.10160  0.44350  Biso   1.000  C
  F37      1.0000 0.07240  0.82110  0.60980  Biso   1.000  F
  F38      1.0000 0.92760  0.17890  0.39020  Biso   1.000  F
  F39      1.0000 0.11610  0.96050  0.58850  Biso   1.000  F
  F40      1.0000 0.88390  0.03950  0.41150  Biso   1.000  F
  F41      1.0000 0.96290  0.92340  0.55890  Biso   1.000  F
  F42      1.0000 0.03710  0.07660  0.44110  Biso   1.000  F
  C33      1.0000 0.14010  0.88500  0.46310  Biso   1.000  C
  C34      1.0000 0.85990  0.11500  0.53690  Biso   1.000  C
  C35      1.0000 0.07800  0.86360  0.40580  Biso   1.000  C
  C36      1.0000 0.92200  0.13640  0.59420  Biso   1.000  C
  H7       1.0000 0.99660  0.86780  0.42120  Biso   1.000  H
  H8       1.0000 0.00340  0.13220  0.57880  Biso   1.000  H
  C37      1.0000 0.13180  0.83620  0.32640  Biso   1.000  C
  C38      1.0000 0.86820  0.16380  0.67360  Biso   1.000  C
  C39      1.0000 0.05920  0.79890  0.27370  Biso   1.000  C
  C40      1.0000 0.94080  0.20110  0.72630  Biso   1.000  C
  F43      1.0000 0.08680  0.83140  0.19110  Biso   1.000  F
  F44      1.0000 0.91320  0.16860  0.80890  Biso   1.000  F
  F45      1.0000 0.94690  0.81490  0.30170  Biso   1.000  F
  F46      1.0000 0.05310  0.18510  0.69830  Biso   1.000  F
  F47      1.0000 0.07550  0.71020  0.27810  Biso   1.000  F
  F48      1.0000 0.92450  0.28980  0.72190  Biso   1.000  F
  O15      1.0000 0.23600  0.83290  0.29190  Biso   1.000  O
  O16      1.0000 0.76400  0.16710  0.70810  Biso   1.000  O
  O17      1.0000 0.45890  0.79110  0.33480  Biso   1.000  O
  O18      1.0000 0.54110  0.20890  0.66520  Biso   1.000  O
  N1       1.0000 0.43130  0.73090  0.40350  Biso   1.000  N
  N2       1.0000 0.56870  0.26910  0.59650  Biso   1.000  N
  C41      1.0000 0.48350  0.72800  0.48180  Biso   1.000  C
  C42      1.0000 0.51650  0.27200  0.51820  Biso   1.000  C
  C43      1.0000 0.60890  0.69430  0.45270  Biso   1.000  C
  C44      1.0000 0.39110  0.30570  0.54730  Biso   1.000  C
  H9       1.0000 0.61080  0.63480  0.43430  Biso   1.000  H
  H10      1.0000 0.38920  0.36520  0.56570  Biso   1.000  H
  H11      1.0000 0.64840  0.73630  0.40370  Biso   1.000  H
  H12      1.0000 0.35160  0.26370  0.59630  Biso   1.000  H
  H13      1.0000 0.64740  0.69010  0.50140  Biso   1.000  H
  H14      1.0000 0.35260  0.30990  0.49860  Biso   1.000  H
  C45      1.0000 0.47820  0.81930  0.51030  Biso   1.000  C
  C46      1.0000 0.52180  0.18070  0.48970  Biso   1.000  C
  H15      1.0000 0.51270  0.81510  0.56120  Biso   1.000  H
  H16      1.0000 0.48730  0.18490  0.43880  Biso   1.000  H
  H17      1.0000 0.52040  0.86120  0.46260  Biso   1.000  H
  H18      1.0000 0.47960  0.13880  0.53740  Biso   1.000  H
  H19      1.0000 0.39800  0.84100  0.52580  Biso   1.000  H
  H20      1.0000 0.60200  0.15900  0.47420  Biso   1.000  H
  C47      1.0000 0.40750  0.65750  0.54620  Biso   1.000  C
  C48      1.0000 0.59250  0.34250  0.45380  Biso   1.000  C
  C49      1.0000 0.30030  0.69940  0.60150  Biso   1.000  C
  C50      1.0000 0.69970  0.30060  0.39850  Biso   1.000  C
  H21      1.0000 0.32290  0.73260  0.64300  Biso   1.000  H
  H22      1.0000 0.67710  0.26740  0.35700  Biso   1.000  H
  H23      1.0000 0.26000  0.74060  0.56330  Biso   1.000  H
  H24      1.0000 0.74000  0.25940  0.43670  Biso   1.000  H
  H25      1.0000 0.24940  0.65180  0.63340  Biso   1.000  H
  H26      1.0000 0.75060  0.34820  0.36660  Biso   1.000  H
  C51      1.0000 0.46940  0.59270  0.60490  Biso   1.000  C
  C52      1.0000 0.53060  0.40730  0.39510  Biso   1.000  C
  H27      1.0000 0.49510  0.62560  0.64530  Biso   1.000  H
  H28      1.0000 0.50490  0.37440  0.35470  Biso   1.000  H
  H29      1.0000 0.41710  0.54660  0.63830  Biso   1.000  H
  H30      1.0000 0.58290  0.45340  0.36170  Biso   1.000  H
  H31      1.0000 0.53600  0.56400  0.56910  Biso   1.000  H
  H32      1.0000 0.46400  0.43600  0.43090  Biso   1.000  H
  N3       1.0000 0.36800  0.60820  0.48460  Biso   1.000  N
  N4       1.0000 0.63200  0.39180  0.51540  Biso   1.000  N
  O19      1.0000 0.31720  0.53340  0.50920  Biso   1.000  O
  O20      1.0000 0.68280  0.46660  0.49080  Biso   1.000  O
  C53      1.0000 0.38020  0.65500  0.40350  Biso   1.000  C
  C54      1.0000 0.61980  0.34500  0.59650  Biso   1.000  C
  C55      1.0000 0.34630  0.62780  0.33060  Biso   1.000  C
  C56      1.0000 0.65370  0.37220  0.66940  Biso   1.000  C
  C57      1.0000 0.29430  0.54820  0.32660  Biso   1.000  C
  C58      1.0000 0.70570  0.45180  0.67340  Biso   1.000  C
  H33      1.0000 0.27470  0.50200  0.37460  Biso   1.000  H
  H34      1.0000 0.72530  0.49800  0.62540  Biso   1.000  H
  N5       1.0000 0.27600  0.54560  0.24810  Biso   1.000  N
  N6       1.0000 0.72400  0.45440  0.75190  Biso   1.000  N
  N7       1.0000 0.31480  0.62590  0.20060  Biso   1.000  N
  N8       1.0000 0.68520  0.37410  0.79940  Biso   1.000  N
  C59      1.0000 0.29800  0.65210  0.11240  Biso   1.000  C
  C60      1.0000 0.70200  0.34790  0.88760  Biso   1.000  C
  H35      1.0000 0.26360  0.60320  0.09430  Biso   1.000  H
  H36      1.0000 0.73640  0.39680  0.90570  Biso   1.000  H
  H37      1.0000 0.24690  0.70610  0.11070  Biso   1.000  H
  H38      1.0000 0.75310  0.29390  0.88930  Biso   1.000  H
  H39      1.0000 0.37220  0.66490  0.07260  Biso   1.000  H
  H40      1.0000 0.62780  0.33510  0.92740  Biso   1.000  H
  C61      1.0000 0.35920  0.67420  0.24730  Biso   1.000  C
  C62      1.0000 0.64080  0.32580  0.75270  Biso   1.000  C
  H41      1.0000 0.39350  0.73050  0.22710  Biso   1.000  H
  H42      1.0000 0.60650  0.26950  0.77290  Biso   1.000  H
  O21      1.0000 0.06290  0.03490  0.09510  Biso   1.000  O
  O22      1.0000 0.93710  0.96510  0.90490  Biso   1.000  O
  N9       1.0000 0.04810  0.11810  0.10280  Biso   1.000  N
  N10      1.0000 0.95190  0.88190  0.89720  Biso   1.000  N
  C63      1.0000 0.98790  0.18300  0.04460  Biso   1.000  C
  C64      1.0000 0.01210  0.81700  0.95540  Biso   1.000  C
  C65      1.0000 0.06910  0.19590  0.95550  Biso   1.000  C
  C66      1.0000 0.93090  0.80410  0.04450  Biso   1.000  C
  H43      1.0000 0.03310  0.23800  0.91510  Biso   1.000  H
  H44      1.0000 0.96690  0.76200  0.08490  Biso   1.000  H
  H45      1.0000 0.14050  0.22010  0.96060  Biso   1.000  H
  H46      1.0000 0.85950  0.77990  0.03940  Biso   1.000  H
  H47      1.0000 0.08600  0.13800  0.93330  Biso   1.000  H
  H48      1.0000 0.91400  0.86200  0.06670  Biso   1.000  H
  C67      1.0000 0.87890  0.14240  0.03680  Biso   1.000  C
  C68      1.0000 0.12110  0.85760  0.96320  Biso   1.000  C
  H49      1.0000 0.83950  0.18460  0.99880  Biso   1.000  H
  H50      1.0000 0.16050  0.81540  0.00120  Biso   1.000  H
  H51      1.0000 0.89860  0.08610  0.01180  Biso   1.000  H
  H52      1.0000 0.10140  0.91390  0.98820  Biso   1.000  H
  H53      1.0000 0.82840  0.13020  0.09480  Biso   1.000  H
  H54      1.0000 0.17160  0.86980  0.90520  Biso   1.000  H
  C69      1.0000 0.96910  0.26660  0.09360  Biso   1.000  C
  C70      1.0000 0.03090  0.73340  0.90640  Biso   1.000  C
  C71      1.0000 0.98820  0.35710  0.03660  Biso   1.000  C
  C72      1.0000 0.01180  0.64290  0.96340  Biso   1.000  C
  H55      1.0000 0.92900  0.36960  0.00220  Biso   1.000  H
  H56      1.0000 0.07100  0.63040  0.99780  Biso   1.000  H
  H57      1.0000 0.98370  0.40430  0.07370  Biso   1.000  H
  H58      1.0000 0.01630  0.59570  0.92630  Biso   1.000  H
  H59      1.0000 0.06400  0.35580  0.99720  Biso   1.000  H
  H60      1.0000 0.93600  0.64420  0.00280  Biso   1.000  H
  C73      1.0000 0.85640  0.27070  0.16110  Biso   1.000  C
  C74      1.0000 0.14360  0.72930  0.83890  Biso   1.000  C
  H61      1.0000 0.79250  0.28260  0.13130  Biso   1.000  H
  H62      1.0000 0.20750  0.71740  0.86870  Biso   1.000  H
  H63      1.0000 0.84660  0.21320  0.19950  Biso   1.000  H
  H64      1.0000 0.15340  0.78680  0.80050  Biso   1.000  H
  H65      1.0000 0.85770  0.31890  0.19590  Biso   1.000  H
  H66      1.0000 0.14230  0.68110  0.80410  Biso   1.000  H
  N11      1.0000 0.06040  0.24810  0.14610  Biso   1.000  N
  N12      1.0000 0.93960  0.75190  0.85390  Biso   1.000  N
  O23      1.0000 0.08510  0.30580  0.19040  Biso   1.000  O
  O24      1.0000 0.91490  0.69420  0.80960  Biso   1.000  O
  C75      1.0000 0.09510  0.16080  0.15400  Biso   1.000  C
  C76      1.0000 0.90490  0.83920  0.84600  Biso   1.000  C
  C77      1.0000 0.16660  0.11990  0.21220  Biso   1.000  C
  C78      1.0000 0.83340  0.88010  0.78780  Biso   1.000  C
  C79      1.0000 0.21730  0.03250  0.21620  Biso   1.000  C
  C80      1.0000 0.78270  0.96750  0.78380  Biso   1.000  C
  H67      1.0000 0.21200  0.99030  0.17860  Biso   1.000  H
  H68      1.0000 0.78800  0.00970  0.82140  Biso   1.000  H
  N13      1.0000 0.27330  0.01760  0.27990  Biso   1.000  N
  N14      1.0000 0.72670  0.98240  0.72010  Biso   1.000  N
  N15      1.0000 0.26170  0.09520  0.31700  Biso   1.000  N
  N16      1.0000 0.73830  0.90480  0.68300  Biso   1.000  N
  C81      1.0000 0.30970  0.10350  0.39050  Biso   1.000  C
  C82      1.0000 0.69030  0.89650  0.60950  Biso   1.000  C
  H69      1.0000 0.35260  0.04760  0.40590  Biso   1.000  H
  H70      1.0000 0.64740  0.95240  0.59410  Biso   1.000  H
  H71      1.0000 0.36150  0.15350  0.37530  Biso   1.000  H
  H72      1.0000 0.63850  0.84650  0.62470  Biso   1.000  H
  H73      1.0000 0.24780  0.11490  0.44030  Biso   1.000  H
  H74      1.0000 0.75220  0.88510  0.55970  Biso   1.000  H
  C83      1.0000 0.19730  0.15740  0.27670  Biso   1.000  C
  C84      1.0000 0.80270  0.84260  0.72330  Biso   1.000  C
  H75      1.0000 0.17690  0.21650  0.29040  Biso   1.000  H
  H76      1.0000 0.82310  0.78350  0.70960  Biso   1.000  H
  F49      1.0000 0.39900  0.52700  0.91350  Biso   1.000  F
  F50      1.0000 0.60100  0.47300  0.08650  Biso   1.000  F
  F51      1.0000 0.37700  0.40480  0.88190  Biso   1.000  F
  F52      1.0000 0.62300  0.59520  0.11810  Biso   1.000  F
  F53      1.0000 0.23730  0.48800  0.91520  Biso   1.000  F
  F54      1.0000 0.76270  0.51200  0.08480  Biso   1.000  F
