data_image0
_cell_length_a       12.0934
_cell_length_b       15.3697
_cell_length_c       15.9466
_cell_angle_alpha    84.159
_cell_angle_beta     74.197
_cell_angle_gamma    87.61

_symmetry_space_group_name_H-M    "P 1"
_symmetry_int_tables_number       1

loop_
  _symmetry_equiv_pos_as_xyz
  'x, y, z'

loop_
  _atom_site_label
  _atom_site_occupancy
  _atom_site_fract_x
  _atom_site_fract_y
  _atom_site_fract_z
  _atom_site_thermal_displace_type
  _atom_site_B_iso_or_equiv
  _atom_site_type_symbol
  Cu1      1.0000 0.19699  0.43106  0.20188  Biso   1.000  Cu
  Cu2      1.0000 0.80301  0.56894  0.79812  Biso   1.000  Cu
  O1       1.0000 0.24800  0.45960  0.07540  Biso   1.000  O
  O2       1.0000 0.75200  0.54040  0.92460  Biso   1.000  O
  C1       1.0000 0.34830  0.45770  0.92690  Biso   1.000  C
  C2       1.0000 0.65170  0.54230  0.07310  Biso   1.000  C
  F1       1.0000 0.45400  0.45100  0.88100  Biso   1.000  F
  F2       1.0000 0.54600  0.54900  0.11900  Biso   1.000  F
  F3       1.0000 0.28500  0.41600  0.89440  Biso   1.000  F
  F4       1.0000 0.71500  0.58400  0.10560  Biso   1.000  F
  F5       1.0000 0.31300  0.53080  0.91420  Biso   1.000  F
  F6       1.0000 0.68700  0.46920  0.08580  Biso   1.000  F
  C3       1.0000 0.33580  0.42720  0.02400  Biso   1.000  C
  C4       1.0000 0.66420  0.57280  0.97600  Biso   1.000  C
  C5       1.0000 0.41110  0.36790  0.04620  Biso   1.000  C
  C6       1.0000 0.58890  0.63210  0.95380  Biso   1.000  C
  H1       1.0000 0.47180  0.34710  0.00090  Biso   1.000  H
  H2       1.0000 0.52820  0.65290  0.99910  Biso   1.000  H
  C7       1.0000 0.40440  0.33600  0.13170  Biso   1.000  C
  C8       1.0000 0.59560  0.66400  0.86830  Biso   1.000  C
  C9       1.0000 0.49460  0.26830  0.14910  Biso   1.000  C
  C10      1.0000 0.50540  0.73170  0.85090  Biso   1.000  C
  F7       1.0000 0.58780  0.26500  0.08080  Biso   1.000  F
  F8       1.0000 0.41220  0.73500  0.91920  Biso   1.000  F
  F9       1.0000 0.45430  0.18830  0.16680  Biso   1.000  F
  F10      1.0000 0.54570  0.81170  0.83320  Biso   1.000  F
  F11      1.0000 0.53380  0.28690  0.21490  Biso   1.000  F
  F12      1.0000 0.46620  0.71310  0.78510  Biso   1.000  F
  O3       1.0000 0.33210  0.35250  0.19910  Biso   1.000  O
  O4       1.0000 0.66790  0.64750  0.80090  Biso   1.000  O
  O5       1.0000 0.05610  0.50310  0.20470  Biso   1.000  O
  O6       1.0000 0.94390  0.49690  0.79530  Biso   1.000  O
  C11      1.0000 0.87540  0.56140  0.25600  Biso   1.000  C
  C12      1.0000 0.12460  0.43860  0.74400  Biso   1.000  C
  F13      1.0000 0.79170  0.51470  0.24940  Biso   1.000  F
  F14      1.0000 0.20830  0.48530  0.75060  Biso   1.000  F
  F15      1.0000 0.82850  0.60740  0.32270  Biso   1.000  F
  F16      1.0000 0.17150  0.39260  0.67730  Biso   1.000  F
  F17      1.0000 0.90170  0.61850  0.18840  Biso   1.000  F
  F18      1.0000 0.09830  0.38150  0.81160  Biso   1.000  F
  C13      1.0000 0.97600  0.50490  0.26960  Biso   1.000  C
  C14      1.0000 0.02400  0.49510  0.73040  Biso   1.000  C
  C15      1.0000 0.96260  0.46100  0.35350  Biso   1.000  C
  C16      1.0000 0.03740  0.53900  0.64650  Biso   1.000  C
  H3       1.0000 0.89400  0.47060  0.39790  Biso   1.000  H
  H4       1.0000 0.10600  0.52940  0.60210  Biso   1.000  H
  C17      1.0000 0.04480  0.40470  0.37360  Biso   1.000  C
  C18      1.0000 0.95520  0.59530  0.62640  Biso   1.000  C
  C19      1.0000 0.02500  0.35970  0.46560  Biso   1.000  C
  C20      1.0000 0.97500  0.64030  0.53440  Biso   1.000  C
  F19      1.0000 0.09830  0.38670  0.50490  Biso   1.000  F
  F20      1.0000 0.90170  0.61330  0.49510  Biso   1.000  F
  F21      1.0000 0.05000  0.27680  0.46270  Biso   1.000  F
  F22      1.0000 0.95000  0.72320  0.53730  Biso   1.000  F
  F23      1.0000 0.92490  0.36820  0.51510  Biso   1.000  F
  F24      1.0000 0.07510  0.63180  0.48490  Biso   1.000  F
  O7       1.0000 0.14160  0.38750  0.32400  Biso   1.000  O
  O8       1.0000 0.85840  0.61250  0.67600  Biso   1.000  O
  Cu3      1.0000 0.35138  0.91194  0.30250  Biso   1.000  Cu
  Cu4      1.0000 0.64862  0.08806  0.69750  Biso   1.000  Cu
  O9       1.0000 0.43220  0.89270  0.18140  Biso   1.000  O
  O10      1.0000 0.56780  0.10730  0.81860  Biso   1.000  O
  C21      1.0000 0.57800  0.88380  0.05380  Biso   1.000  C
  C22      1.0000 0.42200  0.11620  0.94620  Biso   1.000  C
  F25      1.0000 0.67480  0.91890  0.00710  Biso   1.000  F
  F26      1.0000 0.32520  0.08110  0.99290  Biso   1.000  F
  F27      1.0000 0.59720  0.79910  0.05730  Biso   1.000  F
  F28      1.0000 0.40280  0.20090  0.94270  Biso   1.000  F
  F29      1.0000 0.50450  0.89810  0.00860  Biso   1.000  F
  F30      1.0000 0.49550  0.10190  0.99140  Biso   1.000  F
  C23      1.0000 0.53570  0.91230  0.14470  Biso   1.000  C
  C24      1.0000 0.46430  0.08770  0.85530  Biso   1.000  C
  C25      1.0000 0.60950  0.95300  0.17990  Biso   1.000  C
  C26      1.0000 0.39050  0.04700  0.82010  Biso   1.000  C
  H5       1.0000 0.68600  0.96350  0.14540  Biso   1.000  H
  H6       1.0000 0.31400  0.03650  0.85460  Biso   1.000  H
  C27      1.0000 0.57620  0.97900  0.26350  Biso   1.000  C
  C28      1.0000 0.42380  0.02100  0.73650  Biso   1.000  C
  C29      1.0000 0.66600  0.02330  0.29610  Biso   1.000  C
  C30      1.0000 0.33400  0.97670  0.70390  Biso   1.000  C
  F31      1.0000 0.77330  0.01050  0.25110  Biso   1.000  F
  F32      1.0000 0.22670  0.98950  0.74890  Biso   1.000  F
  F33      1.0000 0.64720  0.11150  0.28880  Biso   1.000  F
  F34      1.0000 0.35280  0.88850  0.71120  Biso   1.000  F
  F35      1.0000 0.65590  0.00370  0.37950  Biso   1.000  F
  F36      1.0000 0.34410  0.99630  0.62050  Biso   1.000  F
  O11      1.0000 0.48200  0.97340  0.31810  Biso   1.000  O
  O12      1.0000 0.51800  0.02660  0.68190  Biso   1.000  O
  O13      1.0000 0.26830  0.91670  0.42760  Biso   1.000  O
  O14      1.0000 0.73170  0.08330  0.57240  Biso   1.000  O
  C31      1.0000 0.11390  0.92860  0.55030  Biso   1.000  C
  C32      1.0000 0.88610  0.07140  0.44970  Biso   1.000  C
  F37      1.0000 0.15160  0.87350  0.60670  Biso   1.000  F
  F38      1.0000 0.84840  0.12650  0.39330  Biso   1.000  F
  F39      1.0000 0.14220  0.00840  0.55830  Biso   1.000  F
  F40      1.0000 0.85780  0.99160  0.44170  Biso   1.000  F
  F41      1.0000 0.99790  0.92520  0.57570  Biso   1.000  F
  F42      1.0000 0.00210  0.07480  0.42430  Biso   1.000  F
  C33      1.0000 0.16280  0.90310  0.45740  Biso   1.000  C
  C34      1.0000 0.83720  0.09690  0.54260  Biso   1.000  C
  C35      1.0000 0.08760  0.87060  0.41490  Biso   1.000  C
  C36      1.0000 0.91240  0.12940  0.58510  Biso   1.000  C
  H7       1.0000 0.00780  0.86760  0.44390  Biso   1.000  H
  H8       1.0000 0.99220  0.13240  0.55610  Biso   1.000  H
  C37      1.0000 0.12710  0.84260  0.33160  Biso   1.000  C
  C38      1.0000 0.87290  0.15740  0.66840  Biso   1.000  C
  C39      1.0000 0.04090  0.80060  0.29360  Biso   1.000  C
  C40      1.0000 0.95910  0.19940  0.70640  Biso   1.000  C
  F43      1.0000 0.05180  0.82860  0.21440  Biso   1.000  F
  F44      1.0000 0.94820  0.17140  0.78560  Biso   1.000  F
  F45      1.0000 0.93510  0.80370  0.34050  Biso   1.000  F
  F46      1.0000 0.06490  0.19630  0.65950  Biso   1.000  F
  F47      1.0000 0.06540  0.71450  0.29160  Biso   1.000  F
  F48      1.0000 0.93460  0.28550  0.70840  Biso   1.000  F
  O15      1.0000 0.22800  0.84560  0.28140  Biso   1.000  O
  O16      1.0000 0.77200  0.15440  0.71860  Biso   1.000  O
  O17      1.0000 0.46770  0.78390  0.33580  Biso   1.000  O
  O18      1.0000 0.53230  0.21610  0.66420  Biso   1.000  O
  N1       1.0000 0.44260  0.72450  0.40020  Biso   1.000  N
  N2       1.0000 0.55740  0.27550  0.59980  Biso   1.000  N
  C41      1.0000 0.48790  0.72540  0.48060  Biso   1.000  C
  C42      1.0000 0.51210  0.27460  0.51940  Biso   1.000  C
  C43      1.0000 0.61460  0.69280  0.45000  Biso   1.000  C
  C44      1.0000 0.38540  0.30720  0.55000  Biso   1.000  C
  H9       1.0000 0.61640  0.63330  0.43260  Biso   1.000  H
  H10      1.0000 0.38360  0.36670  0.56740  Biso   1.000  H
  H11      1.0000 0.65670  0.73180  0.40000  Biso   1.000  H
  H12      1.0000 0.34330  0.26820  0.60000  Biso   1.000  H
  H13      1.0000 0.65070  0.69290  0.49810  Biso   1.000  H
  H14      1.0000 0.34930  0.30710  0.50190  Biso   1.000  H
  C45      1.0000 0.48190  0.81560  0.50750  Biso   1.000  C
  C46      1.0000 0.51810  0.18440  0.49250  Biso   1.000  C
  H15      1.0000 0.51110  0.81540  0.55910  Biso   1.000  H
  H16      1.0000 0.48890  0.18460  0.44090  Biso   1.000  H
  H17      1.0000 0.52870  0.85430  0.45940  Biso   1.000  H
  H18      1.0000 0.47130  0.14570  0.54060  Biso   1.000  H
  H19      1.0000 0.40190  0.83650  0.52160  Biso   1.000  H
  H20      1.0000 0.59810  0.16350  0.47840  Biso   1.000  H
  C47      1.0000 0.40820  0.65570  0.54450  Biso   1.000  C
  C48      1.0000 0.59180  0.34430  0.45550  Biso   1.000  C
  C49      1.0000 0.29870  0.69700  0.59940  Biso   1.000  C
  C50      1.0000 0.70130  0.30300  0.40060  Biso   1.000  C
  H21      1.0000 0.31790  0.73100  0.64210  Biso   1.000  H
  H22      1.0000 0.68210  0.26900  0.35790  Biso   1.000  H
  H23      1.0000 0.26310  0.73550  0.56100  Biso   1.000  H
  H24      1.0000 0.73690  0.26450  0.43900  Biso   1.000  H
  H25      1.0000 0.24500  0.65080  0.63020  Biso   1.000  H
  H26      1.0000 0.75500  0.34920  0.36980  Biso   1.000  H
  C51      1.0000 0.46660  0.59590  0.60250  Biso   1.000  C
  C52      1.0000 0.53340  0.40410  0.39750  Biso   1.000  C
  H27      1.0000 0.48930  0.63040  0.64340  Biso   1.000  H
  H28      1.0000 0.51070  0.36960  0.35660  Biso   1.000  H
  H29      1.0000 0.41300  0.55050  0.63560  Biso   1.000  H
  H30      1.0000 0.58700  0.44950  0.36440  Biso   1.000  H
  H31      1.0000 0.53490  0.56840  0.56590  Biso   1.000  H
  H32      1.0000 0.46510  0.43160  0.43410  Biso   1.000  H
  N3       1.0000 0.37230  0.60510  0.48130  Biso   1.000  N
  N4       1.0000 0.62770  0.39490  0.51870  Biso   1.000  N
  O19      1.0000 0.32070  0.53210  0.50480  Biso   1.000  O
  O20      1.0000 0.67930  0.46790  0.49520  Biso   1.000  O
  C53      1.0000 0.38690  0.64920  0.40240  Biso   1.000  C
  C54      1.0000 0.61310  0.35080  0.59760  Biso   1.000  C
  C55      1.0000 0.35130  0.62530  0.32910  Biso   1.000  C
  C56      1.0000 0.64870  0.37470  0.67090  Biso   1.000  C
  C57      1.0000 0.29930  0.54530  0.32290  Biso   1.000  C
  C58      1.0000 0.70070  0.45470  0.67710  Biso   1.000  C
  H33      1.0000 0.28410  0.49800  0.36760  Biso   1.000  H
  H34      1.0000 0.71590  0.50200  0.63240  Biso   1.000  H
  N5       1.0000 0.27500  0.54560  0.24700  Biso   1.000  N
  N6       1.0000 0.72500  0.45440  0.75300  Biso   1.000  N
  N7       1.0000 0.30780  0.62650  0.20500  Biso   1.000  N
  N8       1.0000 0.69220  0.37350  0.79500  Biso   1.000  N
  C59      1.0000 0.28260  0.65530  0.12160  Biso   1.000  C
  C60      1.0000 0.71740  0.34470  0.87840  Biso   1.000  C
  H35      1.0000 0.24960  0.60680  0.10150  Biso   1.000  H
  H36      1.0000 0.75040  0.39320  0.89850  Biso   1.000  H
  H37      1.0000 0.22760  0.70440  0.12960  Biso   1.000  H
  H38      1.0000 0.77240  0.29560  0.87040  Biso   1.000  H
  H39      1.0000 0.35370  0.67380  0.07790  Biso   1.000  H
  H40      1.0000 0.64630  0.32620  0.92210  Biso   1.000  H
  C61      1.0000 0.35350  0.67540  0.25150  Biso   1.000  C
  C62      1.0000 0.64650  0.32460  0.74850  Biso   1.000  C
  H41      1.0000 0.38180  0.73310  0.23460  Biso   1.000  H
  H42      1.0000 0.61820  0.26690  0.76540  Biso   1.000  H
  O21      1.0000 0.05200  0.04130  0.09080  Biso   1.000  O
  O22      1.0000 0.94800  0.95870  0.90920  Biso   1.000  O
  N9       1.0000 0.03930  0.12330  0.09760  Biso   1.000  N
  N10      1.0000 0.96070  0.87670  0.90240  Biso   1.000  N
  C63      1.0000 0.98440  0.18370  0.03940  Biso   1.000  C
  C64      1.0000 0.01560  0.81630  0.96060  Biso   1.000  C
  C65      1.0000 0.07360  0.19320  0.95020  Biso   1.000  C
  C66      1.0000 0.92640  0.80680  0.04980  Biso   1.000  C
  H43      1.0000 0.04290  0.23200  0.90900  Biso   1.000  H
  H44      1.0000 0.95710  0.76800  0.09100  Biso   1.000  H
  H45      1.0000 0.14400  0.21800  0.95640  Biso   1.000  H
  H46      1.0000 0.85600  0.78200  0.04360  Biso   1.000  H
  H47      1.0000 0.09100  0.13560  0.92800  Biso   1.000  H
  H48      1.0000 0.90900  0.86440  0.07200  Biso   1.000  H
  C67      1.0000 0.87610  0.14180  0.03020  Biso   1.000  C
  C68      1.0000 0.12390  0.85820  0.96980  Biso   1.000  C
  H49      1.0000 0.84070  0.18120  0.99230  Biso   1.000  H
  H50      1.0000 0.15930  0.81880  0.00770  Biso   1.000  H
  H51      1.0000 0.89670  0.08620  0.00440  Biso   1.000  H
  H52      1.0000 0.10330  0.91380  0.99560  Biso   1.000  H
  H53      1.0000 0.82160  0.13120  0.08810  Biso   1.000  H
  H54      1.0000 0.17840  0.86880  0.91190  Biso   1.000  H
  C69      1.0000 0.96600  0.26810  0.08710  Biso   1.000  C
  C70      1.0000 0.03400  0.73190  0.91290  Biso   1.000  C
  C71      1.0000 0.99200  0.35480  0.03060  Biso   1.000  C
  C72      1.0000 0.00800  0.64520  0.96940  Biso   1.000  C
  H55      1.0000 0.93650  0.36530  0.99570  Biso   1.000  H
  H56      1.0000 0.06350  0.63470  0.00430  Biso   1.000  H
  H57      1.0000 0.98620  0.40220  0.06830  Biso   1.000  H
  H58      1.0000 0.01380  0.59780  0.93170  Biso   1.000  H
  H59      1.0000 0.06990  0.35250  0.99140  Biso   1.000  H
  H60      1.0000 0.93010  0.64750  0.00860  Biso   1.000  H
  C73      1.0000 0.84740  0.27500  0.15500  Biso   1.000  C
  C74      1.0000 0.15260  0.72500  0.84500  Biso   1.000  C
  H61      1.0000 0.78730  0.28520  0.12440  Biso   1.000  H
  H62      1.0000 0.21270  0.71480  0.87560  Biso   1.000  H
  H63      1.0000 0.83240  0.22050  0.19350  Biso   1.000  H
  H64      1.0000 0.16760  0.77950  0.80650  Biso   1.000  H
  H65      1.0000 0.84770  0.32380  0.19000  Biso   1.000  H
  H66      1.0000 0.15230  0.67620  0.81000  Biso   1.000  H
  N11      1.0000 0.05150  0.25270  0.14010  Biso   1.000  N
  N12      1.0000 0.94850  0.74730  0.85990  Biso   1.000  N
  O23      1.0000 0.07470  0.31440  0.18450  Biso   1.000  O
  O24      1.0000 0.92530  0.68560  0.81550  Biso   1.000  O
  C75      1.0000 0.08350  0.16840  0.14940  Biso   1.000  C
  C76      1.0000 0.91650  0.83160  0.85060  Biso   1.000  C
  C77      1.0000 0.15060  0.13110  0.20540  Biso   1.000  C
  C78      1.0000 0.84940  0.86890  0.79460  Biso   1.000  C
  C79      1.0000 0.20040  0.04910  0.20840  Biso   1.000  C
  C80      1.0000 0.79960  0.95090  0.79160  Biso   1.000  C
  H67      1.0000 0.19540  0.00510  0.17190  Biso   1.000  H
  H68      1.0000 0.80460  0.99490  0.82810  Biso   1.000  H
  N13      1.0000 0.25730  0.04020  0.27070  Biso   1.000  N
  N14      1.0000 0.74270  0.95980  0.72930  Biso   1.000  N
  N15      1.0000 0.24550  0.11770  0.30400  Biso   1.000  N
  N16      1.0000 0.75450  0.88230  0.69600  Biso   1.000  N
  C81      1.0000 0.30120  0.13540  0.37230  Biso   1.000  C
  C82      1.0000 0.69880  0.86460  0.62770  Biso   1.000  C
  H69      1.0000 0.34140  0.08240  0.38870  Biso   1.000  H
  H70      1.0000 0.65860  0.91760  0.61130  Biso   1.000  H
  H71      1.0000 0.35640  0.18270  0.34960  Biso   1.000  H
  H72      1.0000 0.64360  0.81730  0.65040  Biso   1.000  H
  H73      1.0000 0.24260  0.15280  0.42390  Biso   1.000  H
  H74      1.0000 0.75740  0.84720  0.57610  Biso   1.000  H
  C83      1.0000 0.18520  0.17370  0.26770  Biso   1.000  C
  C84      1.0000 0.81480  0.82630  0.73230  Biso   1.000  C
  H75      1.0000 0.16780  0.23250  0.28080  Biso   1.000  H
  H76      1.0000 0.83220  0.76750  0.71920  Biso   1.000  H
  F49      1.0000 0.45400  0.48000  0.88700  Biso   1.000  F
  F50      1.0000 0.54600  0.52000  0.11300  Biso   1.000  F
  F51      1.0000 0.31400  0.39500  0.89200  Biso   1.000  F
  F52      1.0000 0.68600  0.60500  0.10800  Biso   1.000  F
  F53      1.0000 0.30600  0.54800  0.91700  Biso   1.000  F
  F54      1.0000 0.69400  0.45200  0.08300  Biso   1.000  F
