data_image0
_cell_length_a       12.276
_cell_length_b       16.18
_cell_length_c       15.724
_cell_angle_alpha    90
_cell_angle_beta     108.76
_cell_angle_gamma    90

_symmetry_space_group_name_H-M    "P 1"
_symmetry_int_tables_number       1

loop_
  _symmetry_equiv_pos_as_xyz
  'x, y, z'

loop_
  _atom_site_label
  _atom_site_occupancy
  _atom_site_fract_x
  _atom_site_fract_y
  _atom_site_fract_z
  _atom_site_thermal_displace_type
  _atom_site_B_iso_or_equiv
  _atom_site_type_symbol
  Cu1      1.0000 0.32020  0.92664  0.20566  Biso   1.000  Cu
  Cu2      1.0000 0.17980  0.42664  0.29434  Biso   1.000  Cu
  Cu3      1.0000 0.67980  0.07336  0.79434  Biso   1.000  Cu
  Cu4      1.0000 0.82020  0.57336  0.70566  Biso   1.000  Cu
  O1       1.0000 0.18510  0.86569  0.21170  Biso   1.000  O
  O2       1.0000 0.31490  0.36569  0.28830  Biso   1.000  O
  O3       1.0000 0.81490  0.13431  0.78830  Biso   1.000  O
  O4       1.0000 0.68510  0.63431  0.71170  Biso   1.000  O
  C1       1.0000 0.99940  0.81260  0.17290  Biso   1.000  C
  C2       1.0000 0.50060  0.31260  0.32710  Biso   1.000  C
  C3       1.0000 0.00060  0.18740  0.82710  Biso   1.000  C
  C4       1.0000 0.49940  0.68740  0.67290  Biso   1.000  C
  F1       1.0000 0.03400  0.72640  0.17920  Biso   1.000  F
  F2       1.0000 0.46600  0.22640  0.32080  Biso   1.000  F
  F3       1.0000 0.96600  0.27360  0.82080  Biso   1.000  F
  F4       1.0000 0.53400  0.77360  0.67920  Biso   1.000  F
  F5       1.0000 0.98500  0.82870  0.24050  Biso   1.000  F
  F6       1.0000 0.51500  0.32870  0.25950  Biso   1.000  F
  F7       1.0000 0.01500  0.17130  0.75950  Biso   1.000  F
  F8       1.0000 0.48500  0.67130  0.74050  Biso   1.000  F
  F9       1.0000 0.89620  0.80350  0.09350  Biso   1.000  F
  F10      1.0000 0.60380  0.30350  0.40650  Biso   1.000  F
  F11      1.0000 0.10380  0.19650  0.90650  Biso   1.000  F
  F12      1.0000 0.39620  0.69650  0.59350  Biso   1.000  F
  C5       1.0000 0.09550  0.85500  0.14630  Biso   1.000  C
  C6       1.0000 0.40450  0.35500  0.35370  Biso   1.000  C
  C7       1.0000 0.90450  0.14500  0.85370  Biso   1.000  C
  C8       1.0000 0.59550  0.64500  0.64630  Biso   1.000  C
  C9       1.0000 0.07610  0.87700  0.05830  Biso   1.000  C
  C10      1.0000 0.42390  0.37700  0.44170  Biso   1.000  C
  C11      1.0000 0.92390  0.12300  0.94170  Biso   1.000  C
  C12      1.0000 0.57610  0.62300  0.55830  Biso   1.000  C
  H1       1.0000 0.00470  0.86520  0.01650  Biso   1.000  H
  H2       1.0000 0.49530  0.36520  0.48350  Biso   1.000  H
  H3       1.0000 0.99530  0.13480  0.98350  Biso   1.000  H
  H4       1.0000 0.50470  0.63480  0.51650  Biso   1.000  H
  C13      1.0000 0.15710  0.91580  0.02900  Biso   1.000  C
  C14      1.0000 0.34290  0.41580  0.47100  Biso   1.000  C
  C15      1.0000 0.84290  0.08420  0.97100  Biso   1.000  C
  C16      1.0000 0.65710  0.58420  0.52900  Biso   1.000  C
  C17      1.0000 0.12780  0.93280  0.92890  Biso   1.000  C
  C18      1.0000 0.37220  0.43280  0.57110  Biso   1.000  C
  C19      1.0000 0.87220  0.06720  0.07110  Biso   1.000  C
  C20      1.0000 0.62780  0.56720  0.42890  Biso   1.000  C
  F13      1.0000 0.16100  0.86690  0.89000  Biso   1.000  F
  F14      1.0000 0.33900  0.36690  0.61000  Biso   1.000  F
  F15      1.0000 0.83900  0.13310  0.11000  Biso   1.000  F
  F16      1.0000 0.66100  0.63310  0.39000  Biso   1.000  F
  F17      1.0000 0.16500  0.99070  0.91430  Biso   1.000  F
  F18      1.0000 0.33500  0.49070  0.58570  Biso   1.000  F
  F19      1.0000 0.83500  0.00930  0.08570  Biso   1.000  F
  F20      1.0000 0.66500  0.50930  0.41430  Biso   1.000  F
  F21      1.0000 0.01890  0.94680  0.88360  Biso   1.000  F
  F22      1.0000 0.48110  0.44680  0.61640  Biso   1.000  F
  F23      1.0000 0.98110  0.05320  0.11640  Biso   1.000  F
  F24      1.0000 0.51890  0.55320  0.38360  Biso   1.000  F
  O5       1.0000 0.25540  0.93763  0.07426  Biso   1.000  O
  O6       1.0000 0.24460  0.43763  0.42574  Biso   1.000  O
  O7       1.0000 0.74460  0.06237  0.92574  Biso   1.000  O
  O8       1.0000 0.75540  0.56237  0.57426  Biso   1.000  O
  O9       1.0000 0.38610  0.89608  0.33163  Biso   1.000  O
  O10      1.0000 0.11390  0.39608  0.16837  Biso   1.000  O
  O11      1.0000 0.61390  0.10392  0.66837  Biso   1.000  O
  O12      1.0000 0.88610  0.60392  0.83163  Biso   1.000  O
  C21      1.0000 0.51860  0.86500  0.47020  Biso   1.000  C
  C22      1.0000 0.98140  0.36500  0.02980  Biso   1.000  C
  C23      1.0000 0.48140  0.13500  0.52980  Biso   1.000  C
  C24      1.0000 0.01860  0.63500  0.97020  Biso   1.000  C
  F25      1.0000 0.62060  0.82470  0.49110  Biso   1.000  F
  F26      1.0000 0.87940  0.32470  0.00890  Biso   1.000  F
  F27      1.0000 0.37940  0.17530  0.50890  Biso   1.000  F
  F28      1.0000 0.12060  0.67530  0.99110  Biso   1.000  F
  F29      1.0000 0.53900  0.91770  0.53490  Biso   1.000  F
  F30      1.0000 0.96100  0.41770  0.96510  Biso   1.000  F
  F31      1.0000 0.46100  0.08230  0.46510  Biso   1.000  F
  F32      1.0000 0.03900  0.58230  0.03490  Biso   1.000  F
  F33      1.0000 0.44690  0.80700  0.47300  Biso   1.000  F
  F34      1.0000 0.05310  0.30700  0.02700  Biso   1.000  F
  F35      1.0000 0.55310  0.19300  0.52700  Biso   1.000  F
  F36      1.0000 0.94690  0.69300  0.97300  Biso   1.000  F
  C25      1.0000 0.48790  0.90660  0.37640  Biso   1.000  C
  C26      1.0000 0.01210  0.40660  0.12360  Biso   1.000  C
  C27      1.0000 0.51210  0.09340  0.62360  Biso   1.000  C
  C28      1.0000 0.98790  0.59340  0.87640  Biso   1.000  C
  C29      1.0000 0.57100  0.94800  0.35250  Biso   1.000  C
  C30      1.0000 0.92900  0.44800  0.14750  Biso   1.000  C
  C31      1.0000 0.42900  0.05200  0.64750  Biso   1.000  C
  C32      1.0000 0.07100  0.55200  0.85250  Biso   1.000  C
  H5       1.0000 0.64440  0.95190  0.39400  Biso   1.000  H
  H6       1.0000 0.85560  0.45190  0.10600  Biso   1.000  H
  H7       1.0000 0.35560  0.04810  0.60600  Biso   1.000  H
  H8       1.0000 0.14440  0.54810  0.89400  Biso   1.000  H
  C33      1.0000 0.54990  0.98440  0.26850  Biso   1.000  C
  C34      1.0000 0.95010  0.48440  0.23150  Biso   1.000  C
  C35      1.0000 0.45010  0.01560  0.73150  Biso   1.000  C
  C36      1.0000 0.04990  0.51560  0.76850  Biso   1.000  C
  C37      1.0000 0.64600  0.03270  0.24950  Biso   1.000  C
  C38      1.0000 0.85400  0.53270  0.25050  Biso   1.000  C
  C39      1.0000 0.35400  0.96730  0.75050  Biso   1.000  C
  C40      1.0000 0.14600  0.46730  0.74950  Biso   1.000  C
  F37      1.0000 0.70700  0.97740  0.22100  Biso   1.000  F
  F38      1.0000 0.79300  0.47740  0.27900  Biso   1.000  F
  F39      1.0000 0.29300  0.02260  0.77900  Biso   1.000  F
  F40      1.0000 0.20700  0.52260  0.72100  Biso   1.000  F
  F41      1.0000 0.72400  0.05600  0.32760  Biso   1.000  F
  F42      1.0000 0.77600  0.55600  0.17240  Biso   1.000  F
  F43      1.0000 0.27600  0.94400  0.67240  Biso   1.000  F
  F44      1.0000 0.22400  0.44400  0.82760  Biso   1.000  F
  F45      1.0000 0.61780  0.08940  0.20140  Biso   1.000  F
  F46      1.0000 0.88220  0.58940  0.29860  Biso   1.000  F
  F47      1.0000 0.38220  0.91060  0.79860  Biso   1.000  F
  F48      1.0000 0.11780  0.41060  0.70140  Biso   1.000  F
  O13      1.0000 0.45880  0.98411  0.20450  Biso   1.000  O
  O14      1.0000 0.04120  0.48411  0.29550  Biso   1.000  O
  O15      1.0000 0.54120  0.01589  0.79550  Biso   1.000  O
  O16      1.0000 0.95880  0.51589  0.70450  Biso   1.000  O
  O17      1.0000 0.06800  0.30271  0.30930  Biso   1.000  O
  O18      1.0000 0.43200  0.80271  0.19070  Biso   1.000  O
  O19      1.0000 0.93200  0.69729  0.69070  Biso   1.000  O
  O20      1.0000 0.56800  0.19729  0.80930  Biso   1.000  O
  N1       1.0000 0.06620  0.24740  0.36840  Biso   1.000  N
  N2       1.0000 0.43380  0.74740  0.13160  Biso   1.000  N
  N3       1.0000 0.93380  0.75260  0.63160  Biso   1.000  N
  N4       1.0000 0.56620  0.25260  0.86840  Biso   1.000  N
  C41      1.0000 0.99400  0.25670  0.42880  Biso   1.000  C
  C42      1.0000 0.50600  0.75670  0.07120  Biso   1.000  C
  C43      1.0000 0.00600  0.74330  0.57120  Biso   1.000  C
  C44      1.0000 0.49400  0.24330  0.92880  Biso   1.000  C
  C45      1.0000 0.87050  0.24570  0.36610  Biso   1.000  C
  C46      1.0000 0.62950  0.74570  0.13390  Biso   1.000  C
  C47      1.0000 0.12950  0.75430  0.63390  Biso   1.000  C
  C48      1.0000 0.37050  0.25430  0.86610  Biso   1.000  C
  H9       1.0000 0.84810  0.29350  0.32820  Biso   1.000  H
  H10      1.0000 0.65190  0.79350  0.17180  Biso   1.000  H
  H11      1.0000 0.15190  0.70650  0.67180  Biso   1.000  H
  H12      1.0000 0.34810  0.20650  0.82820  Biso   1.000  H
  H13      1.0000 0.81990  0.23940  0.40120  Biso   1.000  H
  H14      1.0000 0.68010  0.73940  0.09880  Biso   1.000  H
  H15      1.0000 0.18010  0.76060  0.59880  Biso   1.000  H
  H16      1.0000 0.31990  0.26060  0.90120  Biso   1.000  H
  H17      1.0000 0.86600  0.19750  0.32960  Biso   1.000  H
  H18      1.0000 0.63400  0.69750  0.17040  Biso   1.000  H
  H19      1.0000 0.13400  0.80250  0.67040  Biso   1.000  H
  H20      1.0000 0.36600  0.30250  0.82960  Biso   1.000  H
  C49      1.0000 0.01020  0.34150  0.47140  Biso   1.000  C
  C50      1.0000 0.48980  0.84150  0.02860  Biso   1.000  C
  C51      1.0000 0.98980  0.65850  0.52860  Biso   1.000  C
  C52      1.0000 0.51020  0.15850  0.97140  Biso   1.000  C
  H21      1.0000 0.97900  0.38250  0.42590  Biso   1.000  H
  H22      1.0000 0.52100  0.88250  0.07410  Biso   1.000  H
  H23      1.0000 0.02100  0.61750  0.57410  Biso   1.000  H
  H24      1.0000 0.47900  0.11750  0.92590  Biso   1.000  H
  H25      1.0000 0.09080  0.35170  0.50000  Biso   1.000  H
  H26      1.0000 0.40920  0.85170  0.00000  Biso   1.000  H
  H27      1.0000 0.90920  0.64830  0.50000  Biso   1.000  H
  H28      1.0000 0.59080  0.14830  0.00000  Biso   1.000  H
  H29      1.0000 0.97120  0.34400  0.51530  Biso   1.000  H
  H30      1.0000 0.52880  0.84400  0.98470  Biso   1.000  H
  H31      1.0000 0.02880  0.65600  0.48470  Biso   1.000  H
  H32      1.0000 0.47120  0.15600  0.01530  Biso   1.000  H
  C53      1.0000 0.03900  0.18350  0.49510  Biso   1.000  C
  C54      1.0000 0.46100  0.68350  0.00490  Biso   1.000  C
  C55      1.0000 0.96100  0.81650  0.50490  Biso   1.000  C
  C56      1.0000 0.53900  0.31650  0.99510  Biso   1.000  C
  C57      1.0000 0.94850  0.13510  0.52040  Biso   1.000  C
  C58      1.0000 0.55150  0.63510  0.97960  Biso   1.000  C
  C59      1.0000 0.05150  0.86490  0.47960  Biso   1.000  C
  C60      1.0000 0.44850  0.36490  0.02040  Biso   1.000  C
  H33      1.0000 0.88760  0.11990  0.46700  Biso   1.000  H
  H34      1.0000 0.61240  0.61990  0.03300  Biso   1.000  H
  H35      1.0000 0.11240  0.88010  0.53300  Biso   1.000  H
  H36      1.0000 0.38760  0.38010  0.96700  Biso   1.000  H
  H37      1.0000 0.91800  0.16860  0.55780  Biso   1.000  H
  H38      1.0000 0.58200  0.66860  0.94220  Biso   1.000  H
  H39      1.0000 0.08200  0.83140  0.44220  Biso   1.000  H
  H40      1.0000 0.41800  0.33140  0.05780  Biso   1.000  H
  H41      1.0000 0.98250  0.08610  0.55250  Biso   1.000  H
  H42      1.0000 0.51750  0.58610  0.94750  Biso   1.000  H
  H43      1.0000 0.01750  0.91390  0.44750  Biso   1.000  H
  H44      1.0000 0.48250  0.41390  0.05250  Biso   1.000  H
  C61      1.0000 0.13880  0.20820  0.57890  Biso   1.000  C
  C62      1.0000 0.36120  0.70820  0.92110  Biso   1.000  C
  C63      1.0000 0.86120  0.79180  0.42110  Biso   1.000  C
  C64      1.0000 0.63880  0.29180  0.07890  Biso   1.000  C
  H45      1.0000 0.19600  0.23740  0.56100  Biso   1.000  H
  H46      1.0000 0.30400  0.73740  0.93900  Biso   1.000  H
  H47      1.0000 0.80400  0.76260  0.43900  Biso   1.000  H
  H48      1.0000 0.69600  0.26260  0.06100  Biso   1.000  H
  H49      1.0000 0.17240  0.15940  0.61170  Biso   1.000  H
  H50      1.0000 0.32760  0.65940  0.88830  Biso   1.000  H
  H51      1.0000 0.82760  0.84060  0.38830  Biso   1.000  H
  H52      1.0000 0.67240  0.34060  0.11170  Biso   1.000  H
  H53      1.0000 0.11050  0.24320  0.61640  Biso   1.000  H
  H54      1.0000 0.38950  0.74320  0.88360  Biso   1.000  H
  H55      1.0000 0.88950  0.75680  0.38360  Biso   1.000  H
  H56      1.0000 0.61050  0.25680  0.11640  Biso   1.000  H
  N5       1.0000 0.09070  0.13100  0.43950  Biso   1.000  N
  N6       1.0000 0.40930  0.63100  0.06050  Biso   1.000  N
  N7       1.0000 0.90930  0.86900  0.56050  Biso   1.000  N
  N8       1.0000 0.59070  0.36900  0.93950  Biso   1.000  N
  O21      1.0000 0.12700  0.05770  0.46420  Biso   1.000  O
  O22      1.0000 0.37300  0.55770  0.03580  Biso   1.000  O
  O23      1.0000 0.87300  0.94230  0.53580  Biso   1.000  O
  O24      1.0000 0.62700  0.44230  0.96420  Biso   1.000  O
  C65      1.0000 0.10970  0.17160  0.37060  Biso   1.000  C
  C66      1.0000 0.39030  0.67160  0.12940  Biso   1.000  C
  C67      1.0000 0.89030  0.82840  0.62940  Biso   1.000  C
  C68      1.0000 0.60970  0.32840  0.87060  Biso   1.000  C
  C69      1.0000 0.20050  0.05840  0.30350  Biso   1.000  C
  C70      1.0000 0.29950  0.55840  0.19650  Biso   1.000  C
  C71      1.0000 0.79950  0.94160  0.69650  Biso   1.000  C
  C72      1.0000 0.70050  0.44160  0.80350  Biso   1.000  C
  H57      1.0000 0.19520  0.01560  0.34150  Biso   1.000  H
  H58      1.0000 0.30480  0.51560  0.15850  Biso   1.000  H
  H59      1.0000 0.80480  0.98440  0.65850  Biso   1.000  H
  H60      1.0000 0.69520  0.48440  0.84150  Biso   1.000  H
  C73      1.0000 0.16280  0.13910  0.31000  Biso   1.000  C
  C74      1.0000 0.33720  0.63910  0.19000  Biso   1.000  C
  C75      1.0000 0.83720  0.86090  0.69000  Biso   1.000  C
  C76      1.0000 0.66280  0.36090  0.81000  Biso   1.000  C
  N9       1.0000 0.24460  0.04960  0.23750  Biso   1.000  N
  N10      1.0000 0.25540  0.54960  0.26250  Biso   1.000  N
  N11      1.0000 0.75540  0.95040  0.76250  Biso   1.000  N
  N12      1.0000 0.74460  0.45040  0.73750  Biso   1.000  N
  N13      1.0000 0.23570  0.12610  0.19980  Biso   1.000  N
  N14      1.0000 0.26430  0.62610  0.30020  Biso   1.000  N
  N15      1.0000 0.76430  0.87390  0.80020  Biso   1.000  N
  N16      1.0000 0.73570  0.37390  0.69980  Biso   1.000  N
  C77      1.0000 0.27840  0.14080  0.12430  Biso   1.000  C
  C78      1.0000 0.22160  0.64080  0.37570  Biso   1.000  C
  C79      1.0000 0.72160  0.85920  0.87570  Biso   1.000  C
  C80      1.0000 0.77840  0.35920  0.62430  Biso   1.000  C
  H61      1.0000 0.30510  0.08980  0.10700  Biso   1.000  H
  H62      1.0000 0.19490  0.58980  0.39300  Biso   1.000  H
  H63      1.0000 0.69490  0.91020  0.89300  Biso   1.000  H
  H64      1.0000 0.80510  0.41020  0.60700  Biso   1.000  H
  H65      1.0000 0.34070  0.17970  0.14190  Biso   1.000  H
  H66      1.0000 0.15930  0.67970  0.35810  Biso   1.000  H
  H67      1.0000 0.65930  0.82030  0.85810  Biso   1.000  H
  H68      1.0000 0.84070  0.32030  0.64190  Biso   1.000  H
  H69      1.0000 0.21740  0.16270  0.07450  Biso   1.000  H
  H70      1.0000 0.28260  0.66270  0.42550  Biso   1.000  H
  H71      1.0000 0.78260  0.83730  0.92550  Biso   1.000  H
  H72      1.0000 0.71740  0.33730  0.57450  Biso   1.000  H
  C81      1.0000 0.18790  0.17960  0.24160  Biso   1.000  C
  C82      1.0000 0.31210  0.67960  0.25840  Biso   1.000  C
  C83      1.0000 0.81210  0.82040  0.75840  Biso   1.000  C
  C84      1.0000 0.68790  0.32040  0.74160  Biso   1.000  C
  H73      1.0000 0.17370  0.23520  0.22690  Biso   1.000  H
  H74      1.0000 0.32630  0.73520  0.27310  Biso   1.000  H
  H75      1.0000 0.82630  0.76480  0.77310  Biso   1.000  H
  H76      1.0000 0.67370  0.26480  0.72690  Biso   1.000  H
  F49      1.0000 0.02700  0.74940  0.22050  Biso   1.000  F
  F50      1.0000 0.47300  0.24940  0.27950  Biso   1.000  F
  F51      1.0000 0.97300  0.25060  0.77950  Biso   1.000  F
  F52      1.0000 0.52700  0.75060  0.72050  Biso   1.000  F
  F53      1.0000 0.97350  0.86870  0.23510  Biso   1.000  F
  F54      1.0000 0.52650  0.36870  0.26490  Biso   1.000  F
  F55      1.0000 0.02650  0.13130  0.76490  Biso   1.000  F
  F56      1.0000 0.47350  0.63130  0.73510  Biso   1.000  F
  F57      1.0000 0.91300  0.80630  0.12520  Biso   1.000  F
  F58      1.0000 0.58700  0.30630  0.37480  Biso   1.000  F
  F59      1.0000 0.08700  0.19370  0.87480  Biso   1.000  F
  F60      1.0000 0.41300  0.69370  0.62520  Biso   1.000  F
  F61      1.0000 0.18250  0.89230  0.88940  Biso   1.000  F
  F62      1.0000 0.31750  0.39230  0.61060  Biso   1.000  F
  F63      1.0000 0.81750  0.10770  0.11060  Biso   1.000  F
  F64      1.0000 0.68250  0.60770  0.38940  Biso   1.000  F
  F65      1.0000 0.16980  0.01620  0.91490  Biso   1.000  F
  F66      1.0000 0.33020  0.51620  0.58510  Biso   1.000  F
  F67      1.0000 0.83020  0.98380  0.08510  Biso   1.000  F
  F68      1.0000 0.66980  0.48380  0.41490  Biso   1.000  F
  F69      1.0000 0.01940  0.92660  0.88880  Biso   1.000  F
  F70      1.0000 0.48060  0.42660  0.61120  Biso   1.000  F
  F71      1.0000 0.98060  0.07340  0.11120  Biso   1.000  F
  F72      1.0000 0.51940  0.57340  0.38880  Biso   1.000  F
  F73      1.0000 0.52900  0.79230  0.46220  Biso   1.000  F
  F74      1.0000 0.97100  0.29230  0.03780  Biso   1.000  F
  F75      1.0000 0.47100  0.20770  0.53780  Biso   1.000  F
  F76      1.0000 0.02900  0.70770  0.96220  Biso   1.000  F
  F77      1.0000 0.60500  0.89800  0.52500  Biso   1.000  F
  F78      1.0000 0.89500  0.39800  0.97500  Biso   1.000  F
  F79      1.0000 0.39500  0.10200  0.47500  Biso   1.000  F
  F80      1.0000 0.10500  0.60200  0.02500  Biso   1.000  F
  F81      1.0000 0.43400  0.88500  0.50600  Biso   1.000  F
  F82      1.0000 0.06600  0.38500  0.99400  Biso   1.000  F
  F83      1.0000 0.56600  0.11500  0.49400  Biso   1.000  F
  F84      1.0000 0.93400  0.61500  0.00600  Biso   1.000  F
  F85      1.0000 0.64200  0.01900  0.15890  Biso   1.000  F
  F86      1.0000 0.85800  0.51900  0.34110  Biso   1.000  F
  F87      1.0000 0.35800  0.98100  0.84110  Biso   1.000  F
  F88      1.0000 0.14200  0.48100  0.65890  Biso   1.000  F
  F89      1.0000 0.74410  0.01150  0.29130  Biso   1.000  F
  F90      1.0000 0.75590  0.51150  0.20870  Biso   1.000  F
  F91      1.0000 0.25590  0.98850  0.70870  Biso   1.000  F
  F92      1.0000 0.24410  0.48850  0.79130  Biso   1.000  F
  F93      1.0000 0.63500  0.11360  0.25400  Biso   1.000  F
  F94      1.0000 0.86500  0.61360  0.24600  Biso   1.000  F
  F95      1.0000 0.36500  0.88640  0.74600  Biso   1.000  F
  F96      1.0000 0.13500  0.38640  0.75400  Biso   1.000  F
