data_image0
_cell_length_a       12.278
_cell_length_b       15.845
_cell_length_c       15.782
_cell_angle_alpha    84.86
_cell_angle_beta     87.11
_cell_angle_gamma    74.1

_symmetry_space_group_name_H-M    "P 1"
_symmetry_int_tables_number       1

loop_
  _symmetry_equiv_pos_as_xyz
  'x, y, z'

loop_
  _atom_site_label
  _atom_site_occupancy
  _atom_site_fract_x
  _atom_site_fract_y
  _atom_site_fract_z
  _atom_site_thermal_displace_type
  _atom_site_B_iso_or_equiv
  _atom_site_type_symbol
  Cu1      1.0000 0.30322  0.29574  0.07274  Biso   1.000  Cu
  Cu2      1.0000 0.69678  0.70426  0.92726  Biso   1.000  Cu
  O1       1.0000 0.02660  0.18090  0.53490  Biso   1.000  O
  O2       1.0000 0.97340  0.81910  0.46510  Biso   1.000  O
  C1       1.0000 0.84320  0.20550  0.48610  Biso   1.000  C
  C2       1.0000 0.15680  0.79450  0.51390  Biso   1.000  C
  F1       1.0000 0.84760  0.12640  0.50840  Biso   1.000  F
  F2       1.0000 0.15240  0.87360  0.49160  Biso   1.000  F
  F3       1.0000 0.85710  0.20990  0.40600  Biso   1.000  F
  F4       1.0000 0.14290  0.79010  0.59400  Biso   1.000  F
  F5       1.0000 0.74300  0.24790  0.49890  Biso   1.000  F
  F6       1.0000 0.25700  0.75210  0.50110  Biso   1.000  F
  C3       1.0000 0.93380  0.23700  0.52860  Biso   1.000  C
  C4       1.0000 0.06620  0.76300  0.47140  Biso   1.000  C
  C5       1.0000 0.90500  0.31950  0.55430  Biso   1.000  C
  C6       1.0000 0.09500  0.68050  0.44570  Biso   1.000  C
  H1       1.0000 0.83400  0.35700  0.55000  Biso   1.000  H
  H2       1.0000 0.16600  0.64300  0.45000  Biso   1.000  H
  C7       1.0000 0.98000  0.35400  0.59360  Biso   1.000  C
  C8       1.0000 0.02000  0.64600  0.40640  Biso   1.000  C
  C9       1.0000 0.93400  0.44490  0.62530  Biso   1.000  C
  C10      1.0000 0.06600  0.55510  0.37470  Biso   1.000  C
  F7       1.0000 0.00570  0.49010  0.60990  Biso   1.000  F
  F8       1.0000 0.99430  0.50990  0.39010  Biso   1.000  F
  F9       1.0000 0.85060  0.49340  0.59060  Biso   1.000  F
  F10      1.0000 0.14940  0.50660  0.40940  Biso   1.000  F
  F11      1.0000 0.92120  0.44420  0.70220  Biso   1.000  F
  F12      1.0000 0.07880  0.55580  0.29780  Biso   1.000  F
  O3       1.0000 0.08030  0.31750  0.60990  Biso   1.000  O
  O4       1.0000 0.91970  0.68250  0.39010  Biso   1.000  O
  O5       1.0000 0.23650  0.07010  0.58550  Biso   1.000  O
  O6       1.0000 0.76350  0.92990  0.41450  Biso   1.000  O
  C11      1.0000 0.38560  0.94270  0.57770  Biso   1.000  C
  C12      1.0000 0.61440  0.05730  0.42230  Biso   1.000  C
  F13      1.0000 0.49770  0.91620  0.57460  Biso   1.000  F
  F14      1.0000 0.50230  0.08380  0.42540  Biso   1.000  F
  F15      1.0000 0.34510  0.89090  0.62750  Biso   1.000  F
  F16      1.0000 0.65490  0.10910  0.37250  Biso   1.000  F
  F17      1.0000 0.35820  0.93380  0.50000  Biso   1.000  F
  F18      1.0000 0.64180  0.06620  0.50000  Biso   1.000  F
  C13      1.0000 0.33920  0.03910  0.59840  Biso   1.000  C
  C14      1.0000 0.66080  0.96090  0.40160  Biso   1.000  C
  C15      1.0000 0.41150  0.08060  0.62910  Biso   1.000  C
  C16      1.0000 0.58850  0.91940  0.37090  Biso   1.000  C
  H3       1.0000 0.48400  0.04800  0.63300  Biso   1.000  H
  H4       1.0000 0.51600  0.95200  0.36700  Biso   1.000  H
  C17      1.0000 0.37660  0.16590  0.65300  Biso   1.000  C
  C18      1.0000 0.62340  0.83410  0.34700  Biso   1.000  C
  C19      1.0000 0.46770  0.20120  0.68610  Biso   1.000  C
  C20      1.0000 0.53230  0.79880  0.31390  Biso   1.000  C
  F19      1.0000 0.44410  0.21310  0.76920  Biso   1.000  F
  F20      1.0000 0.55590  0.78690  0.23080  Biso   1.000  F
  F21      1.0000 0.56820  0.15160  0.69180  Biso   1.000  F
  F22      1.0000 0.43180  0.84840  0.30820  Biso   1.000  F
  F23      1.0000 0.46740  0.27410  0.65570  Biso   1.000  F
  F24      1.0000 0.53260  0.72590  0.34430  Biso   1.000  F
  O7       1.0000 0.28200  0.21670  0.64950  Biso   1.000  O
  O8       1.0000 0.71800  0.78330  0.35050  Biso   1.000  O
  Cu3      1.0000 0.15696  0.19575  0.58980  Biso   1.000  Cu
  Cu4      1.0000 0.84304  0.80425  0.41020  Biso   1.000  Cu
  O9       1.0000 0.25140  0.42260  0.04720  Biso   1.000  O
  O10      1.0000 0.74860  0.57740  0.95280  Biso   1.000  O
  C21      1.0000 0.14690  0.56880  0.05030  Biso   1.000  C
  C22      1.0000 0.85310  0.43120  0.94970  Biso   1.000  C
  F25      1.0000 0.18910  0.58370  0.97860  Biso   1.000  F
  F26      1.0000 0.81090  0.41630  0.02140  Biso   1.000  F
  F27      1.0000 0.18490  0.60800  0.10350  Biso   1.000  F
  F28      1.0000 0.81510  0.39200  0.89650  Biso   1.000  F
  F29      1.0000 0.04190  0.61300  0.04750  Biso   1.000  F
  F30      1.0000 0.95810  0.38700  0.95250  Biso   1.000  F
  C23      1.0000 0.16470  0.47170  0.07790  Biso   1.000  C
  C24      1.0000 0.83530  0.52830  0.92210  Biso   1.000  C
  C25      1.0000 0.08810  0.44750  0.13410  Biso   1.000  C
  C26      1.0000 0.91190  0.55250  0.86590  Biso   1.000  C
  H5       1.0000 0.03000  0.49100  0.14400  Biso   1.000  H
  H6       1.0000 0.97000  0.50900  0.85600  Biso   1.000  H
  C27      1.0000 0.09500  0.36180  0.16340  Biso   1.000  C
  C28      1.0000 0.90500  0.63820  0.83660  Biso   1.000  C
  C29      1.0000 0.99920  0.34180  0.22100  Biso   1.000  C
  C30      1.0000 0.00080  0.65820  0.77900  Biso   1.000  C
  F31      1.0000 0.91120  0.40870  0.22880  Biso   1.000  F
  F32      1.0000 0.08880  0.59130  0.77120  Biso   1.000  F
  F33      1.0000 0.97010  0.27650  0.20720  Biso   1.000  F
  F34      1.0000 0.02990  0.72350  0.79280  Biso   1.000  F
  F35      1.0000 0.03460  0.32890  0.30100  Biso   1.000  F
  F36      1.0000 0.96540  0.67110  0.69900  Biso   1.000  F
  O11      1.0000 0.17030  0.29540  0.14720  Biso   1.000  O
  O12      1.0000 0.82970  0.70460  0.85280  Biso   1.000  O
  O13      1.0000 0.44050  0.29640  0.00630  Biso   1.000  O
  O14      1.0000 0.55950  0.70360  0.99370  Biso   1.000  O
  C31      1.0000 0.61900  0.24830  0.94470  Biso   1.000  C
  C32      1.0000 0.38100  0.75170  0.05530  Biso   1.000  C
  F37      1.0000 0.67130  0.18190  0.90510  Biso   1.000  F
  F38      1.0000 0.32870  0.81810  0.09490  Biso   1.000  F
  F39      1.0000 0.70030  0.25610  0.98770  Biso   1.000  F
  F40      1.0000 0.29970  0.74390  0.01230  Biso   1.000  F
  F41      1.0000 0.59590  0.30920  0.89260  Biso   1.000  F
  F42      1.0000 0.40410  0.69080  0.10740  Biso   1.000  F
  C33      1.0000 0.52420  0.23060  0.00260  Biso   1.000  C
  C34      1.0000 0.47580  0.76940  0.99740  Biso   1.000  C
  C35      1.0000 0.53850  0.14800  0.04390  Biso   1.000  C
  C36      1.0000 0.46150  0.85200  0.95610  Biso   1.000  C
  H7       1.0000 0.59300  0.10700  0.03800  Biso   1.000  H
  H8       1.0000 0.40700  0.89300  0.96200  Biso   1.000  H
  C37      1.0000 0.45640  0.12700  0.09520  Biso   1.000  C
  C38      1.0000 0.54360  0.87300  0.90480  Biso   1.000  C
  C39      1.0000 0.48600  0.03390  0.14420  Biso   1.000  C
  C40      1.0000 0.51400  0.96610  0.85580  Biso   1.000  C
  F43      1.0000 0.41680  0.99330  0.11450  Biso   1.000  F
  F44      1.0000 0.58320  0.00670  0.88550  Biso   1.000  F
  F45      1.0000 0.45050  0.03300  0.21620  Biso   1.000  F
  F46      1.0000 0.54950  0.96700  0.78380  Biso   1.000  F
  F47      1.0000 0.57630  0.98420  0.12860  Biso   1.000  F
  F48      1.0000 0.42370  0.01580  0.87140  Biso   1.000  F
  O15      1.0000 0.35940  0.17380  0.11410  Biso   1.000  O
  O16      1.0000 0.64060  0.82620  0.88590  Biso   1.000  O
  O17      1.0000 0.42000  0.31300  0.19260  Biso   1.000  O
  O18      1.0000 0.58000  0.68700  0.80740  Biso   1.000  O
  N1       1.0000 0.43820  0.35930  0.25110  Biso   1.000  N
  N2       1.0000 0.56180  0.64070  0.74890  Biso   1.000  N
  C41      1.0000 0.52430  0.41300  0.23560  Biso   1.000  C
  C42      1.0000 0.47570  0.58700  0.76440  Biso   1.000  C
  C43      1.0000 0.50070  0.46610  0.15190  Biso   1.000  C
  C44      1.0000 0.49930  0.53390  0.84810  Biso   1.000  C
  H9       1.0000 0.54500  0.41800  0.11500  Biso   1.000  H
  H10      1.0000 0.45500  0.58200  0.88500  Biso   1.000  H
  H11      1.0000 0.57400  0.50100  0.13800  Biso   1.000  H
  H12      1.0000 0.42600  0.49900  0.86200  Biso   1.000  H
  H13      1.0000 0.42000  0.51100  0.15900  Biso   1.000  H
  H14      1.0000 0.58000  0.48900  0.84100  Biso   1.000  H
  C45      1.0000 0.64070  0.34500  0.23130  Biso   1.000  C
  C46      1.0000 0.35930  0.65500  0.76870  Biso   1.000  C
  H15      1.0000 0.64710  0.31500  0.18030  Biso   1.000  H
  H16      1.0000 0.35290  0.68500  0.81970  Biso   1.000  H
  H17      1.0000 0.64810  0.30310  0.28000  Biso   1.000  H
  H18      1.0000 0.35190  0.69690  0.72000  Biso   1.000  H
  H19      1.0000 0.69940  0.37450  0.23100  Biso   1.000  H
  H20      1.0000 0.30060  0.62550  0.76900  Biso   1.000  H
  C47      1.0000 0.50350  0.46430  0.31670  Biso   1.000  C
  C48      1.0000 0.49650  0.53570  0.68330  Biso   1.000  C
  C49      1.0000 0.41680  0.55390  0.30350  Biso   1.000  C
  C50      1.0000 0.58320  0.44610  0.69650  Biso   1.000  C
  H21      1.0000 0.40780  0.58370  0.35490  Biso   1.000  H
  H22      1.0000 0.59220  0.41630  0.64510  Biso   1.000  H
  H23      1.0000 0.34530  0.54580  0.28950  Biso   1.000  H
  H24      1.0000 0.65470  0.45420  0.71050  Biso   1.000  H
  H25      1.0000 0.44260  0.58860  0.25800  Biso   1.000  H
  H26      1.0000 0.55740  0.41140  0.74200  Biso   1.000  H
  C51      1.0000 0.60660  0.47360  0.35790  Biso   1.000  C
  C52      1.0000 0.39340  0.52640  0.64210  Biso   1.000  C
  H27      1.0000 0.58400  0.50740  0.40650  Biso   1.000  H
  H28      1.0000 0.41600  0.49260  0.59350  Biso   1.000  H
  H29      1.0000 0.64820  0.50290  0.31790  Biso   1.000  H
  H30      1.0000 0.35180  0.49710  0.68210  Biso   1.000  H
  H31      1.0000 0.65370  0.41630  0.37590  Biso   1.000  H
  H32      1.0000 0.34630  0.58370  0.62410  Biso   1.000  H
  N3       1.0000 0.44560  0.40740  0.37360  Biso   1.000  N
  N4       1.0000 0.55440  0.59260  0.62640  Biso   1.000  N
  C53      1.0000 0.40460  0.35270  0.33120  Biso   1.000  C
  C54      1.0000 0.59540  0.64730  0.66880  Biso   1.000  C
  C55      1.0000 0.33990  0.29660  0.36710  Biso   1.000  C
  C56      1.0000 0.66010  0.70340  0.63290  Biso   1.000  C
  C57      1.0000 0.29530  0.29100  0.44780  Biso   1.000  C
  C58      1.0000 0.70470  0.70900  0.55220  Biso   1.000  C
  H33      1.0000 0.29700  0.31600  0.48100  Biso   1.000  H
  H34      1.0000 0.70300  0.68400  0.51900  Biso   1.000  H
  N5       1.0000 0.24100  0.22890  0.46240  Biso   1.000  N
  N6       1.0000 0.75900  0.77110  0.53760  Biso   1.000  N
  N7       1.0000 0.25200  0.19410  0.38580  Biso   1.000  N
  N8       1.0000 0.74800  0.80590  0.61420  Biso   1.000  N
  C59      1.0000 0.20210  0.12160  0.37320  Biso   1.000  C
  C60      1.0000 0.79790  0.87840  0.62680  Biso   1.000  C
  H35      1.0000 0.18640  0.09430  0.42750  Biso   1.000  H
  H36      1.0000 0.81360  0.90570  0.57250  Biso   1.000  H
  H37      1.0000 0.25450  0.07880  0.34100  Biso   1.000  H
  H38      1.0000 0.74550  0.92120  0.65900  Biso   1.000  H
  H39      1.0000 0.13300  0.14440  0.34290  Biso   1.000  H
  H40      1.0000 0.86700  0.85560  0.65710  Biso   1.000  H
  C61      1.0000 0.30960  0.23190  0.32910  Biso   1.000  C
  C62      1.0000 0.69040  0.76810  0.67090  Biso   1.000  C
  H41      1.0000 0.30500  0.22200  0.27300  Biso   1.000  H
  H42      1.0000 0.69500  0.77800  0.72700  Biso   1.000  H
  O19      1.0000 0.42640  0.41940  0.45190  Biso   1.000  O
  O20      1.0000 0.57360  0.58060  0.54810  Biso   1.000  O
  O21      1.0000 0.04440  0.16680  0.72080  Biso   1.000  O
  O22      1.0000 0.95560  0.83320  0.27920  Biso   1.000  O
  N9       1.0000 0.06590  0.10220  0.77810  Biso   1.000  N
  N10      1.0000 0.93410  0.89780  0.22190  Biso   1.000  N
  C63      1.0000 0.01310  0.02740  0.77780  Biso   1.000  C
  C64      1.0000 0.98690  0.97260  0.22220  Biso   1.000  C
  C65      1.0000 0.01780  0.99710  0.68810  Biso   1.000  C
  C66      1.0000 0.98220  0.00290  0.31190  Biso   1.000  C
  H43      1.0000 0.07900  0.99400  0.65900  Biso   1.000  H
  H44      1.0000 0.92100  0.00600  0.34100  Biso   1.000  H
  H45      1.0000 0.96800  0.05000  0.64300  Biso   1.000  H
  H46      1.0000 0.03200  0.95000  0.35700  Biso   1.000  H
  H47      1.0000 0.97900  0.95300  0.70400  Biso   1.000  H
  H48      1.0000 0.02100  0.04700  0.29600  Biso   1.000  H
  C67      1.0000 0.88930  0.06430  0.80990  Biso   1.000  C
  C68      1.0000 0.11070  0.93570  0.19010  Biso   1.000  C
  H49      1.0000 0.87800  0.07700  0.86800  Biso   1.000  H
  H50      1.0000 0.12200  0.92300  0.13200  Biso   1.000  H
  H51      1.0000 0.85600  0.00900  0.81800  Biso   1.000  H
  H52      1.0000 0.14400  0.99100  0.18200  Biso   1.000  H
  H53      1.0000 0.85700  0.09900  0.74900  Biso   1.000  H
  H54      1.0000 0.14300  0.90100  0.25100  Biso   1.000  H
  C69      1.0000 0.08750  0.95890  0.84360  Biso   1.000  C
  C70      1.0000 0.91250  0.04110  0.15640  Biso   1.000  C
  C71      1.0000 0.19510  0.90380  0.80090  Biso   1.000  C
  C72      1.0000 0.80490  0.09620  0.19910  Biso   1.000  C
  H55      1.0000 0.22000  0.94000  0.72200  Biso   1.000  H
  H56      1.0000 0.78000  0.06000  0.27800  Biso   1.000  H
  H57      1.0000 0.16600  0.85600  0.77200  Biso   1.000  H
  H58      1.0000 0.83400  0.14400  0.22800  Biso   1.000  H
  H59      1.0000 0.22600  0.87200  0.83900  Biso   1.000  H
  H60      1.0000 0.77400  0.12800  0.16100  Biso   1.000  H
  C73      1.0000 0.02840  0.90400  0.90390  Biso   1.000  C
  C74      1.0000 0.97160  0.09600  0.09610  Biso   1.000  C
  H61      1.0000 0.07000  0.86800  0.94600  Biso   1.000  H
  H62      1.0000 0.93000  0.13200  0.05400  Biso   1.000  H
  H63      1.0000 0.00700  0.86200  0.87800  Biso   1.000  H
  H64      1.0000 0.99300  0.13800  0.12200  Biso   1.000  H
  H65      1.0000 0.94800  0.94600  0.91800  Biso   1.000  H
  H66      1.0000 0.05200  0.05400  0.08200  Biso   1.000  H
  N11      1.0000 0.12940  0.02120  0.89290  Biso   1.000  N
  N12      1.0000 0.87060  0.97880  0.10710  Biso   1.000  N
  O23      1.0000 0.18020  0.99620  0.96330  Biso   1.000  O
  O24      1.0000 0.81980  0.00380  0.03670  Biso   1.000  O
  C75      1.0000 0.11910  0.09950  0.85040  Biso   1.000  C
  C76      1.0000 0.88090  0.90050  0.14960  Biso   1.000  C
  C77      1.0000 0.15930  0.17040  0.87530  Biso   1.000  C
  C78      1.0000 0.84070  0.82960  0.12470  Biso   1.000  C
  C79      1.0000 0.20310  0.17810  0.95330  Biso   1.000  C
  C80      1.0000 0.79690  0.82190  0.04670  Biso   1.000  C
  H67      1.0000 0.21200  0.13800  0.99700  Biso   1.000  H
  H68      1.0000 0.78800  0.86200  0.00300  Biso   1.000  H
  N13      1.0000 0.23140  0.25320  0.95510  Biso   1.000  N
  N14      1.0000 0.76860  0.74680  0.04490  Biso   1.000  N
  N15      1.0000 0.20530  0.29440  0.87620  Biso   1.000  N
  N16      1.0000 0.79470  0.70560  0.12380  Biso   1.000  N
  C81      1.0000 0.23240  0.37850  0.85410  Biso   1.000  C
  C82      1.0000 0.76760  0.62150  0.14590  Biso   1.000  C
  H69      1.0000 0.26300  0.39560  0.90260  Biso   1.000  H
  H70      1.0000 0.73700  0.60440  0.09740  Biso   1.000  H
  H71      1.0000 0.16480  0.42290  0.83740  Biso   1.000  H
  H72      1.0000 0.83520  0.57710  0.16260  Biso   1.000  H
  H73      1.0000 0.28720  0.37200  0.80780  Biso   1.000  H
  H74      1.0000 0.71280  0.62800  0.19220  Biso   1.000  H
  C83      1.0000 0.16220  0.24740  0.82850  Biso   1.000  C
  C84      1.0000 0.83780  0.75260  0.17150  Biso   1.000  C
  H75      1.0000 0.13500  0.27100  0.77400  Biso   1.000  H
  H76      1.0000 0.86500  0.72900  0.22600  Biso   1.000  H
