data_image0
_cell_length_a       12.3044
_cell_length_b       16.188
_cell_length_c       15.6103
_cell_angle_alpha    90
_cell_angle_beta     108.424
_cell_angle_gamma    90

_symmetry_space_group_name_H-M    "P 1"
_symmetry_int_tables_number       1

loop_
  _symmetry_equiv_pos_as_xyz
  'x, y, z'

loop_
  _atom_site_label
  _atom_site_occupancy
  _atom_site_fract_x
  _atom_site_fract_y
  _atom_site_fract_z
  _atom_site_thermal_displace_type
  _atom_site_B_iso_or_equiv
  _atom_site_type_symbol
  Cu1      1.0000 0.67966  0.07307  0.79437  Biso   1.000  Cu
  Cu2      1.0000 0.82034  0.57307  0.70563  Biso   1.000  Cu
  Cu3      1.0000 0.32034  0.92693  0.20563  Biso   1.000  Cu
  Cu4      1.0000 0.17966  0.42693  0.29437  Biso   1.000  Cu
  O1       1.0000 0.54071  0.01545  0.79501  Biso   1.000  O
  O2       1.0000 0.95929  0.51545  0.70499  Biso   1.000  O
  O3       1.0000 0.45929  0.98455  0.20499  Biso   1.000  O
  O4       1.0000 0.04071  0.48455  0.29501  Biso   1.000  O
  C1       1.0000 0.35350  0.96660  0.75060  Biso   1.000  C
  C2       1.0000 0.14650  0.46660  0.74940  Biso   1.000  C
  C3       1.0000 0.64650  0.03340  0.24940  Biso   1.000  C
  C4       1.0000 0.85350  0.53340  0.25060  Biso   1.000  C
  F1       1.0000 0.35690  0.98160  0.84030  Biso   1.000  F
  F2       1.0000 0.14310  0.48160  0.65970  Biso   1.000  F
  F3       1.0000 0.64310  0.01840  0.15970  Biso   1.000  F
  F4       1.0000 0.85690  0.51840  0.34030  Biso   1.000  F
  F5       1.0000 0.25390  0.98690  0.70730  Biso   1.000  F
  F6       1.0000 0.24610  0.48690  0.79270  Biso   1.000  F
  F7       1.0000 0.74610  0.01310  0.29270  Biso   1.000  F
  F8       1.0000 0.75390  0.51310  0.20730  Biso   1.000  F
  F9       1.0000 0.36120  0.88790  0.74500  Biso   1.000  F
  F10      1.0000 0.13880  0.38790  0.75500  Biso   1.000  F
  F11      1.0000 0.63880  0.11210  0.25500  Biso   1.000  F
  F12      1.0000 0.86120  0.61210  0.24500  Biso   1.000  F
  C5       1.0000 0.44960  0.01500  0.73000  Biso   1.000  C
  C6       1.0000 0.05040  0.51500  0.77000  Biso   1.000  C
  C7       1.0000 0.55040  0.98500  0.27000  Biso   1.000  C
  C8       1.0000 0.94960  0.48500  0.23000  Biso   1.000  C
  C9       1.0000 0.42800  0.05190  0.64720  Biso   1.000  C
  C10      1.0000 0.07200  0.55190  0.85280  Biso   1.000  C
  C11      1.0000 0.57200  0.94810  0.35280  Biso   1.000  C
  C12      1.0000 0.92800  0.44810  0.14720  Biso   1.000  C
  H1       1.0000 0.35460  0.04910  0.60600  Biso   1.000  H
  H2       1.0000 0.14540  0.54910  0.89400  Biso   1.000  H
  H3       1.0000 0.64540  0.95090  0.39400  Biso   1.000  H
  H4       1.0000 0.85460  0.45090  0.10600  Biso   1.000  H
  C13      1.0000 0.51260  0.09320  0.62310  Biso   1.000  C
  C14      1.0000 0.98740  0.59320  0.87690  Biso   1.000  C
  C15      1.0000 0.48740  0.90680  0.37690  Biso   1.000  C
  C16      1.0000 0.01260  0.40680  0.12310  Biso   1.000  C
  C17      1.0000 0.48040  0.13420  0.52890  Biso   1.000  C
  C18      1.0000 0.01960  0.63420  0.97110  Biso   1.000  C
  C19      1.0000 0.51960  0.86580  0.47110  Biso   1.000  C
  C20      1.0000 0.98040  0.36580  0.02890  Biso   1.000  C
  F13      1.0000 0.37690  0.17420  0.50670  Biso   1.000  F
  F14      1.0000 0.12310  0.67420  0.99330  Biso   1.000  F
  F15      1.0000 0.62310  0.82580  0.49330  Biso   1.000  F
  F16      1.0000 0.87690  0.32580  0.00670  Biso   1.000  F
  F17      1.0000 0.54990  0.19710  0.52830  Biso   1.000  F
  F18      1.0000 0.95010  0.69710  0.97170  Biso   1.000  F
  F19      1.0000 0.45010  0.80290  0.47170  Biso   1.000  F
  F20      1.0000 0.04990  0.30290  0.02830  Biso   1.000  F
  F21      1.0000 0.47100  0.08330  0.46550  Biso   1.000  F
  F22      1.0000 0.02900  0.58330  0.03450  Biso   1.000  F
  F23      1.0000 0.52900  0.91670  0.53450  Biso   1.000  F
  F24      1.0000 0.97100  0.41670  0.96550  Biso   1.000  F
  O5       1.0000 0.61379  0.10410  0.66873  Biso   1.000  O
  O6       1.0000 0.88621  0.60410  0.83127  Biso   1.000  O
  O7       1.0000 0.38621  0.89590  0.33127  Biso   1.000  O
  O8       1.0000 0.11379  0.39590  0.16873  Biso   1.000  O
  O9       1.0000 0.81460  0.13430  0.78898  Biso   1.000  O
  O10      1.0000 0.68540  0.63430  0.71102  Biso   1.000  O
  O11      1.0000 0.18540  0.86570  0.21102  Biso   1.000  O
  O12      1.0000 0.31460  0.36570  0.28898  Biso   1.000  O
  C21      1.0000 0.99910  0.18880  0.82740  Biso   1.000  C
  C22      1.0000 0.50090  0.68880  0.67260  Biso   1.000  C
  C23      1.0000 0.00090  0.81120  0.17260  Biso   1.000  C
  C24      1.0000 0.49910  0.31120  0.32740  Biso   1.000  C
  F25      1.0000 0.10400  0.18720  0.89240  Biso   1.000  F
  F26      1.0000 0.39600  0.68720  0.60760  Biso   1.000  F
  F27      1.0000 0.89600  0.81280  0.10760  Biso   1.000  F
  F28      1.0000 0.60400  0.31280  0.39240  Biso   1.000  F
  F29      1.0000 0.00770  0.16660  0.75460  Biso   1.000  F
  F30      1.0000 0.49230  0.66660  0.74540  Biso   1.000  F
  F31      1.0000 0.99230  0.83340  0.24540  Biso   1.000  F
  F32      1.0000 0.50770  0.33340  0.25460  Biso   1.000  F
  F33      1.0000 0.96250  0.27420  0.81860  Biso   1.000  F
  F34      1.0000 0.53750  0.77420  0.68140  Biso   1.000  F
  F35      1.0000 0.03750  0.72580  0.18140  Biso   1.000  F
  F36      1.0000 0.46250  0.22580  0.31860  Biso   1.000  F
  C25      1.0000 0.90470  0.14490  0.85360  Biso   1.000  C
  C26      1.0000 0.59530  0.64490  0.64640  Biso   1.000  C
  C27      1.0000 0.09530  0.85510  0.14640  Biso   1.000  C
  C28      1.0000 0.40470  0.35510  0.35360  Biso   1.000  C
  C29      1.0000 0.92420  0.12280  0.94220  Biso   1.000  C
  C30      1.0000 0.57580  0.62280  0.55780  Biso   1.000  C
  C31      1.0000 0.07580  0.87720  0.05780  Biso   1.000  C
  C32      1.0000 0.42420  0.37720  0.44220  Biso   1.000  C
  H5       1.0000 0.99520  0.13420  0.98410  Biso   1.000  H
  H6       1.0000 0.50480  0.63420  0.51590  Biso   1.000  H
  H7       1.0000 0.00480  0.86580  0.01590  Biso   1.000  H
  H8       1.0000 0.49520  0.36580  0.48410  Biso   1.000  H
  C33      1.0000 0.84250  0.08430  0.97070  Biso   1.000  C
  C34      1.0000 0.65750  0.58430  0.52930  Biso   1.000  C
  C35      1.0000 0.15750  0.91570  0.02930  Biso   1.000  C
  C36      1.0000 0.34250  0.41570  0.47070  Biso   1.000  C
  C37      1.0000 0.87110  0.06580  0.07150  Biso   1.000  C
  C38      1.0000 0.62890  0.56580  0.42850  Biso   1.000  C
  C39      1.0000 0.12890  0.93420  0.92850  Biso   1.000  C
  C40      1.0000 0.37110  0.43420  0.57150  Biso   1.000  C
  F37      1.0000 0.98180  0.06154  0.11446  Biso   1.000  F
  F38      1.0000 0.51820  0.56154  0.38554  Biso   1.000  F
  F39      1.0000 0.01820  0.93846  0.88554  Biso   1.000  F
  F40      1.0000 0.48180  0.43846  0.61446  Biso   1.000  F
  F41      1.0000 0.83370  0.99250  0.08555  Biso   1.000  F
  F42      1.0000 0.66630  0.49250  0.41445  Biso   1.000  F
  F43      1.0000 0.16630  0.00750  0.91445  Biso   1.000  F
  F44      1.0000 0.33370  0.50750  0.58555  Biso   1.000  F
  F45      1.0000 0.82550  0.11822  0.11095  Biso   1.000  F
  F46      1.0000 0.67450  0.61822  0.38905  Biso   1.000  F
  F47      1.0000 0.17450  0.88178  0.88905  Biso   1.000  F
  F48      1.0000 0.32550  0.38178  0.61095  Biso   1.000  F
  O13      1.0000 0.74428  0.06182  0.92577  Biso   1.000  O
  O14      1.0000 0.75572  0.56182  0.57423  Biso   1.000  O
  O15      1.0000 0.25572  0.93818  0.07423  Biso   1.000  O
  O16      1.0000 0.24428  0.43818  0.42577  Biso   1.000  O
  O17      1.0000 0.87220  0.94240  0.53515  Biso   1.000  O
  O18      1.0000 0.62780  0.44240  0.96485  Biso   1.000  O
  O19      1.0000 0.12780  0.05760  0.46485  Biso   1.000  O
  O20      1.0000 0.37220  0.55760  0.03515  Biso   1.000  O
  N1       1.0000 0.90890  0.86950  0.56000  Biso   1.000  N
  N2       1.0000 0.59110  0.36950  0.94000  Biso   1.000  N
  N3       1.0000 0.09110  0.13050  0.44000  Biso   1.000  N
  N4       1.0000 0.40890  0.63050  0.06000  Biso   1.000  N
  C41      1.0000 0.96040  0.81600  0.50470  Biso   1.000  C
  C42      1.0000 0.53960  0.31600  0.99530  Biso   1.000  C
  C43      1.0000 0.03960  0.18400  0.49530  Biso   1.000  C
  C44      1.0000 0.46040  0.68400  0.00470  Biso   1.000  C
  C45      1.0000 0.86080  0.79170  0.42070  Biso   1.000  C
  C46      1.0000 0.63920  0.29170  0.07930  Biso   1.000  C
  C47      1.0000 0.13920  0.20830  0.57930  Biso   1.000  C
  C48      1.0000 0.36080  0.70830  0.92070  Biso   1.000  C
  H9       1.0000 0.88890  0.75710  0.38250  Biso   1.000  H
  H10      1.0000 0.61110  0.25710  0.11750  Biso   1.000  H
  H11      1.0000 0.11110  0.24290  0.61750  Biso   1.000  H
  H12      1.0000 0.38890  0.74290  0.88250  Biso   1.000  H
  H13      1.0000 0.80400  0.76230  0.43890  Biso   1.000  H
  H14      1.0000 0.69600  0.26230  0.06110  Biso   1.000  H
  H15      1.0000 0.19600  0.23770  0.56110  Biso   1.000  H
  H16      1.0000 0.30400  0.73770  0.93890  Biso   1.000  H
  H17      1.0000 0.82720  0.84060  0.38830  Biso   1.000  H
  H18      1.0000 0.67280  0.34060  0.11170  Biso   1.000  H
  H19      1.0000 0.17280  0.15940  0.61170  Biso   1.000  H
  H20      1.0000 0.32720  0.65940  0.88830  Biso   1.000  H
  C49      1.0000 0.05140  0.86450  0.47920  Biso   1.000  C
  C50      1.0000 0.44860  0.36450  0.02080  Biso   1.000  C
  C51      1.0000 0.94860  0.13550  0.52080  Biso   1.000  C
  C52      1.0000 0.55140  0.63550  0.97920  Biso   1.000  C
  H21      1.0000 0.08440  0.83020  0.44370  Biso   1.000  H
  H22      1.0000 0.41560  0.33020  0.05630  Biso   1.000  H
  H23      1.0000 0.91560  0.16980  0.55630  Biso   1.000  H
  H24      1.0000 0.58440  0.66980  0.94370  Biso   1.000  H
  H25      1.0000 0.01710  0.91230  0.44470  Biso   1.000  H
  H26      1.0000 0.48290  0.41230  0.05530  Biso   1.000  H
  H27      1.0000 0.98290  0.08770  0.55530  Biso   1.000  H
  H28      1.0000 0.51710  0.58770  0.94470  Biso   1.000  H
  H29      1.0000 0.11010  0.88170  0.53300  Biso   1.000  H
  H30      1.0000 0.38990  0.38170  0.96700  Biso   1.000  H
  H31      1.0000 0.88990  0.11830  0.46700  Biso   1.000  H
  H32      1.0000 0.61010  0.61830  0.03300  Biso   1.000  H
  C53      1.0000 0.00630  0.74300  0.57110  Biso   1.000  C
  C54      1.0000 0.49370  0.24300  0.92890  Biso   1.000  C
  C55      1.0000 0.99370  0.25700  0.42890  Biso   1.000  C
  C56      1.0000 0.50630  0.75700  0.07110  Biso   1.000  C
  C57      1.0000 0.99060  0.65780  0.52920  Biso   1.000  C
  C58      1.0000 0.50940  0.15780  0.97080  Biso   1.000  C
  C59      1.0000 0.00940  0.34220  0.47080  Biso   1.000  C
  C60      1.0000 0.49060  0.84220  0.02920  Biso   1.000  C
  H33      1.0000 0.03730  0.65260  0.49040  Biso   1.000  H
  H34      1.0000 0.46270  0.15260  0.00960  Biso   1.000  H
  H35      1.0000 0.96270  0.34740  0.50960  Biso   1.000  H
  H36      1.0000 0.53730  0.84740  0.99040  Biso   1.000  H
  H37      1.0000 0.01300  0.61690  0.57600  Biso   1.000  H
  H38      1.0000 0.48700  0.11690  0.92400  Biso   1.000  H
  H39      1.0000 0.98700  0.38310  0.42400  Biso   1.000  H
  H40      1.0000 0.51300  0.88310  0.07600  Biso   1.000  H
  H41      1.0000 0.91160  0.64990  0.49450  Biso   1.000  H
  H42      1.0000 0.58840  0.14990  0.00550  Biso   1.000  H
  H43      1.0000 0.08840  0.35010  0.50550  Biso   1.000  H
  H44      1.0000 0.41160  0.85010  0.99450  Biso   1.000  H
  C61      1.0000 0.12930  0.75470  0.63320  Biso   1.000  C
  C62      1.0000 0.37070  0.25470  0.86680  Biso   1.000  C
  C63      1.0000 0.87070  0.24530  0.36680  Biso   1.000  C
  C64      1.0000 0.62930  0.74530  0.13320  Biso   1.000  C
  H45      1.0000 0.18110  0.74950  0.59860  Biso   1.000  H
  H46      1.0000 0.31890  0.24950  0.90140  Biso   1.000  H
  H47      1.0000 0.81890  0.25050  0.40140  Biso   1.000  H
  H48      1.0000 0.68110  0.75050  0.09860  Biso   1.000  H
  H49      1.0000 0.13720  0.80850  0.66020  Biso   1.000  H
  H50      1.0000 0.36280  0.30850  0.83980  Biso   1.000  H
  H51      1.0000 0.86280  0.19150  0.33980  Biso   1.000  H
  H52      1.0000 0.63720  0.69150  0.16020  Biso   1.000  H
  H53      1.0000 0.14680  0.71340  0.67970  Biso   1.000  H
  H54      1.0000 0.35320  0.21340  0.82030  Biso   1.000  H
  H55      1.0000 0.85320  0.28660  0.32030  Biso   1.000  H
  H56      1.0000 0.64680  0.78660  0.17970  Biso   1.000  H
  N5       1.0000 0.93410  0.75234  0.63189  Biso   1.000  N
  N6       1.0000 0.56590  0.25234  0.86811  Biso   1.000  N
  N7       1.0000 0.06590  0.24766  0.36811  Biso   1.000  N
  N8       1.0000 0.43410  0.74766  0.13189  Biso   1.000  N
  O21      1.0000 0.93214  0.69699  0.69066  Biso   1.000  O
  O22      1.0000 0.56786  0.19699  0.80934  Biso   1.000  O
  O23      1.0000 0.06786  0.30301  0.30934  Biso   1.000  O
  O24      1.0000 0.43214  0.80301  0.19066  Biso   1.000  O
  C65      1.0000 0.89080  0.82830  0.62940  Biso   1.000  C
  C66      1.0000 0.60920  0.32830  0.87060  Biso   1.000  C
  C67      1.0000 0.10920  0.17170  0.37060  Biso   1.000  C
  C68      1.0000 0.39080  0.67170  0.12940  Biso   1.000  C
  C69      1.0000 0.83680  0.86060  0.69015  Biso   1.000  C
  C70      1.0000 0.66320  0.36060  0.80985  Biso   1.000  C
  C71      1.0000 0.16320  0.13940  0.30985  Biso   1.000  C
  C72      1.0000 0.33680  0.63940  0.19015  Biso   1.000  C
  C73      1.0000 0.79850  0.94180  0.69620  Biso   1.000  C
  C74      1.0000 0.70150  0.44180  0.80380  Biso   1.000  C
  C75      1.0000 0.20150  0.05820  0.30380  Biso   1.000  C
  C76      1.0000 0.29850  0.55820  0.19620  Biso   1.000  C
  H57      1.0000 0.80300  0.98440  0.65740  Biso   1.000  H
  H58      1.0000 0.69700  0.48440  0.84260  Biso   1.000  H
  H59      1.0000 0.19700  0.01560  0.34260  Biso   1.000  H
  H60      1.0000 0.30300  0.51560  0.15740  Biso   1.000  H
  N9       1.0000 0.75560  0.95033  0.76336  Biso   1.000  N
  N10      1.0000 0.74440  0.45033  0.73664  Biso   1.000  N
  N11      1.0000 0.24440  0.04967  0.23664  Biso   1.000  N
  N12      1.0000 0.25560  0.54967  0.26336  Biso   1.000  N
  N13      1.0000 0.76410  0.87366  0.80040  Biso   1.000  N
  N14      1.0000 0.73590  0.37366  0.69960  Biso   1.000  N
  N15      1.0000 0.23590  0.12634  0.19960  Biso   1.000  N
  N16      1.0000 0.26410  0.62634  0.30040  Biso   1.000  N
  C77      1.0000 0.72230  0.85860  0.87600  Biso   1.000  C
  C78      1.0000 0.77770  0.35860  0.62400  Biso   1.000  C
  C79      1.0000 0.27770  0.14140  0.12400  Biso   1.000  C
  C80      1.0000 0.22230  0.64140  0.37600  Biso   1.000  C
  H61      1.0000 0.69210  0.90890  0.89180  Biso   1.000  H
  H62      1.0000 0.80790  0.40890  0.60820  Biso   1.000  H
  H63      1.0000 0.30790  0.09110  0.10820  Biso   1.000  H
  H64      1.0000 0.19210  0.59110  0.39180  Biso   1.000  H
  H65      1.0000 0.66310  0.81750  0.85950  Biso   1.000  H
  H66      1.0000 0.83690  0.31750  0.64050  Biso   1.000  H
  H67      1.0000 0.33690  0.18250  0.14050  Biso   1.000  H
  H68      1.0000 0.16310  0.68250  0.35950  Biso   1.000  H
  H69      1.0000 0.78420  0.83940  0.92670  Biso   1.000  H
  H70      1.0000 0.71580  0.33940  0.57330  Biso   1.000  H
  H71      1.0000 0.21580  0.16060  0.07330  Biso   1.000  H
  H72      1.0000 0.28420  0.66060  0.42670  Biso   1.000  H
  C81      1.0000 0.81190  0.81990  0.75900  Biso   1.000  C
  C82      1.0000 0.68810  0.31990  0.74100  Biso   1.000  C
  C83      1.0000 0.18810  0.18010  0.24100  Biso   1.000  C
  C84      1.0000 0.31190  0.68010  0.25900  Biso   1.000  C
  H73      1.0000 0.82610  0.76440  0.77390  Biso   1.000  H
  H74      1.0000 0.67390  0.26440  0.72610  Biso   1.000  H
  H75      1.0000 0.17390  0.23560  0.22610  Biso   1.000  H
  H76      1.0000 0.32610  0.73560  0.27390  Biso   1.000  H
  F49      1.0000 0.38390  0.90870  0.79750  Biso   1.000  F
  F50      1.0000 0.11610  0.40870  0.70250  Biso   1.000  F
  F51      1.0000 0.61610  0.09130  0.20250  Biso   1.000  F
  F52      1.0000 0.88390  0.59130  0.29750  Biso   1.000  F
  F53      1.0000 0.29420  0.02180  0.77600  Biso   1.000  F
  F54      1.0000 0.20580  0.52180  0.72400  Biso   1.000  F
  F55      1.0000 0.70580  0.97820  0.22400  Biso   1.000  F
  F56      1.0000 0.79420  0.47820  0.27600  Biso   1.000  F
  F57      1.0000 0.27700  0.94100  0.67060  Biso   1.000  F
  F58      1.0000 0.22300  0.44100  0.82940  Biso   1.000  F
  F59      1.0000 0.72300  0.05900  0.32940  Biso   1.000  F
  F60      1.0000 0.77700  0.55900  0.17060  Biso   1.000  F
  F61      1.0000 0.40300  0.09600  0.47210  Biso   1.000  F
  F62      1.0000 0.09700  0.59600  0.02790  Biso   1.000  F
  F63      1.0000 0.59700  0.90400  0.52790  Biso   1.000  F
  F64      1.0000 0.90300  0.40400  0.97210  Biso   1.000  F
  F65      1.0000 0.46200  0.20460  0.53480  Biso   1.000  F
  F66      1.0000 0.03800  0.70460  0.96520  Biso   1.000  F
  F67      1.0000 0.53800  0.79540  0.46520  Biso   1.000  F
  F68      1.0000 0.96200  0.29540  0.03480  Biso   1.000  F
  F69      1.0000 0.56600  0.12290  0.49690  Biso   1.000  F
  F70      1.0000 0.93400  0.62290  0.00310  Biso   1.000  F
  F71      1.0000 0.43400  0.87710  0.50310  Biso   1.000  F
  F72      1.0000 0.06600  0.37710  0.99690  Biso   1.000  F
  F73      1.0000 0.08900  0.20180  0.89330  Biso   1.000  F
  F74      1.0000 0.41100  0.70180  0.60670  Biso   1.000  F
  F75      1.0000 0.91100  0.79820  0.10670  Biso   1.000  F
  F76      1.0000 0.58900  0.29820  0.39330  Biso   1.000  F
  F77      1.0000 0.03760  0.13390  0.77290  Biso   1.000  F
  F78      1.0000 0.46240  0.63390  0.72710  Biso   1.000  F
  F79      1.0000 0.96240  0.86610  0.22710  Biso   1.000  F
  F80      1.0000 0.53760  0.36610  0.27290  Biso   1.000  F
  F81      1.0000 0.97450  0.25000  0.78000  Biso   1.000  F
  F82      1.0000 0.52550  0.75000  0.72000  Biso   1.000  F
  F83      1.0000 0.02550  0.75000  0.22000  Biso   1.000  F
  F84      1.0000 0.47450  0.25000  0.28000  Biso   1.000  F
