data_image0
_cell_length_a       12.286
_cell_length_b       16.227
_cell_length_c       15.628
_cell_angle_alpha    90
_cell_angle_beta     108.448
_cell_angle_gamma    90

_symmetry_space_group_name_H-M    "P 1"
_symmetry_int_tables_number       1

loop_
  _symmetry_equiv_pos_as_xyz
  'x, y, z'

loop_
  _atom_site_label
  _atom_site_occupancy
  _atom_site_fract_x
  _atom_site_fract_y
  _atom_site_fract_z
  _atom_site_thermal_displace_type
  _atom_site_B_iso_or_equiv
  _atom_site_type_symbol
  Cu1      1.0000 0.82021  0.07317  0.70565  Biso   1.000  Cu
  Cu2      1.0000 0.67979  0.57317  0.79435  Biso   1.000  Cu
  Cu3      1.0000 0.17979  0.92683  0.29435  Biso   1.000  Cu
  Cu4      1.0000 0.32021  0.42683  0.20565  Biso   1.000  Cu
  O1       1.0000 0.88600  0.10380  0.83160  Biso   1.000  O
  O2       1.0000 0.61400  0.60380  0.66840  Biso   1.000  O
  O3       1.0000 0.11400  0.89620  0.16840  Biso   1.000  O
  O4       1.0000 0.38600  0.39620  0.33160  Biso   1.000  O
  C1       1.0000 0.01940  0.13490  0.97050  Biso   1.000  C
  C2       1.0000 0.48060  0.63490  0.52950  Biso   1.000  C
  C3       1.0000 0.98060  0.86510  0.02950  Biso   1.000  C
  C4       1.0000 0.51940  0.36510  0.47050  Biso   1.000  C
  F1       1.0000 0.03800  0.08430  0.03580  Biso   1.000  F
  F2       1.0000 0.46200  0.58430  0.46420  Biso   1.000  F
  F3       1.0000 0.96200  0.91570  0.96420  Biso   1.000  F
  F4       1.0000 0.53800  0.41570  0.53580  Biso   1.000  F
  F5       1.0000 0.12300  0.17490  0.99390  Biso   1.000  F
  F6       1.0000 0.37700  0.67490  0.50610  Biso   1.000  F
  F7       1.0000 0.87700  0.82510  0.00610  Biso   1.000  F
  F8       1.0000 0.62300  0.32510  0.49390  Biso   1.000  F
  F9       1.0000 0.95000  0.19560  0.97230  Biso   1.000  F
  F10      1.0000 0.55000  0.69560  0.52770  Biso   1.000  F
  F11      1.0000 0.05000  0.80440  0.02770  Biso   1.000  F
  F12      1.0000 0.45000  0.30440  0.47230  Biso   1.000  F
  C5       1.0000 0.98810  0.09330  0.87720  Biso   1.000  C
  C6       1.0000 0.51190  0.59330  0.62280  Biso   1.000  C
  C7       1.0000 0.01190  0.90670  0.12280  Biso   1.000  C
  C8       1.0000 0.48810  0.40670  0.37720  Biso   1.000  C
  C9       1.0000 0.07230  0.05200  0.85340  Biso   1.000  C
  C10      1.0000 0.42770  0.55200  0.64660  Biso   1.000  C
  C11      1.0000 0.92770  0.94800  0.14660  Biso   1.000  C
  C12      1.0000 0.57230  0.44800  0.35340  Biso   1.000  C
  H1       1.0000 0.14580  0.04890  0.89460  Biso   1.000  H
  H2       1.0000 0.35420  0.54890  0.60540  Biso   1.000  H
  H3       1.0000 0.85420  0.95110  0.10540  Biso   1.000  H
  H4       1.0000 0.64580  0.45110  0.39460  Biso   1.000  H
  C13      1.0000 0.05060  0.01510  0.77000  Biso   1.000  C
  C14      1.0000 0.44940  0.51510  0.73000  Biso   1.000  C
  C15      1.0000 0.94940  0.98490  0.23000  Biso   1.000  C
  C16      1.0000 0.55060  0.48490  0.27000  Biso   1.000  C
  F13      1.0000 0.17800  0.01400  0.68900  Biso   1.000  F
  F14      1.0000 0.32200  0.51400  0.81100  Biso   1.000  F
  F15      1.0000 0.82200  0.98600  0.31100  Biso   1.000  F
  F16      1.0000 0.67800  0.48600  0.18900  Biso   1.000  F
  F17      1.0000 0.23900  0.96200  0.82020  Biso   1.000  F
  F18      1.0000 0.26100  0.46200  0.67980  Biso   1.000  F
  F19      1.0000 0.76100  0.03800  0.17980  Biso   1.000  F
  F20      1.0000 0.73900  0.53800  0.32020  Biso   1.000  F
  F21      1.0000 0.12170  0.89770  0.71890  Biso   1.000  F
  F22      1.0000 0.37830  0.39770  0.78110  Biso   1.000  F
  F23      1.0000 0.87830  0.10230  0.28110  Biso   1.000  F
  F24      1.0000 0.62170  0.60230  0.21890  Biso   1.000  F
  O5       1.0000 0.95950  0.01540  0.70500  Biso   1.000  O
  O6       1.0000 0.54050  0.51540  0.79500  Biso   1.000  O
  O7       1.0000 0.04050  0.98460  0.29500  Biso   1.000  O
  O8       1.0000 0.45950  0.48460  0.20500  Biso   1.000  O
  O9       1.0000 0.68470  0.13440  0.71100  Biso   1.000  O
  O10      1.0000 0.81530  0.63440  0.78900  Biso   1.000  O
  O11      1.0000 0.31530  0.86560  0.28900  Biso   1.000  O
  O12      1.0000 0.18470  0.36560  0.21100  Biso   1.000  O
  C17      1.0000 0.14860  0.96900  0.74940  Biso   1.000  C
  C18      1.0000 0.35140  0.46900  0.75060  Biso   1.000  C
  C19      1.0000 0.85140  0.03100  0.25060  Biso   1.000  C
  C20      1.0000 0.64860  0.53100  0.24940  Biso   1.000  C
  C21      1.0000 0.50110  0.18900  0.67240  Biso   1.000  C
  C22      1.0000 0.99890  0.68900  0.82760  Biso   1.000  C
  C23      1.0000 0.49890  0.81100  0.32760  Biso   1.000  C
  C24      1.0000 0.00110  0.31100  0.17240  Biso   1.000  C
  F25      1.0000 0.49300  0.16740  0.74380  Biso   1.000  F
  F26      1.0000 0.00700  0.66740  0.75620  Biso   1.000  F
  F27      1.0000 0.50700  0.83260  0.25620  Biso   1.000  F
  F28      1.0000 0.99300  0.33260  0.24380  Biso   1.000  F
  F29      1.0000 0.53640  0.27390  0.68310  Biso   1.000  F
  F30      1.0000 0.96360  0.77390  0.81690  Biso   1.000  F
  F31      1.0000 0.46360  0.72610  0.31690  Biso   1.000  F
  F32      1.0000 0.03640  0.22610  0.18310  Biso   1.000  F
  F33      1.0000 0.40000  0.18500  0.61200  Biso   1.000  F
  F34      1.0000 0.10000  0.68500  0.88800  Biso   1.000  F
  F35      1.0000 0.60000  0.81500  0.38800  Biso   1.000  F
  F36      1.0000 0.90000  0.31500  0.11200  Biso   1.000  F
  C25      1.0000 0.59540  0.14470  0.64640  Biso   1.000  C
  C26      1.0000 0.90460  0.64470  0.85360  Biso   1.000  C
  C27      1.0000 0.40460  0.85530  0.35360  Biso   1.000  C
  C28      1.0000 0.09540  0.35530  0.14640  Biso   1.000  C
  C29      1.0000 0.57540  0.12240  0.55760  Biso   1.000  C
  C30      1.0000 0.92460  0.62240  0.94240  Biso   1.000  C
  C31      1.0000 0.42460  0.87760  0.44240  Biso   1.000  C
  C32      1.0000 0.07540  0.37760  0.05760  Biso   1.000  C
  H5       1.0000 0.50420  0.13390  0.51580  Biso   1.000  H
  H6       1.0000 0.99580  0.63390  0.98420  Biso   1.000  H
  H7       1.0000 0.49580  0.86610  0.48420  Biso   1.000  H
  H8       1.0000 0.00420  0.36610  0.01580  Biso   1.000  H
  C33      1.0000 0.65740  0.08370  0.52830  Biso   1.000  C
  C34      1.0000 0.84260  0.58370  0.97170  Biso   1.000  C
  C35      1.0000 0.34260  0.91630  0.47170  Biso   1.000  C
  C36      1.0000 0.15740  0.41630  0.02830  Biso   1.000  C
  C37      1.0000 0.62960  0.06540  0.42760  Biso   1.000  C
  C38      1.0000 0.87040  0.56540  0.07240  Biso   1.000  C
  C39      1.0000 0.37040  0.93460  0.57240  Biso   1.000  C
  C40      1.0000 0.12960  0.43460  0.92760  Biso   1.000  C
  F37      1.0000 0.68330  0.11110  0.38940  Biso   1.000  F
  F38      1.0000 0.81670  0.61110  0.11060  Biso   1.000  F
  F39      1.0000 0.31670  0.88890  0.61060  Biso   1.000  F
  F40      1.0000 0.18330  0.38890  0.88940  Biso   1.000  F
  F41      1.0000 0.65820  0.98920  0.41480  Biso   1.000  F
  F42      1.0000 0.84180  0.48920  0.08520  Biso   1.000  F
  F43      1.0000 0.34180  0.01080  0.58520  Biso   1.000  F
  F44      1.0000 0.15820  0.51080  0.91480  Biso   1.000  F
  F45      1.0000 0.51870  0.07590  0.38870  Biso   1.000  F
  F46      1.0000 0.98130  0.57590  0.11130  Biso   1.000  F
  F47      1.0000 0.48130  0.92410  0.61130  Biso   1.000  F
  F48      1.0000 0.01870  0.42410  0.88870  Biso   1.000  F
  O13      1.0000 0.75630  0.06190  0.57450  Biso   1.000  O
  O14      1.0000 0.74370  0.56190  0.92550  Biso   1.000  O
  O15      1.0000 0.24370  0.93810  0.42550  Biso   1.000  O
  O16      1.0000 0.25630  0.43810  0.07450  Biso   1.000  O
  O17      1.0000 0.87130  0.44250  0.53440  Biso   1.000  O
  O18      1.0000 0.62870  0.94250  0.96560  Biso   1.000  O
  O19      1.0000 0.12870  0.55750  0.46560  Biso   1.000  O
  O20      1.0000 0.37130  0.05750  0.03440  Biso   1.000  O
  N1       1.0000 0.90890  0.36950  0.55980  Biso   1.000  N
  N2       1.0000 0.59110  0.86950  0.94020  Biso   1.000  N
  N3       1.0000 0.09110  0.63050  0.44020  Biso   1.000  N
  N4       1.0000 0.40890  0.13050  0.05980  Biso   1.000  N
  C41      1.0000 0.95960  0.31620  0.50410  Biso   1.000  C
  C42      1.0000 0.54040  0.81620  0.99590  Biso   1.000  C
  C43      1.0000 0.04040  0.68380  0.49590  Biso   1.000  C
  C44      1.0000 0.45960  0.18380  0.00410  Biso   1.000  C
  C45      1.0000 0.85980  0.29160  0.41990  Biso   1.000  C
  C46      1.0000 0.64020  0.79160  0.08010  Biso   1.000  C
  C47      1.0000 0.14020  0.70840  0.58010  Biso   1.000  C
  C48      1.0000 0.35980  0.20840  0.91990  Biso   1.000  C
  H9       1.0000 0.83540  0.33880  0.38150  Biso   1.000  H
  H10      1.0000 0.66460  0.83880  0.11850  Biso   1.000  H
  H11      1.0000 0.16460  0.66120  0.61850  Biso   1.000  H
  H12      1.0000 0.33540  0.16120  0.88150  Biso   1.000  H
  H13      1.0000 0.79690  0.27160  0.43800  Biso   1.000  H
  H14      1.0000 0.70310  0.77160  0.06200  Biso   1.000  H
  H15      1.0000 0.20310  0.72840  0.56200  Biso   1.000  H
  H16      1.0000 0.29690  0.22840  0.93800  Biso   1.000  H
  H17      1.0000 0.88480  0.24910  0.38770  Biso   1.000  H
  H18      1.0000 0.61520  0.74910  0.11230  Biso   1.000  H
  H19      1.0000 0.11520  0.75090  0.61230  Biso   1.000  H
  H20      1.0000 0.38480  0.25090  0.88770  Biso   1.000  H
  C49      1.0000 0.05170  0.36450  0.47890  Biso   1.000  C
  C50      1.0000 0.44830  0.86450  0.02110  Biso   1.000  C
  C51      1.0000 0.94830  0.63550  0.52110  Biso   1.000  C
  C52      1.0000 0.55170  0.13550  0.97890  Biso   1.000  C
  H21      1.0000 0.01630  0.40790  0.43780  Biso   1.000  H
  H22      1.0000 0.48370  0.90790  0.06220  Biso   1.000  H
  H23      1.0000 0.98370  0.59210  0.56220  Biso   1.000  H
  H24      1.0000 0.51630  0.09210  0.93780  Biso   1.000  H
  H25      1.0000 0.09180  0.32820  0.45070  Biso   1.000  H
  H26      1.0000 0.40820  0.82820  0.04930  Biso   1.000  H
  H27      1.0000 0.90820  0.67180  0.54930  Biso   1.000  H
  H28      1.0000 0.59180  0.17180  0.95070  Biso   1.000  H
  H29      1.0000 0.10490  0.38770  0.53240  Biso   1.000  H
  H30      1.0000 0.39510  0.88770  0.96760  Biso   1.000  H
  H31      1.0000 0.89510  0.61230  0.46760  Biso   1.000  H
  H32      1.0000 0.60490  0.11230  0.03240  Biso   1.000  H
  C53      1.0000 0.00600  0.24260  0.57120  Biso   1.000  C
  C54      1.0000 0.49400  0.74260  0.92880  Biso   1.000  C
  C55      1.0000 0.99400  0.75740  0.42880  Biso   1.000  C
  C56      1.0000 0.50600  0.25740  0.07120  Biso   1.000  C
  C57      1.0000 0.98990  0.15760  0.52850  Biso   1.000  C
  C58      1.0000 0.51010  0.65760  0.97150  Biso   1.000  C
  C59      1.0000 0.01010  0.84240  0.47150  Biso   1.000  C
  C60      1.0000 0.48990  0.34240  0.02850  Biso   1.000  C
  H33      1.0000 0.02040  0.11670  0.57430  Biso   1.000  H
  H34      1.0000 0.47960  0.61670  0.92570  Biso   1.000  H
  H35      1.0000 0.97960  0.88330  0.42570  Biso   1.000  H
  H36      1.0000 0.52040  0.38330  0.07430  Biso   1.000  H
  H37      1.0000 0.02950  0.15470  0.48460  Biso   1.000  H
  H38      1.0000 0.47050  0.65470  0.01540  Biso   1.000  H
  H39      1.0000 0.97050  0.84530  0.51540  Biso   1.000  H
  H40      1.0000 0.52950  0.34530  0.98460  Biso   1.000  H
  H41      1.0000 0.90960  0.14750  0.49960  Biso   1.000  H
  H42      1.0000 0.59040  0.64750  0.00040  Biso   1.000  H
  H43      1.0000 0.09040  0.85250  0.50040  Biso   1.000  H
  H44      1.0000 0.40960  0.35250  0.99960  Biso   1.000  H
  C61      1.0000 0.12880  0.25310  0.63360  Biso   1.000  C
  C62      1.0000 0.37120  0.75310  0.86640  Biso   1.000  C
  C63      1.0000 0.87120  0.74690  0.36640  Biso   1.000  C
  C64      1.0000 0.62880  0.24690  0.13360  Biso   1.000  C
  H45      1.0000 0.15030  0.20590  0.67240  Biso   1.000  H
  H46      1.0000 0.34970  0.70590  0.82760  Biso   1.000  H
  H47      1.0000 0.84970  0.79410  0.32760  Biso   1.000  H
  H48      1.0000 0.65030  0.29410  0.17240  Biso   1.000  H
  H49      1.0000 0.13380  0.30180  0.66960  Biso   1.000  H
  H50      1.0000 0.36620  0.80180  0.83040  Biso   1.000  H
  H51      1.0000 0.86620  0.69820  0.33040  Biso   1.000  H
  H52      1.0000 0.63380  0.19820  0.16960  Biso   1.000  H
  H53      1.0000 0.17970  0.25820  0.59830  Biso   1.000  H
  H54      1.0000 0.32030  0.75820  0.90170  Biso   1.000  H
  H55      1.0000 0.82030  0.74180  0.40170  Biso   1.000  H
  H56      1.0000 0.67970  0.24180  0.09830  Biso   1.000  H
  N5       1.0000 0.93340  0.25220  0.63190  Biso   1.000  N
  N6       1.0000 0.56660  0.75220  0.86810  Biso   1.000  N
  N7       1.0000 0.06660  0.74780  0.36810  Biso   1.000  N
  N8       1.0000 0.43340  0.24780  0.13190  Biso   1.000  N
  O21      1.0000 0.93240  0.19690  0.69100  Biso   1.000  O
  O22      1.0000 0.56760  0.69690  0.80900  Biso   1.000  O
  O23      1.0000 0.06760  0.80310  0.30900  Biso   1.000  O
  O24      1.0000 0.43240  0.30310  0.19100  Biso   1.000  O
  C65      1.0000 0.89090  0.32800  0.62870  Biso   1.000  C
  C66      1.0000 0.60910  0.82800  0.87130  Biso   1.000  C
  C67      1.0000 0.10910  0.67200  0.37130  Biso   1.000  C
  C68      1.0000 0.39090  0.17200  0.12870  Biso   1.000  C
  C69      1.0000 0.83650  0.36110  0.69030  Biso   1.000  C
  C70      1.0000 0.66350  0.86110  0.80970  Biso   1.000  C
  C71      1.0000 0.16350  0.63890  0.30970  Biso   1.000  C
  C72      1.0000 0.33650  0.13890  0.19030  Biso   1.000  C
  C73      1.0000 0.79950  0.44190  0.69590  Biso   1.000  C
  C74      1.0000 0.70050  0.94190  0.80410  Biso   1.000  C
  C75      1.0000 0.20050  0.55810  0.30410  Biso   1.000  C
  C76      1.0000 0.29950  0.05810  0.19590  Biso   1.000  C
  H57      1.0000 0.80480  0.48450  0.65750  Biso   1.000  H
  H58      1.0000 0.69520  0.98450  0.84250  Biso   1.000  H
  H59      1.0000 0.19520  0.51550  0.34250  Biso   1.000  H
  H60      1.0000 0.30480  0.01550  0.15750  Biso   1.000  H
  N9       1.0000 0.75600  0.44990  0.76300  Biso   1.000  N
  N10      1.0000 0.74400  0.94990  0.73700  Biso   1.000  N
  N11      1.0000 0.24400  0.55010  0.23700  Biso   1.000  N
  N12      1.0000 0.25600  0.05010  0.26300  Biso   1.000  N
  N13      1.0000 0.76450  0.37380  0.80080  Biso   1.000  N
  N14      1.0000 0.73550  0.87380  0.69920  Biso   1.000  N
  N15      1.0000 0.23550  0.62620  0.19920  Biso   1.000  N
  N16      1.0000 0.26450  0.12620  0.30080  Biso   1.000  N
  C77      1.0000 0.72150  0.35910  0.87650  Biso   1.000  C
  C78      1.0000 0.77850  0.85910  0.62350  Biso   1.000  C
  C79      1.0000 0.27850  0.64090  0.12350  Biso   1.000  C
  C80      1.0000 0.22150  0.14090  0.37650  Biso   1.000  C
  H61      1.0000 0.73410  0.30250  0.89490  Biso   1.000  H
  H62      1.0000 0.76590  0.80250  0.60510  Biso   1.000  H
  H63      1.0000 0.26590  0.69750  0.10510  Biso   1.000  H
  H64      1.0000 0.23410  0.19750  0.39490  Biso   1.000  H
  H65      1.0000 0.64090  0.37100  0.85850  Biso   1.000  H
  H66      1.0000 0.85910  0.87100  0.64150  Biso   1.000  H
  H67      1.0000 0.35910  0.62900  0.14150  Biso   1.000  H
  H68      1.0000 0.14090  0.12900  0.35850  Biso   1.000  H
  H69      1.0000 0.76130  0.39420  0.92600  Biso   1.000  H
  H70      1.0000 0.73870  0.89420  0.57400  Biso   1.000  H
  H71      1.0000 0.23870  0.60580  0.07400  Biso   1.000  H
  H72      1.0000 0.26130  0.10580  0.42600  Biso   1.000  H
  C81      1.0000 0.81170  0.31990  0.75940  Biso   1.000  C
  C82      1.0000 0.68830  0.81990  0.74060  Biso   1.000  C
  C83      1.0000 0.18830  0.68010  0.24060  Biso   1.000  C
  C84      1.0000 0.31170  0.18010  0.25940  Biso   1.000  C
  H73      1.0000 0.82550  0.26450  0.77420  Biso   1.000  H
  H74      1.0000 0.67450  0.76450  0.72580  Biso   1.000  H
  H75      1.0000 0.17450  0.73550  0.22580  Biso   1.000  H
  H76      1.0000 0.32550  0.23550  0.27420  Biso   1.000  H
  F49      1.0000 0.93130  0.12000  0.00500  Biso   1.000  F
  F50      1.0000 0.56870  0.62000  0.49500  Biso   1.000  F
  F51      1.0000 0.06870  0.88000  0.99500  Biso   1.000  F
  F52      1.0000 0.43130  0.38000  0.50500  Biso   1.000  F
  F53      1.0000 0.10100  0.09400  0.02650  Biso   1.000  F
  F54      1.0000 0.39900  0.59400  0.47350  Biso   1.000  F
  F55      1.0000 0.89900  0.90600  0.97350  Biso   1.000  F
  F56      1.0000 0.60100  0.40600  0.52650  Biso   1.000  F
  F57      1.0000 0.03700  0.20590  0.96400  Biso   1.000  F
  F58      1.0000 0.46300  0.70590  0.53600  Biso   1.000  F
  F59      1.0000 0.96300  0.79410  0.03600  Biso   1.000  F
  F60      1.0000 0.53700  0.29410  0.46400  Biso   1.000  F
  F61      1.0000 0.24060  0.99800  0.77700  Biso   1.000  F
  F62      1.0000 0.25940  0.49800  0.72300  Biso   1.000  F
  F63      1.0000 0.75940  0.00200  0.22300  Biso   1.000  F
  F64      1.0000 0.74060  0.50200  0.27700  Biso   1.000  F
  F65      1.0000 0.13310  0.95400  0.66700  Biso   1.000  F
  F66      1.0000 0.36690  0.45400  0.83300  Biso   1.000  F
  F67      1.0000 0.86690  0.04600  0.33300  Biso   1.000  F
  F68      1.0000 0.63310  0.54600  0.16700  Biso   1.000  F
  F69      1.0000 0.15500  0.89450  0.79300  Biso   1.000  F
  F70      1.0000 0.34500  0.39450  0.70700  Biso   1.000  F
  F71      1.0000 0.84500  0.10550  0.20700  Biso   1.000  F
  F72      1.0000 0.65500  0.60550  0.29300  Biso   1.000  F
  F73      1.0000 0.40800  0.20300  0.60500  Biso   1.000  F
  F74      1.0000 0.09200  0.70300  0.89500  Biso   1.000  F
  F75      1.0000 0.59200  0.79700  0.39500  Biso   1.000  F
  F76      1.0000 0.90800  0.29700  0.10500  Biso   1.000  F
  F77      1.0000 0.52560  0.24950  0.72020  Biso   1.000  F
  F78      1.0000 0.97440  0.74950  0.77980  Biso   1.000  F
  F79      1.0000 0.47440  0.75050  0.27980  Biso   1.000  F
  F80      1.0000 0.02560  0.25050  0.22020  Biso   1.000  F
  F81      1.0000 0.46500  0.13240  0.73000  Biso   1.000  F
  F82      1.0000 0.03500  0.63240  0.77000  Biso   1.000  F
  F83      1.0000 0.53500  0.86760  0.27000  Biso   1.000  F
  F84      1.0000 0.96500  0.36760  0.23000  Biso   1.000  F
  F85      1.0000 0.65700  0.13220  0.38920  Biso   1.000  F
  F86      1.0000 0.84300  0.63220  0.11080  Biso   1.000  F
  F87      1.0000 0.34300  0.86780  0.61080  Biso   1.000  F
  F88      1.0000 0.15700  0.36780  0.88920  Biso   1.000  F
  F89      1.0000 0.68200  0.99940  0.41370  Biso   1.000  F
  F90      1.0000 0.81800  0.49940  0.08630  Biso   1.000  F
  F91      1.0000 0.31800  0.00060  0.58630  Biso   1.000  F
  F92      1.0000 0.18200  0.50060  0.91370  Biso   1.000  F
  F93      1.0000 0.52040  0.04840  0.38320  Biso   1.000  F
  F94      1.0000 0.97960  0.54840  0.11680  Biso   1.000  F
  F95      1.0000 0.47960  0.95160  0.61680  Biso   1.000  F
  F96      1.0000 0.02040  0.45160  0.88320  Biso   1.000  F
