data_image0
_cell_length_a       12.169
_cell_length_b       15.837
_cell_length_c       15.21
_cell_angle_alpha    82.03
_cell_angle_beta     85.85
_cell_angle_gamma    76.13

_symmetry_space_group_name_H-M    "P 1"
_symmetry_int_tables_number       1

loop_
  _symmetry_equiv_pos_as_xyz
  'x, y, z'

loop_
  _atom_site_label
  _atom_site_occupancy
  _atom_site_fract_x
  _atom_site_fract_y
  _atom_site_fract_z
  _atom_site_thermal_displace_type
  _atom_site_B_iso_or_equiv
  _atom_site_type_symbol
  Cu1      1.0000 0.69506  0.70801  0.92504  Biso   1.000  Cu
  Cu2      1.0000 0.30494  0.29199  0.07496  Biso   1.000  Cu
  O1       1.0000 0.99150  0.81810  0.46601  Biso   1.000  O
  O2       1.0000 0.00850  0.18190  0.53399  Biso   1.000  O
  C1       1.0000 0.17660  0.79440  0.50680  Biso   1.000  C
  C2       1.0000 0.82340  0.20560  0.49320  Biso   1.000  C
  F1       1.0000 0.18230  0.87250  0.46940  Biso   1.000  F
  F2       1.0000 0.81770  0.12750  0.53060  Biso   1.000  F
  F3       1.0000 0.15770  0.80060  0.59400  Biso   1.000  F
  F4       1.0000 0.84230  0.19940  0.40600  Biso   1.000  F
  F5       1.0000 0.27970  0.74330  0.50360  Biso   1.000  F
  F6       1.0000 0.72030  0.25670  0.49640  Biso   1.000  F
  C3       1.0000 0.08570  0.76020  0.47010  Biso   1.000  C
  C4       1.0000 0.91430  0.23980  0.52990  Biso   1.000  C
  C5       1.0000 0.11210  0.67750  0.44560  Biso   1.000  C
  C6       1.0000 0.88790  0.32250  0.55440  Biso   1.000  C
  H1       1.0000 0.18470  0.64320  0.45560  Biso   1.000  H
  H2       1.0000 0.81530  0.35680  0.54440  Biso   1.000  H
  C7       1.0000 0.03840  0.64260  0.40750  Biso   1.000  C
  C8       1.0000 0.96160  0.35740  0.59250  Biso   1.000  C
  C9       1.0000 0.08450  0.54710  0.38130  Biso   1.000  C
  C10      1.0000 0.91550  0.45290  0.61870  Biso   1.000  C
  F7       1.0000 0.00820  0.50170  0.39920  Biso   1.000  F
  F8       1.0000 0.99180  0.49830  0.60080  Biso   1.000  F
  F9       1.0000 0.17110  0.50170  0.42590  Biso   1.000  F
  F10      1.0000 0.82890  0.49830  0.57410  Biso   1.000  F
  F11      1.0000 0.11030  0.55260  0.29680  Biso   1.000  F
  F12      1.0000 0.88970  0.44740  0.70320  Biso   1.000  F
  O3       1.0000 0.93430  0.67530  0.39000  Biso   1.000  O
  O4       1.0000 0.06570  0.32470  0.61000  Biso   1.000  O
  O5       1.0000 0.75820  0.94580  0.39120  Biso   1.000  O
  O6       1.0000 0.24180  0.05420  0.60880  Biso   1.000  O
  C11      1.0000 0.58830  0.05740  0.41160  Biso   1.000  C
  C12      1.0000 0.41170  0.94260  0.58840  Biso   1.000  C
  F13      1.0000 0.47940  0.06573  0.42441  Biso   1.000  F
  F14      1.0000 0.52060  0.93427  0.57559  Biso   1.000  F
  F15      1.0000 0.60120  0.11430  0.34160  Biso   1.000  F
  F16      1.0000 0.39880  0.88570  0.65840  Biso   1.000  F
  F17      1.0000 0.62690  0.07520  0.48080  Biso   1.000  F
  F18      1.0000 0.37310  0.92480  0.51920  Biso   1.000  F
  C13      1.0000 0.65720  0.95940  0.39130  Biso   1.000  C
  C14      1.0000 0.34280  0.04060  0.60870  Biso   1.000  C
  C15      1.0000 0.58430  0.90810  0.36800  Biso   1.000  C
  C16      1.0000 0.41570  0.09190  0.63200  Biso   1.000  C
  H3       1.0000 0.50650  0.93070  0.37310  Biso   1.000  H
  H4       1.0000 0.49350  0.06930  0.62690  Biso   1.000  H
  C17      1.0000 0.62240  0.82670  0.33820  Biso   1.000  C
  C18      1.0000 0.37760  0.17330  0.66180  Biso   1.000  C
  C19      1.0000 0.55610  0.77960  0.30410  Biso   1.000  C
  C20      1.0000 0.44390  0.22040  0.69590  Biso   1.000  C
  F19      1.0000 0.56750  0.78090  0.21470  Biso   1.000  F
  F20      1.0000 0.43250  0.21910  0.78530  Biso   1.000  F
  F21      1.0000 0.44490  0.81720  0.31540  Biso   1.000  F
  F22      1.0000 0.55510  0.18280  0.68460  Biso   1.000  F
  F23      1.0000 0.56960  0.69900  0.33670  Biso   1.000  F
  F24      1.0000 0.43040  0.30100  0.66330  Biso   1.000  F
  O7       1.0000 0.73060  0.78990  0.33450  Biso   1.000  O
  O8       1.0000 0.26940  0.21010  0.66550  Biso   1.000  O
  Cu3      1.0000 0.85781  0.81088  0.40110  Biso   1.000  Cu
  Cu4      1.0000 0.14219  0.18912  0.59890  Biso   1.000  Cu
  O9       1.0000 0.74290  0.58190  0.95310  Biso   1.000  O
  O10      1.0000 0.25710  0.41810  0.04690  Biso   1.000  O
  C21      1.0000 0.84000  0.43710  0.95120  Biso   1.000  C
  C22      1.0000 0.16000  0.56290  0.04880  Biso   1.000  C
  F25      1.0000 0.80930  0.41950  0.03040  Biso   1.000  F
  F26      1.0000 0.19070  0.58050  0.96960  Biso   1.000  F
  F27      1.0000 0.80310  0.39900  0.89840  Biso   1.000  F
  F28      1.0000 0.19690  0.60100  0.10160  Biso   1.000  F
  F29      1.0000 0.94970  0.39250  0.95050  Biso   1.000  F
  F30      1.0000 0.05030  0.60750  0.04950  Biso   1.000  F
  C23      1.0000 0.82520  0.53360  0.92300  Biso   1.000  C
  C24      1.0000 0.17480  0.46640  0.07700  Biso   1.000  C
  C25      1.0000 0.90750  0.55900  0.86030  Biso   1.000  C
  C26      1.0000 0.09250  0.44100  0.13970  Biso   1.000  C
  H5       1.0000 0.96590  0.51530  0.84070  Biso   1.000  H
  H6       1.0000 0.03410  0.48470  0.15930  Biso   1.000  H
  C27      1.0000 0.90540  0.64490  0.82710  Biso   1.000  C
  C28      1.0000 0.09460  0.35510  0.17290  Biso   1.000  C
  C29      1.0000 0.01040  0.66840  0.76760  Biso   1.000  C
  C30      1.0000 0.98960  0.33160  0.23240  Biso   1.000  C
  F31      1.0000 0.08710  0.59990  0.75900  Biso   1.000  F
  F32      1.0000 0.91290  0.40010  0.24100  Biso   1.000  F
  F33      1.0000 0.02680  0.73480  0.77610  Biso   1.000  F
  F34      1.0000 0.97320  0.26520  0.22390  Biso   1.000  F
  F35      1.0000 0.96280  0.67820  0.68030  Biso   1.000  F
  F36      1.0000 0.03720  0.32180  0.31970  Biso   1.000  F
  O11      1.0000 0.82950  0.71210  0.84520  Biso   1.000  O
  O12      1.0000 0.17050  0.28790  0.15480  Biso   1.000  O
  O13      1.0000 0.55310  0.70510  0.99790  Biso   1.000  O
  O14      1.0000 0.44690  0.29490  0.00210  Biso   1.000  O
  C31      1.0000 0.36860  0.75360  0.05910  Biso   1.000  C
  C32      1.0000 0.63140  0.24640  0.94090  Biso   1.000  C
  F37      1.0000 0.32720  0.81640  0.10520  Biso   1.000  F
  F38      1.0000 0.67280  0.18360  0.89480  Biso   1.000  F
  F39      1.0000 0.29310  0.74570  0.00820  Biso   1.000  F
  F40      1.0000 0.70690  0.25430  0.99180  Biso   1.000  F
  F41      1.0000 0.39860  0.68110  0.11550  Biso   1.000  F
  F42      1.0000 0.60140  0.31890  0.88450  Biso   1.000  F
  C33      1.0000 0.47240  0.77080  0.00160  Biso   1.000  C
  C34      1.0000 0.52760  0.22920  0.99840  Biso   1.000  C
  C35      1.0000 0.46210  0.85570  0.95690  Biso   1.000  C
  C36      1.0000 0.53790  0.14430  0.04310  Biso   1.000  C
  H7       1.0000 0.39520  0.89760  0.96460  Biso   1.000  H
  H8       1.0000 0.60480  0.10240  0.03540  Biso   1.000  H
  C37      1.0000 0.54570  0.87860  0.90340  Biso   1.000  C
  C38      1.0000 0.45430  0.12140  0.09660  Biso   1.000  C
  C39      1.0000 0.52870  0.97480  0.86040  Biso   1.000  C
  C40      1.0000 0.47130  0.02520  0.13960  Biso   1.000  C
  F43      1.0000 0.59800  0.01140  0.89280  Biso   1.000  F
  F44      1.0000 0.40200  0.98860  0.10720  Biso   1.000  F
  F45      1.0000 0.56360  0.97550  0.77410  Biso   1.000  F
  F46      1.0000 0.43640  0.02450  0.22590  Biso   1.000  F
  F47      1.0000 0.42880  0.02060  0.86640  Biso   1.000  F
  F48      1.0000 0.57120  0.97940  0.13360  Biso   1.000  F
  O15      1.0000 0.64280  0.83170  0.88400  Biso   1.000  O
  O16      1.0000 0.35720  0.16830  0.11600  Biso   1.000  O
  O17      1.0000 0.58370  0.69560  0.80290  Biso   1.000  O
  O18      1.0000 0.41630  0.30440  0.19710  Biso   1.000  O
  N1       1.0000 0.56350  0.64850  0.74630  Biso   1.000  N
  N2       1.0000 0.43650  0.35150  0.25370  Biso   1.000  N
  C41      1.0000 0.47320  0.59590  0.76320  Biso   1.000  C
  C42      1.0000 0.52680  0.40410  0.23680  Biso   1.000  C
  C43      1.0000 0.49220  0.53990  0.85330  Biso   1.000  C
  C44      1.0000 0.50780  0.46010  0.14670  Biso   1.000  C
  H9       1.0000 0.47640  0.57720  0.89960  Biso   1.000  H
  H10      1.0000 0.52360  0.42280  0.10040  Biso   1.000  H
  H11      1.0000 0.56950  0.50710  0.85560  Biso   1.000  H
  H12      1.0000 0.43050  0.49290  0.14440  Biso   1.000  H
  H13      1.0000 0.44270  0.50020  0.86150  Biso   1.000  H
  H14      1.0000 0.55730  0.49980  0.13850  Biso   1.000  H
  C45      1.0000 0.36450  0.66330  0.76430  Biso   1.000  C
  C46      1.0000 0.63550  0.33670  0.23570  Biso   1.000  C
  H15      1.0000 0.35830  0.69180  0.81680  Biso   1.000  H
  H16      1.0000 0.64170  0.30820  0.18320  Biso   1.000  H
  H17      1.0000 0.30240  0.63570  0.76410  Biso   1.000  H
  H18      1.0000 0.69760  0.36430  0.23590  Biso   1.000  H
  H19      1.0000 0.36280  0.70590  0.71260  Biso   1.000  H
  H20      1.0000 0.63720  0.29410  0.28740  Biso   1.000  H
  C47      1.0000 0.49680  0.54390  0.67990  Biso   1.000  C
  C48      1.0000 0.50320  0.45610  0.32010  Biso   1.000  C
  C49      1.0000 0.57940  0.45470  0.69420  Biso   1.000  C
  C50      1.0000 0.42060  0.54530  0.30580  Biso   1.000  C
  H21      1.0000 0.58800  0.42740  0.64080  Biso   1.000  H
  H22      1.0000 0.41200  0.57260  0.35920  Biso   1.000  H
  H23      1.0000 0.55070  0.41830  0.74180  Biso   1.000  H
  H24      1.0000 0.44930  0.58170  0.25820  Biso   1.000  H
  H25      1.0000 0.65160  0.46210  0.70910  Biso   1.000  H
  H26      1.0000 0.34840  0.53790  0.29090  Biso   1.000  H
  C51      1.0000 0.39030  0.53650  0.64050  Biso   1.000  C
  C52      1.0000 0.60970  0.46350  0.35950  Biso   1.000  C
  H27      1.0000 0.40960  0.50410  0.59050  Biso   1.000  H
  H28      1.0000 0.59040  0.49590  0.40950  Biso   1.000  H
  H29      1.0000 0.34570  0.59400  0.62150  Biso   1.000  H
  H30      1.0000 0.65430  0.40600  0.37850  Biso   1.000  H
  H31      1.0000 0.34760  0.50650  0.68440  Biso   1.000  H
  H32      1.0000 0.65240  0.49350  0.31560  Biso   1.000  H
  N3       1.0000 0.55730  0.60080  0.61840  Biso   1.000  N
  N4       1.0000 0.44270  0.39920  0.38160  Biso   1.000  N
  C53      1.0000 0.59790  0.65430  0.65990  Biso   1.000  C
  C54      1.0000 0.40210  0.34570  0.34010  Biso   1.000  C
  C55      1.0000 0.66510  0.71170  0.61990  Biso   1.000  C
  C56      1.0000 0.33490  0.28830  0.38010  Biso   1.000  C
  C57      1.0000 0.72110  0.71580  0.53400  Biso   1.000  C
  C58      1.0000 0.27890  0.28420  0.46600  Biso   1.000  C
  H33      1.0000 0.71910  0.67740  0.49330  Biso   1.000  H
  H34      1.0000 0.28090  0.32260  0.50670  Biso   1.000  H
  N5       1.0000 0.77550  0.77870  0.51810  Biso   1.000  N
  N6       1.0000 0.22450  0.22130  0.48190  Biso   1.000  N
  N7       1.0000 0.76150  0.81750  0.59350  Biso   1.000  N
  N8       1.0000 0.23850  0.18250  0.40650  Biso   1.000  N
  C59      1.0000 0.81530  0.89040  0.60310  Biso   1.000  C
  C60      1.0000 0.18470  0.10960  0.39690  Biso   1.000  C
  H35      1.0000 0.82360  0.92420  0.54580  Biso   1.000  H
  H36      1.0000 0.17640  0.07580  0.45420  Biso   1.000  H
  H37      1.0000 0.88970  0.86740  0.62730  Biso   1.000  H
  H38      1.0000 0.11030  0.13260  0.37270  Biso   1.000  H
  C61      1.0000 0.73700  0.94880  0.66710  Biso   1.000  C
  C62      1.0000 0.26300  0.05120  0.33290  Biso   1.000  C
  H39      1.0000 0.76930  0.99670  0.67510  Biso   1.000  H
  H40      1.0000 0.23070  0.00330  0.32490  Biso   1.000  H
  H41      1.0000 0.72930  0.91460  0.72350  Biso   1.000  H
  H42      1.0000 0.27070  0.08540  0.27650  Biso   1.000  H
  H43      1.0000 0.66370  0.97120  0.64240  Biso   1.000  H
  H44      1.0000 0.33630  0.02880  0.35760  Biso   1.000  H
  C63      1.0000 0.69790  0.77840  0.65430  Biso   1.000  C
  C64      1.0000 0.30210  0.22160  0.34570  Biso   1.000  C
  H45      1.0000 0.67860  0.79380  0.71120  Biso   1.000  H
  H46      1.0000 0.32140  0.20620  0.28880  Biso   1.000  H
  O19      1.0000 0.57580  0.59130  0.53560  Biso   1.000  O
  O20      1.0000 0.42420  0.40870  0.46440  Biso   1.000  O
  O21      1.0000 0.95410  0.83280  0.28730  Biso   1.000  O
  O22      1.0000 0.04590  0.16720  0.71270  Biso   1.000  O
  N9       1.0000 0.92890  0.90120  0.22660  Biso   1.000  N
  N10      1.0000 0.07110  0.09880  0.77340  Biso   1.000  N
  C65      1.0000 0.90460  0.04580  0.15590  Biso   1.000  C
  C66      1.0000 0.09540  0.95420  0.84410  Biso   1.000  C
  C67      1.0000 0.79850  0.10250  0.19570  Biso   1.000  C
  C68      1.0000 0.20150  0.89750  0.80430  Biso   1.000  C
  H47      1.0000 0.75720  0.14200  0.14920  Biso   1.000  H
  H48      1.0000 0.24280  0.85800  0.85080  Biso   1.000  H
  H49      1.0000 0.81970  0.13550  0.23740  Biso   1.000  H
  H50      1.0000 0.18030  0.86450  0.76260  Biso   1.000  H
  H51      1.0000 0.75160  0.06560  0.22570  Biso   1.000  H
  H52      1.0000 0.24840  0.93440  0.77430  Biso   1.000  H
  C69      1.0000 0.96640  0.10270  0.09150  Biso   1.000  C
  C70      1.0000 0.03360  0.89730  0.90850  Biso   1.000  C
  H53      1.0000 0.91300  0.14310  0.05330  Biso   1.000  H
  H54      1.0000 0.08700  0.85690  0.94670  Biso   1.000  H
  H55      1.0000 0.02180  0.06620  0.05640  Biso   1.000  H
  H56      1.0000 0.97820  0.93380  0.94360  Biso   1.000  H
  H57      1.0000 0.00340  0.13480  0.12430  Biso   1.000  H
  H58      1.0000 0.99660  0.86520  0.87570  Biso   1.000  H
  C71      1.0000 0.98150  0.97730  0.22340  Biso   1.000  C
  C72      1.0000 0.01850  0.02270  0.77660  Biso   1.000  C
  C73      1.0000 0.97300  0.00860  0.31730  Biso   1.000  C
  C74      1.0000 0.02700  0.99140  0.68270  Biso   1.000  C
  H59      1.0000 0.02180  0.96530  0.35660  Biso   1.000  H
  H60      1.0000 0.97820  0.03470  0.64340  Biso   1.000  H
  H61      1.0000 0.89620  0.01650  0.34060  Biso   1.000  H
  H62      1.0000 0.10380  0.98350  0.65940  Biso   1.000  H
  H63      1.0000 0.99560  0.06310  0.31250  Biso   1.000  H
  H64      1.0000 0.00440  0.93690  0.68750  Biso   1.000  H
  C75      1.0000 0.10390  0.94770  0.19090  Biso   1.000  C
  C76      1.0000 0.89610  0.05230  0.80910  Biso   1.000  C
  H65      1.0000 0.14520  0.90580  0.23560  Biso   1.000  H
  H66      1.0000 0.85480  0.09420  0.76440  Biso   1.000  H
  H67      1.0000 0.13730  0.99750  0.17900  Biso   1.000  H
  H68      1.0000 0.86270  0.00250  0.82100  Biso   1.000  H
  H69      1.0000 0.10660  0.92130  0.13740  Biso   1.000  H
  H70      1.0000 0.89340  0.07870  0.86260  Biso   1.000  H
  N11      1.0000 0.86670  0.98270  0.10660  Biso   1.000  N
  N12      1.0000 0.13330  0.01730  0.89340  Biso   1.000  N
  O23      1.0000 0.81820  0.00820  0.03080  Biso   1.000  O
  O24      1.0000 0.18180  0.99180  0.96920  Biso   1.000  O
  C77      1.0000 0.87410  0.90250  0.15220  Biso   1.000  C
  C78      1.0000 0.12590  0.09750  0.84780  Biso   1.000  C
  C79      1.0000 0.84520  0.83120  0.12560  Biso   1.000  C
  C80      1.0000 0.15480  0.16880  0.87440  Biso   1.000  C
  C81      1.0000 0.79090  0.82520  0.04710  Biso   1.000  C
  C82      1.0000 0.20910  0.17480  0.95290  Biso   1.000  C
  H71      1.0000 0.77010  0.87160  0.00240  Biso   1.000  H
  H72      1.0000 0.22990  0.12840  0.99760  Biso   1.000  H
  N13      1.0000 0.77390  0.74810  0.04530  Biso   1.000  N
  N14      1.0000 0.22610  0.25190  0.95470  Biso   1.000  N
  N15      1.0000 0.80970  0.70070  0.12310  Biso   1.000  N
  N16      1.0000 0.19030  0.29930  0.87690  Biso   1.000  N
  C83      1.0000 0.78560  0.61290  0.14880  Biso   1.000  C
  C84      1.0000 0.21440  0.38710  0.85120  Biso   1.000  C
  H73      1.0000 0.70570  0.61640  0.14310  Biso   1.000  H
  H74      1.0000 0.29430  0.38360  0.85690  Biso   1.000  H
  H75      1.0000 0.82860  0.57210  0.10990  Biso   1.000  H
  H76      1.0000 0.17140  0.42790  0.89010  Biso   1.000  H
  C85      1.0000 0.81440  0.58430  0.23370  Biso   1.000  C
  C86      1.0000 0.18560  0.41570  0.76630  Biso   1.000  C
  H77      1.0000 0.79770  0.52790  0.25110  Biso   1.000  H
  H78      1.0000 0.20230  0.47210  0.74890  Biso   1.000  H
  H79      1.0000 0.77190  0.62510  0.27190  Biso   1.000  H
  H80      1.0000 0.22810  0.37490  0.72810  Biso   1.000  H
  H81      1.0000 0.89390  0.57950  0.23860  Biso   1.000  H
  H82      1.0000 0.10610  0.42050  0.76140  Biso   1.000  H
  C87      1.0000 0.85200  0.74720  0.17130  Biso   1.000  C
  C88      1.0000 0.14800  0.25280  0.82870  Biso   1.000  C
  H83      1.0000 0.88170  0.72730  0.22710  Biso   1.000  H
  H84      1.0000 0.11830  0.27270  0.77290  Biso   1.000  H
