data_image0
_cell_length_a       30.516
_cell_length_b       9.54
_cell_length_c       25.194
_cell_angle_alpha    90
_cell_angle_beta     123.96
_cell_angle_gamma    90

_symmetry_space_group_name_H-M    "P 1"
_symmetry_int_tables_number       1

loop_
  _symmetry_equiv_pos_as_xyz
  'x, y, z'

loop_
  _atom_site_label
  _atom_site_occupancy
  _atom_site_fract_x
  _atom_site_fract_y
  _atom_site_fract_z
  _atom_site_thermal_displace_type
  _atom_site_B_iso_or_equiv
  _atom_site_type_symbol
  Cu1      1.0000 0.00000  0.00000  0.50000  Biso   1.000  Cu
  Cu2      1.0000 0.50000  0.50000  0.50000  Biso   1.000  Cu
  Cu3      1.0000 0.00000  0.00000  0.00000  Biso   1.000  Cu
  Cu4      1.0000 0.50000  0.50000  0.00000  Biso   1.000  Cu
  O1       1.0000 0.99382  0.09900  0.42480  Biso   1.000  O
  O2       1.0000 0.49382  0.59900  0.42480  Biso   1.000  O
  O3       1.0000 0.99382  0.90100  0.92480  Biso   1.000  O
  O4       1.0000 0.49382  0.40100  0.92480  Biso   1.000  O
  O5       1.0000 0.00618  0.90100  0.57520  Biso   1.000  O
  O6       1.0000 0.50618  0.40100  0.57520  Biso   1.000  O
  O7       1.0000 0.00618  0.09900  0.07520  Biso   1.000  O
  O8       1.0000 0.50618  0.59900  0.07520  Biso   1.000  O
  C1       1.0000 0.98630  0.27890  0.35720  Biso   1.000  C
  C2       1.0000 0.48630  0.77890  0.35720  Biso   1.000  C
  C3       1.0000 0.98630  0.72110  0.85720  Biso   1.000  C
  C4       1.0000 0.48630  0.22110  0.85720  Biso   1.000  C
  C5       1.0000 0.01370  0.72110  0.64280  Biso   1.000  C
  C6       1.0000 0.51370  0.22110  0.64280  Biso   1.000  C
  C7       1.0000 0.01370  0.27890  0.14280  Biso   1.000  C
  C8       1.0000 0.51370  0.77890  0.14280  Biso   1.000  C
  F1       1.0000 0.96500  0.39840  0.33350  Biso   1.000  F
  F2       1.0000 0.46500  0.89840  0.33350  Biso   1.000  F
  F3       1.0000 0.96500  0.60160  0.83350  Biso   1.000  F
  F4       1.0000 0.46500  0.10160  0.83350  Biso   1.000  F
  F5       1.0000 0.03500  0.60160  0.66650  Biso   1.000  F
  F6       1.0000 0.53500  0.10160  0.66650  Biso   1.000  F
  F7       1.0000 0.03500  0.39840  0.16650  Biso   1.000  F
  F8       1.0000 0.53500  0.89840  0.16650  Biso   1.000  F
  F9       1.0000 0.96870  0.19270  0.30970  Biso   1.000  F
  F10      1.0000 0.46870  0.69270  0.30970  Biso   1.000  F
  F11      1.0000 0.96870  0.80730  0.80970  Biso   1.000  F
  F12      1.0000 0.46870  0.30730  0.80970  Biso   1.000  F
  F13      1.0000 0.03130  0.80730  0.69030  Biso   1.000  F
  F14      1.0000 0.53130  0.30730  0.69030  Biso   1.000  F
  F15      1.0000 0.03130  0.19270  0.19030  Biso   1.000  F
  F16      1.0000 0.53130  0.69270  0.19030  Biso   1.000  F
  F17      1.0000 0.03770  0.29290  0.38220  Biso   1.000  F
  F18      1.0000 0.53770  0.79290  0.38220  Biso   1.000  F
  F19      1.0000 0.03770  0.70710  0.88220  Biso   1.000  F
  F20      1.0000 0.53770  0.20710  0.88220  Biso   1.000  F
  F21      1.0000 0.96230  0.70710  0.61780  Biso   1.000  F
  F22      1.0000 0.46230  0.20710  0.61780  Biso   1.000  F
  F23      1.0000 0.96230  0.29290  0.11780  Biso   1.000  F
  F24      1.0000 0.46230  0.79290  0.11780  Biso   1.000  F
  C9       1.0000 0.97820  0.22120  0.40790  Biso   1.000  C
  C10      1.0000 0.47820  0.72120  0.40790  Biso   1.000  C
  C11      1.0000 0.97820  0.77880  0.90790  Biso   1.000  C
  C12      1.0000 0.47820  0.27880  0.90790  Biso   1.000  C
  C13      1.0000 0.02180  0.77880  0.59210  Biso   1.000  C
  C14      1.0000 0.52180  0.27880  0.59210  Biso   1.000  C
  C15      1.0000 0.02180  0.22120  0.09210  Biso   1.000  C
  C16      1.0000 0.52180  0.72120  0.09210  Biso   1.000  C
  C17      1.0000 0.95600  0.30670  0.42990  Biso   1.000  C
  C18      1.0000 0.45600  0.80670  0.42990  Biso   1.000  C
  C19      1.0000 0.95600  0.69330  0.92990  Biso   1.000  C
  C20      1.0000 0.45600  0.19330  0.92990  Biso   1.000  C
  C21      1.0000 0.04400  0.69330  0.57010  Biso   1.000  C
  C22      1.0000 0.54400  0.19330  0.57010  Biso   1.000  C
  C23      1.0000 0.04400  0.30670  0.07010  Biso   1.000  C
  C24      1.0000 0.54400  0.80670  0.07010  Biso   1.000  C
  H1       1.0000 0.95100  0.38300  0.41700  Biso   1.000  H
  H2       1.0000 0.45100  0.88300  0.41700  Biso   1.000  H
  H3       1.0000 0.95100  0.61700  0.91700  Biso   1.000  H
  H4       1.0000 0.45100  0.11700  0.91700  Biso   1.000  H
  H5       1.0000 0.04900  0.61700  0.58300  Biso   1.000  H
  H6       1.0000 0.54900  0.11700  0.58300  Biso   1.000  H
  H7       1.0000 0.04900  0.38300  0.08300  Biso   1.000  H
  H8       1.0000 0.54900  0.88300  0.08300  Biso   1.000  H
  C25      1.0000 0.94930  0.26870  0.47790  Biso   1.000  C
  C26      1.0000 0.44930  0.76870  0.47790  Biso   1.000  C
  C27      1.0000 0.94930  0.73130  0.97790  Biso   1.000  C
  C28      1.0000 0.44930  0.23130  0.97790  Biso   1.000  C
  C29      1.0000 0.05070  0.73130  0.52210  Biso   1.000  C
  C30      1.0000 0.55070  0.23130  0.52210  Biso   1.000  C
  C31      1.0000 0.05070  0.26870  0.02210  Biso   1.000  C
  C32      1.0000 0.55070  0.76870  0.02210  Biso   1.000  C
  C33      1.0000 0.92210  0.37380  0.49380  Biso   1.000  C
  C34      1.0000 0.42210  0.87380  0.49380  Biso   1.000  C
  C35      1.0000 0.92210  0.62620  0.99380  Biso   1.000  C
  C36      1.0000 0.42210  0.12620  0.99380  Biso   1.000  C
  C37      1.0000 0.07790  0.62620  0.50620  Biso   1.000  C
  C38      1.0000 0.57790  0.12620  0.50620  Biso   1.000  C
  C39      1.0000 0.07790  0.37380  0.00620  Biso   1.000  C
  C40      1.0000 0.57790  0.87380  0.00620  Biso   1.000  C
  F25      1.0000 0.92870  0.50090  0.48820  Biso   1.000  F
  F26      1.0000 0.42870  0.00090  0.48820  Biso   1.000  F
  F27      1.0000 0.92870  0.49910  0.98820  Biso   1.000  F
  F28      1.0000 0.42870  0.99910  0.98820  Biso   1.000  F
  F29      1.0000 0.07130  0.49910  0.51180  Biso   1.000  F
  F30      1.0000 0.57130  0.99910  0.51180  Biso   1.000  F
  F31      1.0000 0.07130  0.50090  0.01180  Biso   1.000  F
  F32      1.0000 0.57130  0.00090  0.01180  Biso   1.000  F
  F33      1.0000 0.94340  0.36850  0.55620  Biso   1.000  F
  F34      1.0000 0.44340  0.86850  0.55620  Biso   1.000  F
  F35      1.0000 0.94340  0.63150  0.05620  Biso   1.000  F
  F36      1.0000 0.44340  0.13150  0.05620  Biso   1.000  F
  F37      1.0000 0.05660  0.63150  0.44380  Biso   1.000  F
  F38      1.0000 0.55660  0.13150  0.44380  Biso   1.000  F
  F39      1.0000 0.05660  0.36850  0.94380  Biso   1.000  F
  F40      1.0000 0.55660  0.86850  0.94380  Biso   1.000  F
  F41      1.0000 0.87810  0.35110  0.47450  Biso   1.000  F
  F42      1.0000 0.37810  0.85110  0.47450  Biso   1.000  F
  F43      1.0000 0.87810  0.64890  0.97450  Biso   1.000  F
  F44      1.0000 0.37810  0.14890  0.97450  Biso   1.000  F
  F45      1.0000 0.12190  0.64890  0.52550  Biso   1.000  F
  F46      1.0000 0.62190  0.14890  0.52550  Biso   1.000  F
  F47      1.0000 0.12190  0.35110  0.02550  Biso   1.000  F
  F48      1.0000 0.62190  0.85110  0.02550  Biso   1.000  F
  O9       1.0000 0.96080  0.15450  0.50680  Biso   1.000  O
  O10      1.0000 0.46080  0.65450  0.50680  Biso   1.000  O
  O11      1.0000 0.96080  0.84550  0.00680  Biso   1.000  O
  O12      1.0000 0.46080  0.34550  0.00680  Biso   1.000  O
  O13      1.0000 0.03920  0.84550  0.49320  Biso   1.000  O
  O14      1.0000 0.53920  0.34550  0.49320  Biso   1.000  O
  O15      1.0000 0.03920  0.15450  0.99320  Biso   1.000  O
  O16      1.0000 0.53920  0.65450  0.99320  Biso   1.000  O
  Cu5      1.0000 0.75000  0.25000  0.50000  Biso   1.000  Cu
  Cu6      1.0000 0.25000  0.75000  0.50000  Biso   1.000  Cu
  Cu7      1.0000 0.75000  0.75000  0.00000  Biso   1.000  Cu
  Cu8      1.0000 0.25000  0.25000  0.00000  Biso   1.000  Cu
  O17      1.0000 0.75639  0.41130  0.45535  Biso   1.000  O
  O18      1.0000 0.25639  0.91130  0.45535  Biso   1.000  O
  O19      1.0000 0.75639  0.58870  0.95535  Biso   1.000  O
  O20      1.0000 0.25639  0.08870  0.95535  Biso   1.000  O
  O21      1.0000 0.24361  0.58870  0.54465  Biso   1.000  O
  O22      1.0000 0.74361  0.08870  0.54465  Biso   1.000  O
  O23      1.0000 0.24361  0.41130  0.04465  Biso   1.000  O
  O24      1.0000 0.74361  0.91130  0.04465  Biso   1.000  O
  C41      1.0000 0.77420  0.63770  0.43880  Biso   1.000  C
  C42      1.0000 0.27420  0.13770  0.43880  Biso   1.000  C
  C43      1.0000 0.77420  0.36230  0.93880  Biso   1.000  C
  C44      1.0000 0.27420  0.86230  0.93880  Biso   1.000  C
  C45      1.0000 0.22580  0.36230  0.56120  Biso   1.000  C
  C46      1.0000 0.72580  0.86230  0.56120  Biso   1.000  C
  C47      1.0000 0.22580  0.63770  0.06120  Biso   1.000  C
  C48      1.0000 0.72580  0.13770  0.06120  Biso   1.000  C
  F49      1.0000 0.78150  0.76000  0.46310  Biso   1.000  F
  F50      1.0000 0.28150  0.26000  0.46310  Biso   1.000  F
  F51      1.0000 0.78150  0.24000  0.96310  Biso   1.000  F
  F52      1.0000 0.28150  0.74000  0.96310  Biso   1.000  F
  F53      1.0000 0.21850  0.24000  0.53690  Biso   1.000  F
  F54      1.0000 0.71850  0.74000  0.53690  Biso   1.000  F
  F55      1.0000 0.21850  0.76000  0.03690  Biso   1.000  F
  F56      1.0000 0.71850  0.26000  0.03690  Biso   1.000  F
  F57      1.0000 0.79740  0.62170  0.41230  Biso   1.000  F
  F58      1.0000 0.29740  0.12170  0.41230  Biso   1.000  F
  F59      1.0000 0.79740  0.37830  0.91230  Biso   1.000  F
  F60      1.0000 0.29740  0.87830  0.91230  Biso   1.000  F
  F61      1.0000 0.20260  0.37830  0.58770  Biso   1.000  F
  F62      1.0000 0.70260  0.87830  0.58770  Biso   1.000  F
  F63      1.0000 0.20260  0.62170  0.08770  Biso   1.000  F
  F64      1.0000 0.70260  0.12170  0.08770  Biso   1.000  F
  F65      1.0000 0.72490  0.65190  0.39210  Biso   1.000  F
  F66      1.0000 0.22490  0.15190  0.39210  Biso   1.000  F
  F67      1.0000 0.72490  0.34810  0.89210  Biso   1.000  F
  F68      1.0000 0.22490  0.84810  0.89210  Biso   1.000  F
  F69      1.0000 0.27510  0.34810  0.60790  Biso   1.000  F
  F70      1.0000 0.77510  0.84810  0.60790  Biso   1.000  F
  F71      1.0000 0.27510  0.65190  0.10790  Biso   1.000  F
  F72      1.0000 0.77510  0.15190  0.10790  Biso   1.000  F
  C49      1.0000 0.78260  0.51730  0.48260  Biso   1.000  C
  C50      1.0000 0.28260  0.01730  0.48260  Biso   1.000  C
  C51      1.0000 0.78260  0.48270  0.98260  Biso   1.000  C
  C52      1.0000 0.28260  0.98270  0.98260  Biso   1.000  C
  C53      1.0000 0.21740  0.48270  0.51740  Biso   1.000  C
  C54      1.0000 0.71740  0.98270  0.51740  Biso   1.000  C
  C55      1.0000 0.21740  0.51730  0.01740  Biso   1.000  C
  C56      1.0000 0.71740  0.01730  0.01740  Biso   1.000  C
  C57      1.0000 0.81780  0.53980  0.54710  Biso   1.000  C
  C58      1.0000 0.31780  0.03980  0.54710  Biso   1.000  C
  C59      1.0000 0.81780  0.46020  0.04710  Biso   1.000  C
  C60      1.0000 0.31780  0.96020  0.04710  Biso   1.000  C
  C61      1.0000 0.18220  0.46020  0.45290  Biso   1.000  C
  C62      1.0000 0.68220  0.96020  0.45290  Biso   1.000  C
  C63      1.0000 0.18220  0.53980  0.95290  Biso   1.000  C
  C64      1.0000 0.68220  0.03980  0.95290  Biso   1.000  C
  H9       1.0000 0.83700  0.62700  0.56400  Biso   1.000  H
  H10      1.0000 0.33700  0.12700  0.56400  Biso   1.000  H
  H11      1.0000 0.83700  0.37300  0.06400  Biso   1.000  H
  H12      1.0000 0.33700  0.87300  0.06400  Biso   1.000  H
  H13      1.0000 0.16300  0.37300  0.43600  Biso   1.000  H
  H14      1.0000 0.66300  0.87300  0.43600  Biso   1.000  H
  H15      1.0000 0.16300  0.62700  0.93600  Biso   1.000  H
  H16      1.0000 0.66300  0.12700  0.93600  Biso   1.000  H
  C65      1.0000 0.82850  0.44210  0.59330  Biso   1.000  C
  C66      1.0000 0.32850  0.94210  0.59330  Biso   1.000  C
  C67      1.0000 0.82850  0.55790  0.09330  Biso   1.000  C
  C68      1.0000 0.32850  0.05790  0.09330  Biso   1.000  C
  C69      1.0000 0.17150  0.55790  0.40670  Biso   1.000  C
  C70      1.0000 0.67150  0.05790  0.40670  Biso   1.000  C
  C71      1.0000 0.17150  0.44210  0.90670  Biso   1.000  C
  C72      1.0000 0.67150  0.94210  0.90670  Biso   1.000  C
  C73      1.0000 0.86760  0.48070  0.66250  Biso   1.000  C
  C74      1.0000 0.36760  0.98070  0.66250  Biso   1.000  C
  C75      1.0000 0.86760  0.51930  0.16250  Biso   1.000  C
  C76      1.0000 0.36760  0.01930  0.16250  Biso   1.000  C
  C77      1.0000 0.13240  0.51930  0.33750  Biso   1.000  C
  C78      1.0000 0.63240  0.01930  0.33750  Biso   1.000  C
  C79      1.0000 0.13240  0.48070  0.83750  Biso   1.000  C
  C80      1.0000 0.63240  0.98070  0.83750  Biso   1.000  C
  F73      1.0000 0.89150  0.59180  0.67320  Biso   1.000  F
  F74      1.0000 0.39150  0.09180  0.67320  Biso   1.000  F
  F75      1.0000 0.89150  0.40820  0.17320  Biso   1.000  F
  F76      1.0000 0.39150  0.90820  0.17320  Biso   1.000  F
  F77      1.0000 0.10850  0.40820  0.32680  Biso   1.000  F
  F78      1.0000 0.60850  0.90820  0.32680  Biso   1.000  F
  F79      1.0000 0.10850  0.59180  0.82680  Biso   1.000  F
  F80      1.0000 0.60850  0.09180  0.82680  Biso   1.000  F
  F81      1.0000 0.89990  0.38520  0.69420  Biso   1.000  F
  F82      1.0000 0.39990  0.88520  0.69420  Biso   1.000  F
  F83      1.0000 0.89990  0.61480  0.19420  Biso   1.000  F
  F84      1.0000 0.39990  0.11480  0.19420  Biso   1.000  F
  F85      1.0000 0.10010  0.61480  0.30580  Biso   1.000  F
  F86      1.0000 0.60010  0.11480  0.30580  Biso   1.000  F
  F87      1.0000 0.10010  0.38520  0.80580  Biso   1.000  F
  F88      1.0000 0.60010  0.88520  0.80580  Biso   1.000  F
  F89      1.0000 0.84720  0.49180  0.69400  Biso   1.000  F
  F90      1.0000 0.34720  0.99180  0.69400  Biso   1.000  F
  F91      1.0000 0.84720  0.50820  0.19400  Biso   1.000  F
  F92      1.0000 0.34720  0.00820  0.19400  Biso   1.000  F
  F93      1.0000 0.15280  0.50820  0.30600  Biso   1.000  F
  F94      1.0000 0.65280  0.00820  0.30600  Biso   1.000  F
  F95      1.0000 0.15280  0.49180  0.80600  Biso   1.000  F
  F96      1.0000 0.65280  0.99180  0.80600  Biso   1.000  F
  O25      1.0000 0.80779  0.32430  0.58509  Biso   1.000  O
  O26      1.0000 0.30779  0.82430  0.58509  Biso   1.000  O
  O27      1.0000 0.80779  0.67570  0.08509  Biso   1.000  O
  O28      1.0000 0.30779  0.17570  0.08509  Biso   1.000  O
  O29      1.0000 0.19221  0.67570  0.41491  Biso   1.000  O
  O30      1.0000 0.69221  0.17570  0.41491  Biso   1.000  O
  O31      1.0000 0.19221  0.32430  0.91491  Biso   1.000  O
  O32      1.0000 0.69221  0.82430  0.91491  Biso   1.000  O
  O33      1.0000 0.75980  0.01870  0.29730  Biso   1.000  O
  O34      1.0000 0.25980  0.51870  0.29730  Biso   1.000  O
  O35      1.0000 0.75980  0.98130  0.79730  Biso   1.000  O
  O36      1.0000 0.25980  0.48130  0.79730  Biso   1.000  O
  O37      1.0000 0.24020  0.98130  0.70270  Biso   1.000  O
  O38      1.0000 0.74020  0.48130  0.70270  Biso   1.000  O
  O39      1.0000 0.24020  0.01870  0.20270  Biso   1.000  O
  O40      1.0000 0.74020  0.51870  0.20270  Biso   1.000  O
  N1       1.0000 0.80520  0.96670  0.32060  Biso   1.000  N
  N2       1.0000 0.30520  0.46670  0.32060  Biso   1.000  N
  N3       1.0000 0.80520  0.03330  0.82060  Biso   1.000  N
  N4       1.0000 0.30520  0.53330  0.82060  Biso   1.000  N
  N5       1.0000 0.19480  0.03330  0.67940  Biso   1.000  N
  N6       1.0000 0.69480  0.53330  0.67940  Biso   1.000  N
  N7       1.0000 0.19480  0.96670  0.17940  Biso   1.000  N
  N8       1.0000 0.69480  0.46670  0.17940  Biso   1.000  N
  C81      1.0000 0.82510  0.92490  0.28110  Biso   1.000  C
  C82      1.0000 0.32510  0.42490  0.28110  Biso   1.000  C
  C83      1.0000 0.82510  0.07510  0.78110  Biso   1.000  C
  C84      1.0000 0.32510  0.57510  0.78110  Biso   1.000  C
  C85      1.0000 0.17490  0.07510  0.71890  Biso   1.000  C
  C86      1.0000 0.67490  0.57510  0.71890  Biso   1.000  C
  C87      1.0000 0.17490  0.92490  0.21890  Biso   1.000  C
  C88      1.0000 0.67490  0.42490  0.21890  Biso   1.000  C
  C89      1.0000 0.78170  0.85410  0.22010  Biso   1.000  C
  C90      1.0000 0.28170  0.35410  0.22010  Biso   1.000  C
  C91      1.0000 0.78170  0.14590  0.72010  Biso   1.000  C
  C92      1.0000 0.28170  0.64590  0.72010  Biso   1.000  C
  C93      1.0000 0.21830  0.14590  0.77990  Biso   1.000  C
  C94      1.0000 0.71830  0.64590  0.77990  Biso   1.000  C
  C95      1.0000 0.21830  0.85410  0.27990  Biso   1.000  C
  C96      1.0000 0.71830  0.35410  0.27990  Biso   1.000  C
  H17      1.0000 0.76700  0.76300  0.23000  Biso   1.000  H
  H18      1.0000 0.26700  0.26300  0.23000  Biso   1.000  H
  H19      1.0000 0.76700  0.23700  0.73000  Biso   1.000  H
  H20      1.0000 0.26700  0.73700  0.73000  Biso   1.000  H
  H21      1.0000 0.23300  0.23700  0.77000  Biso   1.000  H
  H22      1.0000 0.73300  0.73700  0.77000  Biso   1.000  H
  H23      1.0000 0.23300  0.76300  0.27000  Biso   1.000  H
  H24      1.0000 0.73300  0.26300  0.27000  Biso   1.000  H
  H25      1.0000 0.75900  0.90700  0.19100  Biso   1.000  H
  H26      1.0000 0.25900  0.40700  0.19100  Biso   1.000  H
  H27      1.0000 0.75900  0.09300  0.69100  Biso   1.000  H
  H28      1.0000 0.25900  0.59300  0.69100  Biso   1.000  H
  H29      1.0000 0.24100  0.09300  0.80900  Biso   1.000  H
  H30      1.0000 0.74100  0.59300  0.80900  Biso   1.000  H
  H31      1.0000 0.24100  0.90700  0.30900  Biso   1.000  H
  H32      1.0000 0.74100  0.40700  0.30900  Biso   1.000  H
  H33      1.0000 0.79800  0.83100  0.20400  Biso   1.000  H
  H34      1.0000 0.29800  0.33100  0.20400  Biso   1.000  H
  H35      1.0000 0.79800  0.16900  0.70400  Biso   1.000  H
  H36      1.0000 0.29800  0.66900  0.70400  Biso   1.000  H
  H37      1.0000 0.20200  0.16900  0.79600  Biso   1.000  H
  H38      1.0000 0.70200  0.66900  0.79600  Biso   1.000  H
  H39      1.0000 0.20200  0.83100  0.29600  Biso   1.000  H
  H40      1.0000 0.70200  0.33100  0.29600  Biso   1.000  H
  C97      1.0000 0.84210  0.06240  0.26580  Biso   1.000  C
  C98      1.0000 0.34210  0.56240  0.26580  Biso   1.000  C
  C99      1.0000 0.84210  0.93760  0.76580  Biso   1.000  C
  C100     1.0000 0.34210  0.43760  0.76580  Biso   1.000  C
  C101     1.0000 0.15790  0.93760  0.73420  Biso   1.000  C
  C102     1.0000 0.65790  0.43760  0.73420  Biso   1.000  C
  C103     1.0000 0.15790  0.06240  0.23420  Biso   1.000  C
  C104     1.0000 0.65790  0.56240  0.23420  Biso   1.000  C
  H41      1.0000 0.81100  0.13900  0.24700  Biso   1.000  H
  H42      1.0000 0.31100  0.63900  0.24700  Biso   1.000  H
  H43      1.0000 0.81100  0.86100  0.74700  Biso   1.000  H
  H44      1.0000 0.31100  0.36100  0.74700  Biso   1.000  H
  H45      1.0000 0.18900  0.86100  0.75300  Biso   1.000  H
  H46      1.0000 0.68900  0.36100  0.75300  Biso   1.000  H
  H47      1.0000 0.18900  0.13900  0.25300  Biso   1.000  H
  H48      1.0000 0.68900  0.63900  0.25300  Biso   1.000  H
  H49      1.0000 0.86400  0.12100  0.30200  Biso   1.000  H
  H50      1.0000 0.36400  0.62100  0.30200  Biso   1.000  H
  H51      1.0000 0.86400  0.87900  0.80200  Biso   1.000  H
  H52      1.0000 0.36400  0.37900  0.80200  Biso   1.000  H
  H53      1.0000 0.13600  0.87900  0.69800  Biso   1.000  H
  H54      1.0000 0.63600  0.37900  0.69800  Biso   1.000  H
  H55      1.0000 0.13600  0.12100  0.19800  Biso   1.000  H
  H56      1.0000 0.63600  0.62100  0.19800  Biso   1.000  H
  H57      1.0000 0.84500  0.04600  0.23700  Biso   1.000  H
  H58      1.0000 0.34500  0.54600  0.23700  Biso   1.000  H
  H59      1.0000 0.84500  0.95400  0.73700  Biso   1.000  H
  H60      1.0000 0.34500  0.45400  0.73700  Biso   1.000  H
  H61      1.0000 0.15500  0.95400  0.76300  Biso   1.000  H
  H62      1.0000 0.65500  0.45400  0.76300  Biso   1.000  H
  H63      1.0000 0.15500  0.04600  0.26300  Biso   1.000  H
  H64      1.0000 0.65500  0.54600  0.26300  Biso   1.000  H
  C105     1.0000 0.87220  0.83140  0.32860  Biso   1.000  C
  C106     1.0000 0.37220  0.33140  0.32860  Biso   1.000  C
  C107     1.0000 0.87220  0.16860  0.82860  Biso   1.000  C
  C108     1.0000 0.37220  0.66860  0.82860  Biso   1.000  C
  C109     1.0000 0.12780  0.16860  0.67140  Biso   1.000  C
  C110     1.0000 0.62780  0.66860  0.67140  Biso   1.000  C
  C111     1.0000 0.12780  0.83140  0.17140  Biso   1.000  C
  C112     1.0000 0.62780  0.33140  0.17140  Biso   1.000  C
  C113     1.0000 0.92070  0.83740  0.32520  Biso   1.000  C
  C114     1.0000 0.42070  0.33740  0.32520  Biso   1.000  C
  C115     1.0000 0.92070  0.16260  0.82520  Biso   1.000  C
  C116     1.0000 0.42070  0.66260  0.82520  Biso   1.000  C
  C117     1.0000 0.07930  0.16260  0.67480  Biso   1.000  C
  C118     1.0000 0.57930  0.66260  0.67480  Biso   1.000  C
  C119     1.0000 0.07930  0.83740  0.17480  Biso   1.000  C
  C120     1.0000 0.57930  0.33740  0.17480  Biso   1.000  C
  H65      1.0000 0.93600  0.92600  0.33100  Biso   1.000  H
  H66      1.0000 0.43600  0.42600  0.33100  Biso   1.000  H
  H67      1.0000 0.93600  0.07400  0.83100  Biso   1.000  H
  H68      1.0000 0.43600  0.57400  0.83100  Biso   1.000  H
  H69      1.0000 0.06400  0.07400  0.66900  Biso   1.000  H
  H70      1.0000 0.56400  0.57400  0.66900  Biso   1.000  H
  H71      1.0000 0.06400  0.92600  0.16900  Biso   1.000  H
  H72      1.0000 0.56400  0.42600  0.16900  Biso   1.000  H
  H73      1.0000 0.95100  0.77800  0.35000  Biso   1.000  H
  H74      1.0000 0.45100  0.27800  0.35000  Biso   1.000  H
  H75      1.0000 0.95100  0.22200  0.85000  Biso   1.000  H
  H76      1.0000 0.45100  0.72200  0.85000  Biso   1.000  H
  H77      1.0000 0.04900  0.22200  0.65000  Biso   1.000  H
  H78      1.0000 0.54900  0.72200  0.65000  Biso   1.000  H
  H79      1.0000 0.04900  0.77800  0.15000  Biso   1.000  H
  H80      1.0000 0.54900  0.27800  0.15000  Biso   1.000  H
  H81      1.0000 0.91200  0.80200  0.28400  Biso   1.000  H
  H82      1.0000 0.41200  0.30200  0.28400  Biso   1.000  H
  H83      1.0000 0.91200  0.19800  0.78400  Biso   1.000  H
  H84      1.0000 0.41200  0.69800  0.78400  Biso   1.000  H
  H85      1.0000 0.08800  0.19800  0.71600  Biso   1.000  H
  H86      1.0000 0.58800  0.69800  0.71600  Biso   1.000  H
  H87      1.0000 0.08800  0.80200  0.21600  Biso   1.000  H
  H88      1.0000 0.58800  0.30200  0.21600  Biso   1.000  H
  C121     1.0000 0.85600  0.68050  0.32950  Biso   1.000  C
  C122     1.0000 0.35600  0.18050  0.32950  Biso   1.000  C
  C123     1.0000 0.85600  0.31950  0.82950  Biso   1.000  C
  C124     1.0000 0.35600  0.81950  0.82950  Biso   1.000  C
  C125     1.0000 0.14400  0.31950  0.67050  Biso   1.000  C
  C126     1.0000 0.64400  0.81950  0.67050  Biso   1.000  C
  C127     1.0000 0.14400  0.68050  0.17050  Biso   1.000  C
  C128     1.0000 0.64400  0.18050  0.17050  Biso   1.000  C
  H89      1.0000 0.82100  0.67300  0.33100  Biso   1.000  H
  H90      1.0000 0.32100  0.17300  0.33100  Biso   1.000  H
  H91      1.0000 0.82100  0.32700  0.83100  Biso   1.000  H
  H92      1.0000 0.32100  0.82700  0.83100  Biso   1.000  H
  H93      1.0000 0.17900  0.32700  0.66900  Biso   1.000  H
  H94      1.0000 0.67900  0.82700  0.66900  Biso   1.000  H
  H95      1.0000 0.17900  0.67300  0.16900  Biso   1.000  H
  H96      1.0000 0.67900  0.17300  0.16900  Biso   1.000  H
  H97      1.0000 0.84800  0.64200  0.30300  Biso   1.000  H
  H98      1.0000 0.34800  0.14200  0.30300  Biso   1.000  H
  H99      1.0000 0.84800  0.35800  0.80300  Biso   1.000  H
  H100     1.0000 0.34800  0.85800  0.80300  Biso   1.000  H
  H101     1.0000 0.15200  0.35800  0.69700  Biso   1.000  H
  H102     1.0000 0.65200  0.85800  0.69700  Biso   1.000  H
  H103     1.0000 0.15200  0.64200  0.19700  Biso   1.000  H
  H104     1.0000 0.65200  0.14200  0.19700  Biso   1.000  H
  H105     1.0000 0.88300  0.64100  0.37200  Biso   1.000  H
  H106     1.0000 0.38300  0.14100  0.37200  Biso   1.000  H
  H107     1.0000 0.88300  0.35900  0.87200  Biso   1.000  H
  H108     1.0000 0.38300  0.85900  0.87200  Biso   1.000  H
  H109     1.0000 0.11700  0.35900  0.62800  Biso   1.000  H
  H110     1.0000 0.61700  0.85900  0.62800  Biso   1.000  H
  H111     1.0000 0.11700  0.64100  0.12800  Biso   1.000  H
  H112     1.0000 0.61700  0.14100  0.12800  Biso   1.000  H
  N9       1.0000 0.88460  0.89290  0.39020  Biso   1.000  N
  N10      1.0000 0.38460  0.39290  0.39020  Biso   1.000  N
  N11      1.0000 0.88460  0.10710  0.89020  Biso   1.000  N
  N12      1.0000 0.38460  0.60710  0.89020  Biso   1.000  N
  N13      1.0000 0.11540  0.10710  0.60980  Biso   1.000  N
  N14      1.0000 0.61540  0.60710  0.60980  Biso   1.000  N
  N15      1.0000 0.11540  0.89290  0.10980  Biso   1.000  N
  N16      1.0000 0.61540  0.39290  0.10980  Biso   1.000  N
  O41      1.0000 0.92852  0.86310  0.44510  Biso   1.000  O
  O42      1.0000 0.42852  0.36310  0.44510  Biso   1.000  O
  O43      1.0000 0.92852  0.13690  0.94510  Biso   1.000  O
  O44      1.0000 0.42852  0.63690  0.94510  Biso   1.000  O
  O45      1.0000 0.07148  0.13690  0.55490  Biso   1.000  O
  O46      1.0000 0.57148  0.63690  0.55490  Biso   1.000  O
  O47      1.0000 0.07148  0.86310  0.05490  Biso   1.000  O
  O48      1.0000 0.57148  0.36310  0.05490  Biso   1.000  O
  C129     1.0000 0.84350  0.95750  0.38380  Biso   1.000  C
  C130     1.0000 0.34350  0.45750  0.38380  Biso   1.000  C
  C131     1.0000 0.84350  0.04250  0.88380  Biso   1.000  C
  C132     1.0000 0.34350  0.54250  0.88380  Biso   1.000  C
  C133     1.0000 0.15650  0.04250  0.61620  Biso   1.000  C
  C134     1.0000 0.65650  0.54250  0.61620  Biso   1.000  C
  C135     1.0000 0.15650  0.95750  0.11620  Biso   1.000  C
  C136     1.0000 0.65650  0.45750  0.11620  Biso   1.000  C
  C137     1.0000 0.83940  0.00660  0.43440  Biso   1.000  C
  C138     1.0000 0.33940  0.50660  0.43440  Biso   1.000  C
  C139     1.0000 0.83940  0.99340  0.93440  Biso   1.000  C
  C140     1.0000 0.33940  0.49340  0.93440  Biso   1.000  C
  C141     1.0000 0.16060  0.99340  0.56560  Biso   1.000  C
  C142     1.0000 0.66060  0.49340  0.56560  Biso   1.000  C
  C143     1.0000 0.16060  0.00660  0.06560  Biso   1.000  C
  C144     1.0000 0.66060  0.50660  0.06560  Biso   1.000  C
  C145     1.0000 0.87430  0.98190  0.49910  Biso   1.000  C
  C146     1.0000 0.37430  0.48190  0.49910  Biso   1.000  C
  C147     1.0000 0.87430  0.01810  0.99910  Biso   1.000  C
  C148     1.0000 0.37430  0.51810  0.99910  Biso   1.000  C
  C149     1.0000 0.12570  0.01810  0.50090  Biso   1.000  C
  C150     1.0000 0.62570  0.51810  0.50090  Biso   1.000  C
  C151     1.0000 0.12570  0.98190  0.00090  Biso   1.000  C
  C152     1.0000 0.62570  0.48190  0.00090  Biso   1.000  C
  H113     1.0000 0.90700  0.92400  0.52900  Biso   1.000  H
  H114     1.0000 0.40700  0.42400  0.52900  Biso   1.000  H
  H115     1.0000 0.90700  0.07600  0.02900  Biso   1.000  H
  H116     1.0000 0.40700  0.57600  0.02900  Biso   1.000  H
  H117     1.0000 0.09300  0.07600  0.47100  Biso   1.000  H
  H118     1.0000 0.59300  0.57600  0.47100  Biso   1.000  H
  H119     1.0000 0.09300  0.92400  0.97100  Biso   1.000  H
  H120     1.0000 0.59300  0.42400  0.97100  Biso   1.000  H
  N17      1.0000 0.85420  0.04470  0.52860  Biso   1.000  N
  N18      1.0000 0.35420  0.54470  0.52860  Biso   1.000  N
  N19      1.0000 0.85420  0.95530  0.02860  Biso   1.000  N
  N20      1.0000 0.35420  0.45530  0.02860  Biso   1.000  N
  N21      1.0000 0.14580  0.95530  0.47140  Biso   1.000  N
  N22      1.0000 0.64580  0.45530  0.47140  Biso   1.000  N
  N23      1.0000 0.14580  0.04470  0.97140  Biso   1.000  N
  N24      1.0000 0.64580  0.54470  0.97140  Biso   1.000  N
  C153     1.0000 0.87560  0.04040  0.59690  Biso   1.000  C
  C154     1.0000 0.37560  0.54040  0.59690  Biso   1.000  C
  C155     1.0000 0.87560  0.95960  0.09690  Biso   1.000  C
  C156     1.0000 0.37560  0.45960  0.09690  Biso   1.000  C
  C157     1.0000 0.12440  0.95960  0.40310  Biso   1.000  C
  C158     1.0000 0.62440  0.45960  0.40310  Biso   1.000  C
  C159     1.0000 0.12440  0.04040  0.90310  Biso   1.000  C
  C160     1.0000 0.62440  0.54040  0.90310  Biso   1.000  C
  H121     1.0000 0.88410  0.93100  0.62500  Biso   1.000  H
  H122     1.0000 0.38410  0.43100  0.62500  Biso   1.000  H
  H123     1.0000 0.88410  0.06900  0.12500  Biso   1.000  H
  H124     1.0000 0.38410  0.56900  0.12500  Biso   1.000  H
  H125     1.0000 0.11590  0.06900  0.37500  Biso   1.000  H
  H126     1.0000 0.61590  0.56900  0.37500  Biso   1.000  H
  H127     1.0000 0.11590  0.93100  0.87500  Biso   1.000  H
  H128     1.0000 0.61590  0.43100  0.87500  Biso   1.000  H
  H129     1.0000 0.84900  0.08100  0.59800  Biso   1.000  H
  H130     1.0000 0.34900  0.58100  0.59800  Biso   1.000  H
  H131     1.0000 0.84900  0.91900  0.09800  Biso   1.000  H
  H132     1.0000 0.34900  0.41900  0.09800  Biso   1.000  H
  H133     1.0000 0.15100  0.91900  0.40200  Biso   1.000  H
  H134     1.0000 0.65100  0.41900  0.40200  Biso   1.000  H
  H135     1.0000 0.15100  0.08100  0.90200  Biso   1.000  H
  H136     1.0000 0.65100  0.58100  0.90200  Biso   1.000  H
  C161     1.0000 0.92720  0.10100  0.63690  Biso   1.000  C
  C162     1.0000 0.42720  0.60100  0.63690  Biso   1.000  C
  C163     1.0000 0.92720  0.89900  0.13690  Biso   1.000  C
  C164     1.0000 0.42720  0.39900  0.13690  Biso   1.000  C
  C165     1.0000 0.07280  0.89900  0.36310  Biso   1.000  C
  C166     1.0000 0.57280  0.39900  0.36310  Biso   1.000  C
  C167     1.0000 0.07280  0.10100  0.86310  Biso   1.000  C
  C168     1.0000 0.57280  0.60100  0.86310  Biso   1.000  C
  H137     1.0000 0.93850  0.09490  0.68080  Biso   1.000  H
  H138     1.0000 0.43850  0.59490  0.68080  Biso   1.000  H
  H139     1.0000 0.93850  0.90510  0.18080  Biso   1.000  H
  H140     1.0000 0.43850  0.40510  0.18080  Biso   1.000  H
  H141     1.0000 0.06150  0.90510  0.31920  Biso   1.000  H
  H142     1.0000 0.56150  0.40510  0.31920  Biso   1.000  H
  H143     1.0000 0.06150  0.09490  0.81920  Biso   1.000  H
  H144     1.0000 0.56150  0.59490  0.81920  Biso   1.000  H
  H145     1.0000 0.92610  0.19740  0.62540  Biso   1.000  H
  H146     1.0000 0.42610  0.69740  0.62540  Biso   1.000  H
  H147     1.0000 0.92610  0.80260  0.12540  Biso   1.000  H
  H148     1.0000 0.42610  0.30260  0.12540  Biso   1.000  H
  H149     1.0000 0.07390  0.80260  0.37460  Biso   1.000  H
  H150     1.0000 0.57390  0.30260  0.37460  Biso   1.000  H
  H151     1.0000 0.07390  0.19740  0.87460  Biso   1.000  H
  H152     1.0000 0.57390  0.69740  0.87460  Biso   1.000  H
  H153     1.0000 0.95160  0.05070  0.63120  Biso   1.000  H
  H154     1.0000 0.45160  0.55070  0.63120  Biso   1.000  H
  H155     1.0000 0.95160  0.94930  0.13120  Biso   1.000  H
  H156     1.0000 0.45160  0.44930  0.13120  Biso   1.000  H
  H157     1.0000 0.04840  0.94930  0.36880  Biso   1.000  H
  H158     1.0000 0.54840  0.44930  0.36880  Biso   1.000  H
  H159     1.0000 0.04840  0.05070  0.86880  Biso   1.000  H
  H160     1.0000 0.54840  0.55070  0.86880  Biso   1.000  H
  N25      1.0000 0.80830  0.11200  0.48720  Biso   1.000  N
  N26      1.0000 0.30830  0.61200  0.48720  Biso   1.000  N
  N27      1.0000 0.80830  0.88800  0.98720  Biso   1.000  N
  N28      1.0000 0.30830  0.38800  0.98720  Biso   1.000  N
  N29      1.0000 0.19170  0.88800  0.51280  Biso   1.000  N
  N30      1.0000 0.69170  0.38800  0.51280  Biso   1.000  N
  N31      1.0000 0.19170  0.11200  0.01280  Biso   1.000  N
  N32      1.0000 0.69170  0.61200  0.01280  Biso   1.000  N
  C169     1.0000 0.79920  0.09040  0.43000  Biso   1.000  C
  C170     1.0000 0.29920  0.59040  0.43000  Biso   1.000  C
  C171     1.0000 0.79920  0.90960  0.93000  Biso   1.000  C
  C172     1.0000 0.29920  0.40960  0.93000  Biso   1.000  C
  C173     1.0000 0.20080  0.90960  0.57000  Biso   1.000  C
  C174     1.0000 0.70080  0.40960  0.57000  Biso   1.000  C
  C175     1.0000 0.20080  0.09040  0.07000  Biso   1.000  C
  C176     1.0000 0.70080  0.59040  0.07000  Biso   1.000  C
  H161     1.0000 0.76600  0.12300  0.38600  Biso   1.000  H
  H162     1.0000 0.26600  0.62300  0.38600  Biso   1.000  H
  H163     1.0000 0.76600  0.87700  0.88600  Biso   1.000  H
  H164     1.0000 0.26600  0.37700  0.88600  Biso   1.000  H
  H165     1.0000 0.23400  0.87700  0.61400  Biso   1.000  H
  H166     1.0000 0.73400  0.37700  0.61400  Biso   1.000  H
  H167     1.0000 0.23400  0.12300  0.11400  Biso   1.000  H
  H168     1.0000 0.73400  0.62300  0.11400  Biso   1.000  H
