data_image0
_cell_length_a       29.567
_cell_length_b       9.491
_cell_length_c       24.46
_cell_angle_alpha    90
_cell_angle_beta     121.62
_cell_angle_gamma    90

_symmetry_space_group_name_H-M    "P 1"
_symmetry_int_tables_number       1

loop_
  _symmetry_equiv_pos_as_xyz
  'x, y, z'

loop_
  _atom_site_label
  _atom_site_occupancy
  _atom_site_fract_x
  _atom_site_fract_y
  _atom_site_fract_z
  _atom_site_thermal_displace_type
  _atom_site_B_iso_or_equiv
  _atom_site_type_symbol
  Cu1      1.0000 0.25000  0.75000  0.00000  Biso   1.000  Cu
  Cu2      1.0000 0.75000  0.25000  0.00000  Biso   1.000  Cu
  Cu3      1.0000 0.75000  0.75000  0.50000  Biso   1.000  Cu
  Cu4      1.0000 0.25000  0.25000  0.50000  Biso   1.000  Cu
  O1       1.0000 0.31377  0.83317  0.09364  Biso   1.000  O
  O2       1.0000 0.81377  0.33317  0.09364  Biso   1.000  O
  O3       1.0000 0.68623  0.83317  0.40636  Biso   1.000  O
  O4       1.0000 0.18623  0.33317  0.40636  Biso   1.000  O
  O5       1.0000 0.68623  0.16683  0.90636  Biso   1.000  O
  O6       1.0000 0.18623  0.66683  0.90636  Biso   1.000  O
  O7       1.0000 0.31377  0.16683  0.59364  Biso   1.000  O
  O8       1.0000 0.81377  0.66683  0.59364  Biso   1.000  O
  C1       1.0000 0.36759  0.00500  0.16835  Biso   1.000  C
  C2       1.0000 0.86759  0.50500  0.16835  Biso   1.000  C
  C3       1.0000 0.63241  0.00500  0.33165  Biso   1.000  C
  C4       1.0000 0.13241  0.50500  0.33165  Biso   1.000  C
  C5       1.0000 0.63241  0.99500  0.83165  Biso   1.000  C
  C6       1.0000 0.13241  0.49500  0.83165  Biso   1.000  C
  C7       1.0000 0.36759  0.99500  0.66835  Biso   1.000  C
  C8       1.0000 0.86759  0.49500  0.66835  Biso   1.000  C
  F1       1.0000 0.39600  0.90900  0.20600  Biso   1.000  F
  F2       1.0000 0.89600  0.40900  0.20600  Biso   1.000  F
  F3       1.0000 0.60400  0.90900  0.29400  Biso   1.000  F
  F4       1.0000 0.10400  0.40900  0.29400  Biso   1.000  F
  F5       1.0000 0.60400  0.09100  0.79400  Biso   1.000  F
  F6       1.0000 0.10400  0.59100  0.79400  Biso   1.000  F
  F7       1.0000 0.39600  0.09100  0.70600  Biso   1.000  F
  F8       1.0000 0.89600  0.59100  0.70600  Biso   1.000  F
  F9       1.0000 0.33650  0.04160  0.19200  Biso   1.000  F
  F10      1.0000 0.83650  0.54160  0.19200  Biso   1.000  F
  F11      1.0000 0.66350  0.04160  0.30800  Biso   1.000  F
  F12      1.0000 0.16350  0.54160  0.30800  Biso   1.000  F
  F13      1.0000 0.66350  0.95840  0.80800  Biso   1.000  F
  F14      1.0000 0.16350  0.45840  0.80800  Biso   1.000  F
  F15      1.0000 0.33650  0.95840  0.69200  Biso   1.000  F
  F16      1.0000 0.83650  0.45840  0.69200  Biso   1.000  F
  F17      1.0000 0.39470  0.11110  0.17460  Biso   1.000  F
  F18      1.0000 0.89470  0.61110  0.17460  Biso   1.000  F
  F19      1.0000 0.60530  0.11110  0.32540  Biso   1.000  F
  F20      1.0000 0.10530  0.61110  0.32540  Biso   1.000  F
  F21      1.0000 0.60530  0.88890  0.82540  Biso   1.000  F
  F22      1.0000 0.10530  0.38890  0.82540  Biso   1.000  F
  F23      1.0000 0.39470  0.88890  0.67460  Biso   1.000  F
  F24      1.0000 0.89470  0.38890  0.67460  Biso   1.000  F
  F25      1.0000 0.35700  0.96510  0.20610  Biso   1.000  F
  F26      1.0000 0.85700  0.46510  0.20610  Biso   1.000  F
  F27      1.0000 0.64300  0.96510  0.29390  Biso   1.000  F
  F28      1.0000 0.14300  0.46510  0.29390  Biso   1.000  F
  F29      1.0000 0.64300  0.03490  0.79390  Biso   1.000  F
  F30      1.0000 0.14300  0.53490  0.79390  Biso   1.000  F
  F31      1.0000 0.35700  0.03490  0.70610  Biso   1.000  F
  F32      1.0000 0.85700  0.53490  0.70610  Biso   1.000  F
  F33      1.0000 0.37900  0.13650  0.17540  Biso   1.000  F
  F34      1.0000 0.87900  0.63650  0.17540  Biso   1.000  F
  F35      1.0000 0.62100  0.13650  0.32460  Biso   1.000  F
  F36      1.0000 0.12100  0.63650  0.32460  Biso   1.000  F
  F37      1.0000 0.62100  0.86350  0.82460  Biso   1.000  F
  F38      1.0000 0.12100  0.36350  0.82460  Biso   1.000  F
  F39      1.0000 0.37900  0.86350  0.67540  Biso   1.000  F
  F40      1.0000 0.87900  0.36350  0.67540  Biso   1.000  F
  F41      1.0000 0.41710  0.95440  0.18700  Biso   1.000  F
  F42      1.0000 0.91710  0.45440  0.18700  Biso   1.000  F
  F43      1.0000 0.58290  0.95440  0.31300  Biso   1.000  F
  F44      1.0000 0.08290  0.45440  0.31300  Biso   1.000  F
  F45      1.0000 0.58290  0.04560  0.81300  Biso   1.000  F
  F46      1.0000 0.08290  0.54560  0.81300  Biso   1.000  F
  F47      1.0000 0.41710  0.04560  0.68700  Biso   1.000  F
  F48      1.0000 0.91710  0.54560  0.68700  Biso   1.000  F
  C9       1.0000 0.33027  0.95470  0.09898  Biso   1.000  C
  C10      1.0000 0.83027  0.45470  0.09898  Biso   1.000  C
  C11      1.0000 0.66973  0.95470  0.40102  Biso   1.000  C
  C12      1.0000 0.16973  0.45470  0.40102  Biso   1.000  C
  C13      1.0000 0.66973  0.04530  0.90102  Biso   1.000  C
  C14      1.0000 0.16973  0.54530  0.90102  Biso   1.000  C
  C15      1.0000 0.33027  0.04530  0.59898  Biso   1.000  C
  C16      1.0000 0.83027  0.54530  0.59898  Biso   1.000  C
  C17      1.0000 0.31873  0.05230  0.05047  Biso   1.000  C
  C18      1.0000 0.81873  0.55230  0.05047  Biso   1.000  C
  C19      1.0000 0.68127  0.05230  0.44953  Biso   1.000  C
  C20      1.0000 0.18127  0.55230  0.44953  Biso   1.000  C
  C21      1.0000 0.68127  0.94770  0.94953  Biso   1.000  C
  C22      1.0000 0.18127  0.44770  0.94953  Biso   1.000  C
  C23      1.0000 0.31873  0.94770  0.55047  Biso   1.000  C
  C24      1.0000 0.81873  0.44770  0.55047  Biso   1.000  C
  H1       1.0000 0.33160  0.14400  0.05890  Biso   1.000  H
  H2       1.0000 0.83160  0.64400  0.05890  Biso   1.000  H
  H3       1.0000 0.66840  0.14400  0.44110  Biso   1.000  H
  H4       1.0000 0.16840  0.64400  0.44110  Biso   1.000  H
  H5       1.0000 0.66840  0.85600  0.94110  Biso   1.000  H
  H6       1.0000 0.16840  0.35600  0.94110  Biso   1.000  H
  H7       1.0000 0.33160  0.85600  0.55890  Biso   1.000  H
  H8       1.0000 0.83160  0.35600  0.55890  Biso   1.000  H
  C25      1.0000 0.28487  0.02510  0.98617  Biso   1.000  C
  C26      1.0000 0.78487  0.52510  0.98617  Biso   1.000  C
  C27      1.0000 0.71513  0.02510  0.51383  Biso   1.000  C
  C28      1.0000 0.21513  0.52510  0.51383  Biso   1.000  C
  C29      1.0000 0.71513  0.97490  0.01383  Biso   1.000  C
  C30      1.0000 0.21513  0.47490  0.01383  Biso   1.000  C
  C31      1.0000 0.28487  0.97490  0.48617  Biso   1.000  C
  C32      1.0000 0.78487  0.47490  0.48617  Biso   1.000  C
  C33      1.0000 0.27502  0.14620  0.94008  Biso   1.000  C
  C34      1.0000 0.77502  0.64620  0.94008  Biso   1.000  C
  C35      1.0000 0.72498  0.14620  0.55992  Biso   1.000  C
  C36      1.0000 0.22498  0.64620  0.55992  Biso   1.000  C
  C37      1.0000 0.72498  0.85380  0.05992  Biso   1.000  C
  C38      1.0000 0.22498  0.35380  0.05992  Biso   1.000  C
  C39      1.0000 0.27502  0.85380  0.44008  Biso   1.000  C
  C40      1.0000 0.77502  0.35380  0.44008  Biso   1.000  C
  F49      1.0000 0.22130  0.15630  0.89350  Biso   1.000  F
  F50      1.0000 0.72130  0.65630  0.89350  Biso   1.000  F
  F51      1.0000 0.77870  0.15630  0.60650  Biso   1.000  F
  F52      1.0000 0.27870  0.65630  0.60650  Biso   1.000  F
  F53      1.0000 0.77870  0.84370  0.10650  Biso   1.000  F
  F54      1.0000 0.27870  0.34370  0.10650  Biso   1.000  F
  F55      1.0000 0.22130  0.84370  0.39350  Biso   1.000  F
  F56      1.0000 0.72130  0.34370  0.39350  Biso   1.000  F
  F57      1.0000 0.28260  0.27470  0.96720  Biso   1.000  F
  F58      1.0000 0.78260  0.77470  0.96720  Biso   1.000  F
  F59      1.0000 0.71740  0.27470  0.53280  Biso   1.000  F
  F60      1.0000 0.21740  0.77470  0.53280  Biso   1.000  F
  F61      1.0000 0.71740  0.72530  0.03280  Biso   1.000  F
  F62      1.0000 0.21740  0.22530  0.03280  Biso   1.000  F
  F63      1.0000 0.28260  0.72530  0.46720  Biso   1.000  F
  F64      1.0000 0.78260  0.22530  0.46720  Biso   1.000  F
  F65      1.0000 0.30750  0.14350  0.92230  Biso   1.000  F
  F66      1.0000 0.80750  0.64350  0.92230  Biso   1.000  F
  F67      1.0000 0.69250  0.14350  0.57770  Biso   1.000  F
  F68      1.0000 0.19250  0.64350  0.57770  Biso   1.000  F
  F69      1.0000 0.69250  0.85650  0.07770  Biso   1.000  F
  F70      1.0000 0.19250  0.35650  0.07770  Biso   1.000  F
  F71      1.0000 0.30750  0.85650  0.42230  Biso   1.000  F
  F72      1.0000 0.80750  0.35650  0.42230  Biso   1.000  F
  F73      1.0000 0.23100  0.15340  0.89610  Biso   1.000  F
  F74      1.0000 0.73100  0.65340  0.89610  Biso   1.000  F
  F75      1.0000 0.76900  0.15340  0.60390  Biso   1.000  F
  F76      1.0000 0.26900  0.65340  0.60390  Biso   1.000  F
  F77      1.0000 0.76900  0.84660  0.10390  Biso   1.000  F
  F78      1.0000 0.26900  0.34660  0.10390  Biso   1.000  F
  F79      1.0000 0.23100  0.84660  0.39610  Biso   1.000  F
  F80      1.0000 0.73100  0.34660  0.39610  Biso   1.000  F
  F81      1.0000 0.29300  0.26270  0.96690  Biso   1.000  F
  F82      1.0000 0.79300  0.76270  0.96690  Biso   1.000  F
  F83      1.0000 0.70700  0.26270  0.53310  Biso   1.000  F
  F84      1.0000 0.20700  0.76270  0.53310  Biso   1.000  F
  F85      1.0000 0.70700  0.73730  0.03310  Biso   1.000  F
  F86      1.0000 0.20700  0.23730  0.03310  Biso   1.000  F
  F87      1.0000 0.29300  0.73730  0.46690  Biso   1.000  F
  F88      1.0000 0.79300  0.23730  0.46690  Biso   1.000  F
  F89      1.0000 0.29880  0.11530  0.90630  Biso   1.000  F
  F90      1.0000 0.79880  0.61530  0.90630  Biso   1.000  F
  F91      1.0000 0.70120  0.11530  0.59370  Biso   1.000  F
  F92      1.0000 0.20120  0.61530  0.59370  Biso   1.000  F
  F93      1.0000 0.70120  0.88470  0.09370  Biso   1.000  F
  F94      1.0000 0.20120  0.38470  0.09370  Biso   1.000  F
  F95      1.0000 0.29880  0.88470  0.40630  Biso   1.000  F
  F96      1.0000 0.79880  0.38470  0.40630  Biso   1.000  F
  O9       1.0000 0.26002  0.91491  0.95836  Biso   1.000  O
  O10      1.0000 0.76002  0.41491  0.95836  Biso   1.000  O
  O11      1.0000 0.73998  0.91491  0.54164  Biso   1.000  O
  O12      1.0000 0.23998  0.41491  0.54164  Biso   1.000  O
  O13      1.0000 0.73998  0.08509  0.04164  Biso   1.000  O
  O14      1.0000 0.23998  0.58509  0.04164  Biso   1.000  O
  O15      1.0000 0.26002  0.08509  0.45836  Biso   1.000  O
  O16      1.0000 0.76002  0.58509  0.45836  Biso   1.000  O
  Cu5      1.0000 0.00000  0.00000  0.00000  Biso   1.000  Cu
  Cu6      1.0000 0.50000  0.50000  0.00000  Biso   1.000  Cu
  Cu7      1.0000 0.00000  0.00000  0.50000  Biso   1.000  Cu
  Cu8      1.0000 0.50000  0.50000  0.50000  Biso   1.000  Cu
  O17      1.0000 0.00009  0.90693  0.07406  Biso   1.000  O
  O18      1.0000 0.50009  0.40693  0.07406  Biso   1.000  O
  O19      1.0000 0.99991  0.90693  0.42594  Biso   1.000  O
  O20      1.0000 0.49991  0.40693  0.42594  Biso   1.000  O
  O21      1.0000 0.99991  0.09307  0.92594  Biso   1.000  O
  O22      1.0000 0.49991  0.59307  0.92594  Biso   1.000  O
  O23      1.0000 0.00009  0.09307  0.57406  Biso   1.000  O
  O24      1.0000 0.50009  0.59307  0.57406  Biso   1.000  O
  C41      1.0000 0.00098  0.73430  0.14135  Biso   1.000  C
  C42      1.0000 0.50098  0.23430  0.14135  Biso   1.000  C
  C43      1.0000 0.99902  0.73430  0.35865  Biso   1.000  C
  C44      1.0000 0.49902  0.23430  0.35865  Biso   1.000  C
  C45      1.0000 0.99902  0.26570  0.85865  Biso   1.000  C
  C46      1.0000 0.49902  0.76570  0.85865  Biso   1.000  C
  C47      1.0000 0.00098  0.26570  0.64135  Biso   1.000  C
  C48      1.0000 0.50098  0.76570  0.64135  Biso   1.000  C
  F97      1.0000 0.01830  0.83400  0.18980  Biso   1.000  F
  F98      1.0000 0.51830  0.33400  0.18980  Biso   1.000  F
  F99      1.0000 0.98170  0.83400  0.31020  Biso   1.000  F
  F100     1.0000 0.48170  0.33400  0.31020  Biso   1.000  F
  F101     1.0000 0.98170  0.16600  0.81020  Biso   1.000  F
  F102     1.0000 0.48170  0.66600  0.81020  Biso   1.000  F
  F103     1.0000 0.01830  0.16600  0.68980  Biso   1.000  F
  F104     1.0000 0.51830  0.66600  0.68980  Biso   1.000  F
  F105     1.0000 0.01940  0.59900  0.15670  Biso   1.000  F
  F106     1.0000 0.51940  0.09900  0.15670  Biso   1.000  F
  F107     1.0000 0.98060  0.59900  0.34330  Biso   1.000  F
  F108     1.0000 0.48060  0.09900  0.34330  Biso   1.000  F
  F109     1.0000 0.98060  0.40100  0.84330  Biso   1.000  F
  F110     1.0000 0.48060  0.90100  0.84330  Biso   1.000  F
  F111     1.0000 0.01940  0.40100  0.65670  Biso   1.000  F
  F112     1.0000 0.51940  0.90100  0.65670  Biso   1.000  F
  F113     1.0000 0.94790  0.74200  0.11520  Biso   1.000  F
  F114     1.0000 0.44790  0.24200  0.11520  Biso   1.000  F
  F115     1.0000 0.05210  0.74200  0.38480  Biso   1.000  F
  F116     1.0000 0.55210  0.24200  0.38480  Biso   1.000  F
  F117     1.0000 0.05210  0.25800  0.88480  Biso   1.000  F
  F118     1.0000 0.55210  0.75800  0.88480  Biso   1.000  F
  F119     1.0000 0.94790  0.25800  0.61520  Biso   1.000  F
  F120     1.0000 0.44790  0.75800  0.61520  Biso   1.000  F
  F121     1.0000 0.02090  0.80180  0.19080  Biso   1.000  F
  F122     1.0000 0.52090  0.30180  0.19080  Biso   1.000  F
  F123     1.0000 0.97910  0.80180  0.30920  Biso   1.000  F
  F124     1.0000 0.47910  0.30180  0.30920  Biso   1.000  F
  F125     1.0000 0.97910  0.19820  0.80920  Biso   1.000  F
  F126     1.0000 0.47910  0.69820  0.80920  Biso   1.000  F
  F127     1.0000 0.02090  0.19820  0.69080  Biso   1.000  F
  F128     1.0000 0.52090  0.69820  0.69080  Biso   1.000  F
  F129     1.0000 0.02080  0.61530  0.17110  Biso   1.000  F
  F130     1.0000 0.52080  0.11530  0.17110  Biso   1.000  F
  F131     1.0000 0.97920  0.61530  0.32890  Biso   1.000  F
  F132     1.0000 0.47920  0.11530  0.32890  Biso   1.000  F
  F133     1.0000 0.97920  0.38470  0.82890  Biso   1.000  F
  F134     1.0000 0.47920  0.88470  0.82890  Biso   1.000  F
  F135     1.0000 0.02080  0.38470  0.67110  Biso   1.000  F
  F136     1.0000 0.52080  0.88470  0.67110  Biso   1.000  F
  F137     1.0000 0.95190  0.70100  0.11420  Biso   1.000  F
  F138     1.0000 0.45190  0.20100  0.11420  Biso   1.000  F
  F139     1.0000 0.04810  0.70100  0.38580  Biso   1.000  F
  F140     1.0000 0.54810  0.20100  0.38580  Biso   1.000  F
  F141     1.0000 0.04810  0.29900  0.88580  Biso   1.000  F
  F142     1.0000 0.54810  0.79900  0.88580  Biso   1.000  F
  F143     1.0000 0.95190  0.29900  0.61420  Biso   1.000  F
  F144     1.0000 0.45190  0.79900  0.61420  Biso   1.000  F
  C49      1.0000 0.01432  0.78430  0.09214  Biso   1.000  C
  C50      1.0000 0.51432  0.28430  0.09214  Biso   1.000  C
  C51      1.0000 0.98568  0.78430  0.40786  Biso   1.000  C
  C52      1.0000 0.48568  0.28430  0.40786  Biso   1.000  C
  C53      1.0000 0.98568  0.21570  0.90786  Biso   1.000  C
  C54      1.0000 0.48568  0.71570  0.90786  Biso   1.000  C
  C55      1.0000 0.01432  0.21570  0.59214  Biso   1.000  C
  C56      1.0000 0.51432  0.71570  0.59214  Biso   1.000  C
  C57      1.0000 0.03879  0.69210  0.07195  Biso   1.000  C
  C58      1.0000 0.53879  0.19210  0.07195  Biso   1.000  C
  C59      1.0000 0.96121  0.69210  0.42805  Biso   1.000  C
  C60      1.0000 0.46121  0.19210  0.42805  Biso   1.000  C
  C61      1.0000 0.96121  0.30790  0.92805  Biso   1.000  C
  C62      1.0000 0.46121  0.80790  0.92805  Biso   1.000  C
  C63      1.0000 0.03879  0.30790  0.57195  Biso   1.000  C
  C64      1.0000 0.53879  0.80790  0.57195  Biso   1.000  C
  H9       1.0000 0.05200  0.61500  0.09060  Biso   1.000  H
  H10      1.0000 0.55200  0.11500  0.09060  Biso   1.000  H
  H11      1.0000 0.94800  0.61500  0.40940  Biso   1.000  H
  H12      1.0000 0.44800  0.11500  0.40940  Biso   1.000  H
  H13      1.0000 0.94800  0.38500  0.90940  Biso   1.000  H
  H14      1.0000 0.44800  0.88500  0.90940  Biso   1.000  H
  H15      1.0000 0.05200  0.38500  0.59060  Biso   1.000  H
  H16      1.0000 0.55200  0.88500  0.59060  Biso   1.000  H
  C65      1.0000 0.04908  0.72720  0.02461  Biso   1.000  C
  C66      1.0000 0.54908  0.22720  0.02461  Biso   1.000  C
  C67      1.0000 0.95092  0.72720  0.47539  Biso   1.000  C
  C68      1.0000 0.45092  0.22720  0.47539  Biso   1.000  C
  C69      1.0000 0.95092  0.27280  0.97539  Biso   1.000  C
  C70      1.0000 0.45092  0.77280  0.97539  Biso   1.000  C
  C71      1.0000 0.04908  0.27280  0.52461  Biso   1.000  C
  C72      1.0000 0.54908  0.77280  0.52461  Biso   1.000  C
  C73      1.0000 0.07394  0.61770  0.00240  Biso   1.000  C
  C74      1.0000 0.57394  0.11770  0.00240  Biso   1.000  C
  C75      1.0000 0.92606  0.61770  0.49760  Biso   1.000  C
  C76      1.0000 0.42606  0.11770  0.49760  Biso   1.000  C
  C77      1.0000 0.92606  0.38230  0.99760  Biso   1.000  C
  C78      1.0000 0.42606  0.88230  0.99760  Biso   1.000  C
  C79      1.0000 0.07394  0.38230  0.50240  Biso   1.000  C
  C80      1.0000 0.57394  0.88230  0.50240  Biso   1.000  C
  F145     1.0000 0.07670  0.49010  0.02450  Biso   1.000  F
  F146     1.0000 0.57670  0.99010  0.02450  Biso   1.000  F
  F147     1.0000 0.92330  0.49010  0.47550  Biso   1.000  F
  F148     1.0000 0.42330  0.99010  0.47550  Biso   1.000  F
  F149     1.0000 0.92330  0.50990  0.97550  Biso   1.000  F
  F150     1.0000 0.42330  0.00990  0.97550  Biso   1.000  F
  F151     1.0000 0.07670  0.50990  0.52450  Biso   1.000  F
  F152     1.0000 0.57670  0.00990  0.52450  Biso   1.000  F
  F153     1.0000 0.11340  0.65600  0.00260  Biso   1.000  F
  F154     1.0000 0.61340  0.15600  0.00260  Biso   1.000  F
  F155     1.0000 0.88660  0.65600  0.49740  Biso   1.000  F
  F156     1.0000 0.38660  0.15600  0.49740  Biso   1.000  F
  F157     1.0000 0.88660  0.34400  0.99740  Biso   1.000  F
  F158     1.0000 0.38660  0.84400  0.99740  Biso   1.000  F
  F159     1.0000 0.11340  0.34400  0.50260  Biso   1.000  F
  F160     1.0000 0.61340  0.84400  0.50260  Biso   1.000  F
  F161     1.0000 0.03633  0.59580  0.93410  Biso   1.000  F
  F162     1.0000 0.53633  0.09580  0.93410  Biso   1.000  F
  F163     1.0000 0.96367  0.59580  0.56590  Biso   1.000  F
  F164     1.0000 0.46367  0.09580  0.56590  Biso   1.000  F
  F165     1.0000 0.96367  0.40420  0.06590  Biso   1.000  F
  F166     1.0000 0.46367  0.90420  0.06590  Biso   1.000  F
  F167     1.0000 0.03633  0.40420  0.43410  Biso   1.000  F
  F168     1.0000 0.53633  0.90420  0.43410  Biso   1.000  F
  F169     1.0000 0.13370  0.62540  0.06200  Biso   1.000  F
  F170     1.0000 0.63370  0.12540  0.06200  Biso   1.000  F
  F171     1.0000 0.86630  0.62540  0.43800  Biso   1.000  F
  F172     1.0000 0.36630  0.12540  0.43800  Biso   1.000  F
  F173     1.0000 0.86630  0.37460  0.93800  Biso   1.000  F
  F174     1.0000 0.36630  0.87460  0.93800  Biso   1.000  F
  F175     1.0000 0.13370  0.37460  0.56200  Biso   1.000  F
  F176     1.0000 0.63370  0.87460  0.56200  Biso   1.000  F
  F177     1.0000 0.08230  0.64630  0.96390  Biso   1.000  F
  F178     1.0000 0.58230  0.14630  0.96390  Biso   1.000  F
  F179     1.0000 0.91770  0.64630  0.53610  Biso   1.000  F
  F180     1.0000 0.41770  0.14630  0.53610  Biso   1.000  F
  F181     1.0000 0.91770  0.35370  0.03610  Biso   1.000  F
  F182     1.0000 0.41770  0.85370  0.03610  Biso   1.000  F
  F183     1.0000 0.08230  0.35370  0.46390  Biso   1.000  F
  F184     1.0000 0.58230  0.85370  0.46390  Biso   1.000  F
  F185     1.0000 0.06920  0.49320  0.01530  Biso   1.000  F
  F186     1.0000 0.56920  0.99320  0.01530  Biso   1.000  F
  F187     1.0000 0.93080  0.49320  0.48470  Biso   1.000  F
  F188     1.0000 0.43080  0.99320  0.48470  Biso   1.000  F
  F189     1.0000 0.93080  0.50680  0.98470  Biso   1.000  F
  F190     1.0000 0.43080  0.00680  0.98470  Biso   1.000  F
  F191     1.0000 0.06920  0.50680  0.51530  Biso   1.000  F
  F192     1.0000 0.56920  0.00680  0.51530  Biso   1.000  F
  O25      1.0000 0.03948  0.84027  0.99464  Biso   1.000  O
  O26      1.0000 0.53948  0.34027  0.99464  Biso   1.000  O
  O27      1.0000 0.96052  0.84027  0.50536  Biso   1.000  O
  O28      1.0000 0.46052  0.34027  0.50536  Biso   1.000  O
  O29      1.0000 0.96052  0.15973  0.00536  Biso   1.000  O
  O30      1.0000 0.46052  0.65973  0.00536  Biso   1.000  O
  O31      1.0000 0.03948  0.15973  0.49464  Biso   1.000  O
  O32      1.0000 0.53948  0.65973  0.49464  Biso   1.000  O
  O33      1.0000 0.07398  0.13013  0.05743  Biso   1.000  O
  O34      1.0000 0.57398  0.63013  0.05743  Biso   1.000  O
  O35      1.0000 0.92602  0.13013  0.44257  Biso   1.000  O
  O36      1.0000 0.42602  0.63013  0.44257  Biso   1.000  O
  O37      1.0000 0.92602  0.86987  0.94257  Biso   1.000  O
  O38      1.0000 0.42602  0.36987  0.94257  Biso   1.000  O
  O39      1.0000 0.07398  0.86987  0.55743  Biso   1.000  O
  O40      1.0000 0.57398  0.36987  0.55743  Biso   1.000  O
  N1       1.0000 0.11518  0.09360  0.11208  Biso   1.000  N
  N2       1.0000 0.61518  0.59360  0.11208  Biso   1.000  N
  N3       1.0000 0.88482  0.09360  0.38792  Biso   1.000  N
  N4       1.0000 0.38482  0.59360  0.38792  Biso   1.000  N
  N5       1.0000 0.88482  0.90640  0.88792  Biso   1.000  N
  N6       1.0000 0.38482  0.40640  0.88792  Biso   1.000  N
  N7       1.0000 0.11518  0.90640  0.61208  Biso   1.000  N
  N8       1.0000 0.61518  0.40640  0.61208  Biso   1.000  N
  C81      1.0000 0.12632  0.15570  0.17434  Biso   1.000  C
  C82      1.0000 0.62632  0.65570  0.17434  Biso   1.000  C
  C83      1.0000 0.87368  0.15570  0.32566  Biso   1.000  C
  C84      1.0000 0.37368  0.65570  0.32566  Biso   1.000  C
  C85      1.0000 0.87368  0.84430  0.82566  Biso   1.000  C
  C86      1.0000 0.37368  0.34430  0.82566  Biso   1.000  C
  C87      1.0000 0.12632  0.84430  0.67434  Biso   1.000  C
  C88      1.0000 0.62632  0.34430  0.67434  Biso   1.000  C
  C89      1.0000 0.14650  0.30520  0.17618  Biso   1.000  C
  C90      1.0000 0.64650  0.80520  0.17618  Biso   1.000  C
  C91      1.0000 0.85350  0.30520  0.32382  Biso   1.000  C
  C92      1.0000 0.35350  0.80520  0.32382  Biso   1.000  C
  C93      1.0000 0.85350  0.69480  0.82382  Biso   1.000  C
  C94      1.0000 0.35350  0.19480  0.82382  Biso   1.000  C
  C95      1.0000 0.14650  0.69480  0.67618  Biso   1.000  C
  C96      1.0000 0.64650  0.19480  0.67618  Biso   1.000  C
  H17      1.0000 0.11880  0.34600  0.14260  Biso   1.000  H
  H18      1.0000 0.61880  0.84600  0.14260  Biso   1.000  H
  H19      1.0000 0.88120  0.34600  0.35740  Biso   1.000  H
  H20      1.0000 0.38120  0.84600  0.35740  Biso   1.000  H
  H21      1.0000 0.88120  0.65400  0.85740  Biso   1.000  H
  H22      1.0000 0.38120  0.15400  0.85740  Biso   1.000  H
  H23      1.0000 0.11880  0.65400  0.64260  Biso   1.000  H
  H24      1.0000 0.61880  0.15400  0.64260  Biso   1.000  H
  H25      1.0000 0.18070  0.30900  0.17410  Biso   1.000  H
  H26      1.0000 0.68070  0.80900  0.17410  Biso   1.000  H
  H27      1.0000 0.81930  0.30900  0.32590  Biso   1.000  H
  H28      1.0000 0.31930  0.80900  0.32590  Biso   1.000  H
  H29      1.0000 0.81930  0.69100  0.82590  Biso   1.000  H
  H30      1.0000 0.31930  0.19100  0.82590  Biso   1.000  H
  H31      1.0000 0.18070  0.69100  0.67410  Biso   1.000  H
  H32      1.0000 0.68070  0.19100  0.67410  Biso   1.000  H
  H33      1.0000 0.15020  0.34900  0.21090  Biso   1.000  H
  H34      1.0000 0.65020  0.84900  0.21090  Biso   1.000  H
  H35      1.0000 0.84980  0.34900  0.28910  Biso   1.000  H
  H36      1.0000 0.34980  0.84900  0.28910  Biso   1.000  H
  H37      1.0000 0.84980  0.65100  0.78910  Biso   1.000  H
  H38      1.0000 0.34980  0.15100  0.78910  Biso   1.000  H
  H39      1.0000 0.15020  0.65100  0.71090  Biso   1.000  H
  H40      1.0000 0.65020  0.15100  0.71090  Biso   1.000  H
  C97      1.0000 0.07618  0.15920  0.17690  Biso   1.000  C
  C98      1.0000 0.57618  0.65920  0.17690  Biso   1.000  C
  C99      1.0000 0.92382  0.15920  0.32310  Biso   1.000  C
  C100     1.0000 0.42382  0.65920  0.32310  Biso   1.000  C
  C101     1.0000 0.92382  0.84080  0.82310  Biso   1.000  C
  C102     1.0000 0.42382  0.34080  0.82310  Biso   1.000  C
  C103     1.0000 0.07618  0.84080  0.67690  Biso   1.000  C
  C104     1.0000 0.57618  0.34080  0.67690  Biso   1.000  C
  H41      1.0000 0.05070  0.23000  0.14500  Biso   1.000  H
  H42      1.0000 0.55070  0.73000  0.14500  Biso   1.000  H
  H43      1.0000 0.94930  0.23000  0.35500  Biso   1.000  H
  H44      1.0000 0.44930  0.73000  0.35500  Biso   1.000  H
  H45      1.0000 0.94930  0.77000  0.85500  Biso   1.000  H
  H46      1.0000 0.44930  0.27000  0.85500  Biso   1.000  H
  H47      1.0000 0.05070  0.77000  0.64500  Biso   1.000  H
  H48      1.0000 0.55070  0.27000  0.64500  Biso   1.000  H
  H49      1.0000 0.08470  0.19500  0.21760  Biso   1.000  H
  H50      1.0000 0.58470  0.69500  0.21760  Biso   1.000  H
  H51      1.0000 0.91530  0.19500  0.28240  Biso   1.000  H
  H52      1.0000 0.41530  0.69500  0.28240  Biso   1.000  H
  H53      1.0000 0.91530  0.80500  0.78240  Biso   1.000  H
  H54      1.0000 0.41530  0.30500  0.78240  Biso   1.000  H
  H55      1.0000 0.08470  0.80500  0.71760  Biso   1.000  H
  H56      1.0000 0.58470  0.30500  0.71760  Biso   1.000  H
  H57      1.0000 0.06170  0.07900  0.17250  Biso   1.000  H
  H58      1.0000 0.56170  0.57900  0.17250  Biso   1.000  H
  H59      1.0000 0.93830  0.07900  0.32750  Biso   1.000  H
  H60      1.0000 0.43830  0.57900  0.32750  Biso   1.000  H
  H61      1.0000 0.93830  0.92100  0.82750  Biso   1.000  H
  H62      1.0000 0.43830  0.42100  0.82750  Biso   1.000  H
  H63      1.0000 0.06170  0.92100  0.67250  Biso   1.000  H
  H64      1.0000 0.56170  0.42100  0.67250  Biso   1.000  H
  C105     1.0000 0.17009  0.05450  0.22204  Biso   1.000  C
  C106     1.0000 0.67009  0.55450  0.22204  Biso   1.000  C
  C107     1.0000 0.82991  0.05450  0.27796  Biso   1.000  C
  C108     1.0000 0.32991  0.55450  0.27796  Biso   1.000  C
  C109     1.0000 0.82991  0.94550  0.77796  Biso   1.000  C
  C110     1.0000 0.32991  0.44550  0.77796  Biso   1.000  C
  C111     1.0000 0.17009  0.94550  0.72204  Biso   1.000  C
  C112     1.0000 0.67009  0.44550  0.72204  Biso   1.000  C
  C113     1.0000 0.14897  0.92200  0.23647  Biso   1.000  C
  C114     1.0000 0.64897  0.42200  0.23647  Biso   1.000  C
  C115     1.0000 0.85103  0.92200  0.26353  Biso   1.000  C
  C116     1.0000 0.35103  0.42200  0.26353  Biso   1.000  C
  C117     1.0000 0.85103  0.07800  0.76353  Biso   1.000  C
  C118     1.0000 0.35103  0.57800  0.76353  Biso   1.000  C
  C119     1.0000 0.14897  0.07800  0.73647  Biso   1.000  C
  C120     1.0000 0.64897  0.57800  0.73647  Biso   1.000  C
  H65      1.0000 0.17650  0.85220  0.25540  Biso   1.000  H
  H66      1.0000 0.67650  0.35220  0.25540  Biso   1.000  H
  H67      1.0000 0.82350  0.85220  0.24460  Biso   1.000  H
  H68      1.0000 0.32350  0.35220  0.24460  Biso   1.000  H
  H69      1.0000 0.82350  0.14780  0.74460  Biso   1.000  H
  H70      1.0000 0.32350  0.64780  0.74460  Biso   1.000  H
  H71      1.0000 0.17650  0.14780  0.75540  Biso   1.000  H
  H72      1.0000 0.67650  0.64780  0.75540  Biso   1.000  H
  H73      1.0000 0.11940  0.88580  0.19730  Biso   1.000  H
  H74      1.0000 0.61940  0.38580  0.19730  Biso   1.000  H
  H75      1.0000 0.88060  0.88580  0.30270  Biso   1.000  H
  H76      1.0000 0.38060  0.38580  0.30270  Biso   1.000  H
  H77      1.0000 0.88060  0.11420  0.80270  Biso   1.000  H
  H78      1.0000 0.38060  0.61420  0.80270  Biso   1.000  H
  H79      1.0000 0.11940  0.11420  0.69730  Biso   1.000  H
  H80      1.0000 0.61940  0.61420  0.69730  Biso   1.000  H
  H81      1.0000 0.13770  0.94450  0.26580  Biso   1.000  H
  H82      1.0000 0.63770  0.44450  0.26580  Biso   1.000  H
  H83      1.0000 0.86230  0.94450  0.23420  Biso   1.000  H
  H84      1.0000 0.36230  0.44450  0.23420  Biso   1.000  H
  H85      1.0000 0.86230  0.05550  0.73420  Biso   1.000  H
  H86      1.0000 0.36230  0.55550  0.73420  Biso   1.000  H
  H87      1.0000 0.13770  0.05550  0.76580  Biso   1.000  H
  H88      1.0000 0.63770  0.55550  0.76580  Biso   1.000  H
  C121     1.0000 0.21362  0.12180  0.28404  Biso   1.000  C
  C122     1.0000 0.71362  0.62180  0.28404  Biso   1.000  C
  C123     1.0000 0.78638  0.12180  0.21596  Biso   1.000  C
  C124     1.0000 0.28638  0.62180  0.21596  Biso   1.000  C
  C125     1.0000 0.78638  0.87820  0.71596  Biso   1.000  C
  C126     1.0000 0.28638  0.37820  0.71596  Biso   1.000  C
  C127     1.0000 0.21362  0.87820  0.78404  Biso   1.000  C
  C128     1.0000 0.71362  0.37820  0.78404  Biso   1.000  C
  H89      1.0000 0.23900  0.05130  0.31050  Biso   1.000  H
  H90      1.0000 0.73900  0.55130  0.31050  Biso   1.000  H
  H91      1.0000 0.76100  0.05130  0.18950  Biso   1.000  H
  H92      1.0000 0.26100  0.55130  0.18950  Biso   1.000  H
  H93      1.0000 0.76100  0.94870  0.68950  Biso   1.000  H
  H94      1.0000 0.26100  0.44870  0.68950  Biso   1.000  H
  H95      1.0000 0.23900  0.94870  0.81050  Biso   1.000  H
  H96      1.0000 0.73900  0.44870  0.81050  Biso   1.000  H
  H97      1.0000 0.19830  0.16260  0.30650  Biso   1.000  H
  H98      1.0000 0.69830  0.66260  0.30650  Biso   1.000  H
  H99      1.0000 0.80170  0.16260  0.19350  Biso   1.000  H
  H100     1.0000 0.30170  0.66260  0.19350  Biso   1.000  H
  H101     1.0000 0.80170  0.83740  0.69350  Biso   1.000  H
  H102     1.0000 0.30170  0.33740  0.69350  Biso   1.000  H
  H103     1.0000 0.19830  0.83740  0.80650  Biso   1.000  H
  H104     1.0000 0.69830  0.33740  0.80650  Biso   1.000  H
  H105     1.0000 0.23100  0.19390  0.27420  Biso   1.000  H
  H106     1.0000 0.73100  0.69390  0.27420  Biso   1.000  H
  H107     1.0000 0.76900  0.19390  0.22580  Biso   1.000  H
  H108     1.0000 0.26900  0.69390  0.22580  Biso   1.000  H
  H109     1.0000 0.76900  0.80610  0.72580  Biso   1.000  H
  H110     1.0000 0.26900  0.30610  0.72580  Biso   1.000  H
  H111     1.0000 0.23100  0.80610  0.77420  Biso   1.000  H
  H112     1.0000 0.73100  0.30610  0.77420  Biso   1.000  H
  N9       1.0000 0.19250  0.00712  0.18257  Biso   1.000  N
  N10      1.0000 0.69250  0.50712  0.18257  Biso   1.000  N
  N11      1.0000 0.80750  0.00712  0.31743  Biso   1.000  N
  N12      1.0000 0.30750  0.50712  0.31743  Biso   1.000  N
  N13      1.0000 0.80750  0.99288  0.81743  Biso   1.000  N
  N14      1.0000 0.30750  0.49288  0.81743  Biso   1.000  N
  N15      1.0000 0.19250  0.99288  0.68257  Biso   1.000  N
  N16      1.0000 0.69250  0.49288  0.68257  Biso   1.000  N
  O41      1.0000 0.23672  0.94510  0.20626  Biso   1.000  O
  O42      1.0000 0.73672  0.44510  0.20626  Biso   1.000  O
  O43      1.0000 0.76328  0.94510  0.29374  Biso   1.000  O
  O44      1.0000 0.26328  0.44510  0.29374  Biso   1.000  O
  O45      1.0000 0.76328  0.05490  0.79374  Biso   1.000  O
  O46      1.0000 0.26328  0.55490  0.79374  Biso   1.000  O
  O47      1.0000 0.23672  0.05490  0.70626  Biso   1.000  O
  O48      1.0000 0.73672  0.55490  0.70626  Biso   1.000  O
  C129     1.0000 0.15656  0.02220  0.11910  Biso   1.000  C
  C130     1.0000 0.65656  0.52220  0.11910  Biso   1.000  C
  C131     1.0000 0.84344  0.02220  0.38090  Biso   1.000  C
  C132     1.0000 0.34344  0.52220  0.38090  Biso   1.000  C
  C133     1.0000 0.84344  0.97780  0.88090  Biso   1.000  C
  C134     1.0000 0.34344  0.47780  0.88090  Biso   1.000  C
  C135     1.0000 0.15656  0.97780  0.61910  Biso   1.000  C
  C136     1.0000 0.65656  0.47780  0.61910  Biso   1.000  C
  C137     1.0000 0.16313  0.97310  0.06815  Biso   1.000  C
  C138     1.0000 0.66313  0.47310  0.06815  Biso   1.000  C
  C139     1.0000 0.83687  0.97310  0.43185  Biso   1.000  C
  C140     1.0000 0.33687  0.47310  0.43185  Biso   1.000  C
  C141     1.0000 0.83687  0.02690  0.93185  Biso   1.000  C
  C142     1.0000 0.33687  0.52690  0.93185  Biso   1.000  C
  C143     1.0000 0.16313  0.02690  0.56815  Biso   1.000  C
  C144     1.0000 0.66313  0.52690  0.56815  Biso   1.000  C
  C145     1.0000 0.20334  0.88800  0.07216  Biso   1.000  C
  C146     1.0000 0.70334  0.38800  0.07216  Biso   1.000  C
  C147     1.0000 0.79666  0.88800  0.42784  Biso   1.000  C
  C148     1.0000 0.29666  0.38800  0.42784  Biso   1.000  C
  C149     1.0000 0.79666  0.11200  0.92784  Biso   1.000  C
  C150     1.0000 0.29666  0.61200  0.92784  Biso   1.000  C
  C151     1.0000 0.20334  0.11200  0.57216  Biso   1.000  C
  C152     1.0000 0.70334  0.61200  0.57216  Biso   1.000  C
  H113     1.0000 0.23090  0.84940  0.11010  Biso   1.000  H
  H114     1.0000 0.73090  0.34940  0.11010  Biso   1.000  H
  H115     1.0000 0.76910  0.84940  0.38990  Biso   1.000  H
  H116     1.0000 0.26910  0.34940  0.38990  Biso   1.000  H
  H117     1.0000 0.76910  0.15060  0.88990  Biso   1.000  H
  H118     1.0000 0.26910  0.65060  0.88990  Biso   1.000  H
  H119     1.0000 0.23090  0.15060  0.61010  Biso   1.000  H
  H120     1.0000 0.73090  0.65060  0.61010  Biso   1.000  H
  N17      1.0000 0.19712  0.86946  0.01500  Biso   1.000  N
  N18      1.0000 0.69712  0.36946  0.01500  Biso   1.000  N
  N19      1.0000 0.80288  0.86946  0.48500  Biso   1.000  N
  N20      1.0000 0.30288  0.36946  0.48500  Biso   1.000  N
  N21      1.0000 0.80288  0.13054  0.98500  Biso   1.000  N
  N22      1.0000 0.30288  0.63054  0.98500  Biso   1.000  N
  N23      1.0000 0.19712  0.13054  0.51500  Biso   1.000  N
  N24      1.0000 0.69712  0.63054  0.51500  Biso   1.000  N
  N25      1.0000 0.15252  0.94362  0.97320  Biso   1.000  N
  N26      1.0000 0.65252  0.44362  0.97320  Biso   1.000  N
  N27      1.0000 0.84748  0.94362  0.52680  Biso   1.000  N
  N28      1.0000 0.34748  0.44362  0.52680  Biso   1.000  N
  N29      1.0000 0.84748  0.05638  0.02680  Biso   1.000  N
  N30      1.0000 0.34748  0.55638  0.02680  Biso   1.000  N
  N31      1.0000 0.15252  0.05638  0.47320  Biso   1.000  N
  N32      1.0000 0.65252  0.55638  0.47320  Biso   1.000  N
  C153     1.0000 0.13223  0.95260  0.90425  Biso   1.000  C
  C154     1.0000 0.63223  0.45260  0.90425  Biso   1.000  C
  C155     1.0000 0.86777  0.95260  0.59575  Biso   1.000  C
  C156     1.0000 0.36777  0.45260  0.59575  Biso   1.000  C
  C157     1.0000 0.86777  0.04740  0.09575  Biso   1.000  C
  C158     1.0000 0.36777  0.54740  0.09575  Biso   1.000  C
  C159     1.0000 0.13223  0.04740  0.40425  Biso   1.000  C
  C160     1.0000 0.63223  0.54740  0.40425  Biso   1.000  C
  H121     1.0000 0.15850  0.91000  0.89800  Biso   1.000  H
  H122     1.0000 0.65850  0.41000  0.89800  Biso   1.000  H
  H123     1.0000 0.84150  0.91000  0.60200  Biso   1.000  H
  H124     1.0000 0.34150  0.41000  0.60200  Biso   1.000  H
  H125     1.0000 0.84150  0.09000  0.10200  Biso   1.000  H
  H126     1.0000 0.34150  0.59000  0.10200  Biso   1.000  H
  H127     1.0000 0.15850  0.09000  0.39800  Biso   1.000  H
  H128     1.0000 0.65850  0.59000  0.39800  Biso   1.000  H
  H129     1.0000 0.12820  0.04400  0.89210  Biso   1.000  H
  H130     1.0000 0.62820  0.54400  0.89210  Biso   1.000  H
  H131     1.0000 0.87180  0.04400  0.60790  Biso   1.000  H
  H132     1.0000 0.37180  0.54400  0.60790  Biso   1.000  H
  H133     1.0000 0.87180  0.95600  0.10790  Biso   1.000  H
  H134     1.0000 0.37180  0.45600  0.10790  Biso   1.000  H
  H135     1.0000 0.12820  0.95600  0.39210  Biso   1.000  H
  H136     1.0000 0.62820  0.45600  0.39210  Biso   1.000  H
  C161     1.0000 0.07889  0.88330  0.86486  Biso   1.000  C
  C162     1.0000 0.57889  0.38330  0.86486  Biso   1.000  C
  C163     1.0000 0.92111  0.88330  0.63514  Biso   1.000  C
  C164     1.0000 0.42111  0.38330  0.63514  Biso   1.000  C
  C165     1.0000 0.92111  0.11670  0.13514  Biso   1.000  C
  C166     1.0000 0.42111  0.61670  0.13514  Biso   1.000  C
  C167     1.0000 0.07889  0.11670  0.36486  Biso   1.000  C
  C168     1.0000 0.57889  0.61670  0.36486  Biso   1.000  C
  H137     1.0000 0.06700  0.89090  0.82010  Biso   1.000  H
  H138     1.0000 0.56700  0.39090  0.82010  Biso   1.000  H
  H139     1.0000 0.93300  0.89090  0.67990  Biso   1.000  H
  H140     1.0000 0.43300  0.39090  0.67990  Biso   1.000  H
  H141     1.0000 0.93300  0.10910  0.17990  Biso   1.000  H
  H142     1.0000 0.43300  0.60910  0.17990  Biso   1.000  H
  H143     1.0000 0.06700  0.10910  0.32010  Biso   1.000  H
  H144     1.0000 0.56700  0.60910  0.32010  Biso   1.000  H
  H145     1.0000 0.05390  0.92900  0.87270  Biso   1.000  H
  H146     1.0000 0.55390  0.42900  0.87270  Biso   1.000  H
  H147     1.0000 0.94610  0.92900  0.62730  Biso   1.000  H
  H148     1.0000 0.44610  0.42900  0.62730  Biso   1.000  H
  H149     1.0000 0.94610  0.07100  0.12730  Biso   1.000  H
  H150     1.0000 0.44610  0.57100  0.12730  Biso   1.000  H
  H151     1.0000 0.05390  0.07100  0.37270  Biso   1.000  H
  H152     1.0000 0.55390  0.57100  0.37270  Biso   1.000  H
  H153     1.0000 0.08170  0.78570  0.87650  Biso   1.000  H
  H154     1.0000 0.58170  0.28570  0.87650  Biso   1.000  H
  H155     1.0000 0.91830  0.78570  0.62350  Biso   1.000  H
  H156     1.0000 0.41830  0.28570  0.62350  Biso   1.000  H
  H157     1.0000 0.91830  0.21430  0.12350  Biso   1.000  H
  H158     1.0000 0.41830  0.71430  0.12350  Biso   1.000  H
  H159     1.0000 0.08170  0.21430  0.37650  Biso   1.000  H
  H160     1.0000 0.58170  0.71430  0.37650  Biso   1.000  H
  C169     1.0000 0.13137  0.00560  0.00360  Biso   1.000  C
  C170     1.0000 0.63137  0.50560  0.00360  Biso   1.000  C
  C171     1.0000 0.86863  0.00560  0.49640  Biso   1.000  C
  C172     1.0000 0.36863  0.50560  0.49640  Biso   1.000  C
  C173     1.0000 0.86863  0.99440  0.99640  Biso   1.000  C
  C174     1.0000 0.36863  0.49440  0.99640  Biso   1.000  C
  C175     1.0000 0.13137  0.99440  0.50360  Biso   1.000  C
  C176     1.0000 0.63137  0.49440  0.50360  Biso   1.000  C
  H161     1.0000 0.10320  0.06100  0.98380  Biso   1.000  H
  H162     1.0000 0.60320  0.56100  0.98380  Biso   1.000  H
  H163     1.0000 0.89680  0.06100  0.51620  Biso   1.000  H
  H164     1.0000 0.39680  0.56100  0.51620  Biso   1.000  H
  H165     1.0000 0.89680  0.93900  0.01620  Biso   1.000  H
  H166     1.0000 0.39680  0.43900  0.01620  Biso   1.000  H
  H167     1.0000 0.10320  0.93900  0.48380  Biso   1.000  H
  H168     1.0000 0.60320  0.43900  0.48380  Biso   1.000  H
