data_image0
_cell_length_a       12.42
_cell_length_b       15.802
_cell_length_c       15.865
_cell_angle_alpha    84.87
_cell_angle_beta     86.76
_cell_angle_gamma    74.04

_symmetry_space_group_name_H-M    "P 1"
_symmetry_int_tables_number       1

loop_
  _symmetry_equiv_pos_as_xyz
  'x, y, z'

loop_
  _atom_site_label
  _atom_site_occupancy
  _atom_site_fract_x
  _atom_site_fract_y
  _atom_site_fract_z
  _atom_site_thermal_displace_type
  _atom_site_B_iso_or_equiv
  _atom_site_type_symbol
  Cu1      1.0000 0.30687  0.29381  0.07677  Biso   1.000  Cu
  Cu2      1.0000 0.69313  0.70619  0.92323  Biso   1.000  Cu
  O1       1.0000 0.02680  0.17670  0.54140  Biso   1.000  O
  O2       1.0000 0.97320  0.82330  0.45860  Biso   1.000  O
  C1       1.0000 0.84570  0.20350  0.49380  Biso   1.000  C
  C2       1.0000 0.15430  0.79650  0.50620  Biso   1.000  C
  F1       1.0000 0.85160  0.12260  0.51470  Biso   1.000  F
  F2       1.0000 0.14840  0.87740  0.48530  Biso   1.000  F
  F3       1.0000 0.86280  0.20170  0.41370  Biso   1.000  F
  F4       1.0000 0.13720  0.79830  0.58630  Biso   1.000  F
  F5       1.0000 0.74910  0.24540  0.50210  Biso   1.000  F
  F6       1.0000 0.25090  0.75460  0.49790  Biso   1.000  F
  C3       1.0000 0.93580  0.23310  0.53490  Biso   1.000  C
  C4       1.0000 0.06420  0.76690  0.46510  Biso   1.000  C
  C5       1.0000 0.90610  0.31700  0.55760  Biso   1.000  C
  C6       1.0000 0.09390  0.68300  0.44240  Biso   1.000  C
  H1       1.0000 0.83400  0.35230  0.54730  Biso   1.000  H
  H2       1.0000 0.16600  0.64770  0.45270  Biso   1.000  H
  C7       1.0000 0.98030  0.35220  0.59590  Biso   1.000  C
  C8       1.0000 0.01970  0.64780  0.40410  Biso   1.000  C
  C9       1.0000 0.93930  0.44620  0.62270  Biso   1.000  C
  C10      1.0000 0.06070  0.55380  0.37730  Biso   1.000  C
  F7       1.0000 0.00970  0.48900  0.61220  Biso   1.000  F
  F8       1.0000 0.99030  0.51100  0.38780  Biso   1.000  F
  F9       1.0000 0.85360  0.49330  0.58740  Biso   1.000  F
  F10      1.0000 0.14640  0.50670  0.41260  Biso   1.000  F
  F11      1.0000 0.91280  0.44690  0.69920  Biso   1.000  F
  F12      1.0000 0.08720  0.55310  0.30080  Biso   1.000  F
  O3       1.0000 0.07920  0.31540  0.61370  Biso   1.000  O
  O4       1.0000 0.92080  0.68460  0.38630  Biso   1.000  O
  O5       1.0000 0.23540  0.06810  0.59040  Biso   1.000  O
  O6       1.0000 0.76460  0.93190  0.40960  Biso   1.000  O
  C11      1.0000 0.38290  0.94250  0.57920  Biso   1.000  C
  C12      1.0000 0.61710  0.05750  0.42080  Biso   1.000  C
  F13      1.0000 0.49430  0.91480  0.57540  Biso   1.000  F
  F14      1.0000 0.50570  0.08520  0.42460  Biso   1.000  F
  F15      1.0000 0.34370  0.88850  0.62690  Biso   1.000  F
  F16      1.0000 0.65630  0.11150  0.37310  Biso   1.000  F
  F17      1.0000 0.35790  0.93160  0.50100  Biso   1.000  F
  F18      1.0000 0.64210  0.06840  0.49900  Biso   1.000  F
  C13      1.0000 0.33860  0.03740  0.60030  Biso   1.000  C
  C14      1.0000 0.66140  0.96260  0.39970  Biso   1.000  C
  C15      1.0000 0.41260  0.07930  0.62890  Biso   1.000  C
  C16      1.0000 0.58740  0.92070  0.37110  Biso   1.000  C
  H3       1.0000 0.48820  0.04910  0.63150  Biso   1.000  H
  H4       1.0000 0.51180  0.95090  0.36850  Biso   1.000  H
  C17      1.0000 0.37780  0.16400  0.65350  Biso   1.000  C
  C18      1.0000 0.62220  0.83600  0.34650  Biso   1.000  C
  C19      1.0000 0.46450  0.20310  0.68630  Biso   1.000  C
  C20      1.0000 0.53550  0.79690  0.31370  Biso   1.000  C
  F19      1.0000 0.44470  0.21070  0.76830  Biso   1.000  F
  F20      1.0000 0.55530  0.78930  0.23170  Biso   1.000  F
  F21      1.0000 0.56540  0.15230  0.68720  Biso   1.000  F
  F22      1.0000 0.43460  0.84770  0.31280  Biso   1.000  F
  F23      1.0000 0.46300  0.27610  0.65460  Biso   1.000  F
  F24      1.0000 0.53700  0.72390  0.34540  Biso   1.000  F
  O7       1.0000 0.28160  0.21510  0.65160  Biso   1.000  O
  O8       1.0000 0.71840  0.78490  0.34840  Biso   1.000  O
  Cu3      1.0000 0.15638  0.19355  0.59477  Biso   1.000  Cu
  Cu4      1.0000 0.84362  0.80645  0.40523  Biso   1.000  Cu
  O9       1.0000 0.25310  0.42100  0.05370  Biso   1.000  O
  O10      1.0000 0.74690  0.57900  0.94630  Biso   1.000  O
  C21      1.0000 0.14500  0.56550  0.05510  Biso   1.000  C
  C22      1.0000 0.85500  0.43450  0.94490  Biso   1.000  C
  F25      1.0000 0.18520  0.58110  0.98310  Biso   1.000  F
  F26      1.0000 0.81480  0.41890  0.01690  Biso   1.000  F
  F27      1.0000 0.18660  0.60540  0.10540  Biso   1.000  F
  F28      1.0000 0.81340  0.39460  0.89460  Biso   1.000  F
  F29      1.0000 0.04040  0.60940  0.05190  Biso   1.000  F
  F30      1.0000 0.95960  0.39060  0.94810  Biso   1.000  F
  C23      1.0000 0.16490  0.46810  0.08320  Biso   1.000  C
  C24      1.0000 0.83510  0.53190  0.91680  Biso   1.000  C
  C25      1.0000 0.08600  0.44210  0.13600  Biso   1.000  C
  C26      1.0000 0.91400  0.55790  0.86400  Biso   1.000  C
  H5       1.0000 0.02240  0.48470  0.15290  Biso   1.000  H
  H6       1.0000 0.97760  0.51530  0.84710  Biso   1.000  H
  C27      1.0000 0.09800  0.35530  0.16460  Biso   1.000  C
  C28      1.0000 0.90200  0.64470  0.83540  Biso   1.000  C
  C29      1.0000 0.00510  0.33380  0.22200  Biso   1.000  C
  C30      1.0000 0.99490  0.66620  0.77800  Biso   1.000  C
  F31      1.0000 0.91350  0.39790  0.22680  Biso   1.000  F
  F32      1.0000 0.08650  0.60210  0.77320  Biso   1.000  F
  F33      1.0000 0.98440  0.26680  0.21240  Biso   1.000  F
  F34      1.0000 0.01560  0.73320  0.78760  Biso   1.000  F
  F35      1.0000 0.03170  0.32980  0.30200  Biso   1.000  F
  F36      1.0000 0.96830  0.67020  0.69800  Biso   1.000  F
  O11      1.0000 0.17530  0.29030  0.14920  Biso   1.000  O
  O12      1.0000 0.82470  0.70970  0.85080  Biso   1.000  O
  O13      1.0000 0.44150  0.29730  0.00930  Biso   1.000  O
  O14      1.0000 0.55850  0.70270  0.99070  Biso   1.000  O
  C31      1.0000 0.61650  0.25150  0.94460  Biso   1.000  C
  C32      1.0000 0.38350  0.74850  0.05540  Biso   1.000  C
  F37      1.0000 0.67440  0.18550  0.90780  Biso   1.000  F
  F38      1.0000 0.32560  0.81450  0.09220  Biso   1.000  F
  F39      1.0000 0.69340  0.26470  0.98620  Biso   1.000  F
  F40      1.0000 0.30660  0.73530  0.01380  Biso   1.000  F
  F41      1.0000 0.59150  0.31090  0.89190  Biso   1.000  F
  F42      1.0000 0.40850  0.68910  0.10810  Biso   1.000  F
  C33      1.0000 0.52500  0.23160  0.00280  Biso   1.000  C
  C34      1.0000 0.47500  0.76840  0.99720  Biso   1.000  C
  C35      1.0000 0.54120  0.14800  0.04160  Biso   1.000  C
  C36      1.0000 0.45880  0.85200  0.95840  Biso   1.000  C
  H7       1.0000 0.60860  0.10590  0.03170  Biso   1.000  H
  H8       1.0000 0.39140  0.89410  0.96830  Biso   1.000  H
  C37      1.0000 0.46120  0.12480  0.09420  Biso   1.000  C
  C38      1.0000 0.53880  0.87520  0.90580  Biso   1.000  C
  C39      1.0000 0.48820  0.03090  0.13550  Biso   1.000  C
  C40      1.0000 0.51180  0.96910  0.86450  Biso   1.000  C
  F43      1.0000 0.41100  0.99440  0.12450  Biso   1.000  F
  F44      1.0000 0.58900  0.00560  0.87550  Biso   1.000  F
  F45      1.0000 0.48220  0.02990  0.21340  Biso   1.000  F
  F46      1.0000 0.51780  0.97010  0.78660  Biso   1.000  F
  F47      1.0000 0.57380  0.97890  0.11170  Biso   1.000  F
  F48      1.0000 0.42620  0.02110  0.88830  Biso   1.000  F
  O15      1.0000 0.36510  0.17120  0.11480  Biso   1.000  O
  O16      1.0000 0.63490  0.82880  0.88520  Biso   1.000  O
  O17      1.0000 0.42040  0.30760  0.19830  Biso   1.000  O
  O18      1.0000 0.57960  0.69240  0.80170  Biso   1.000  O
  N1       1.0000 0.43720  0.35570  0.25520  Biso   1.000  N
  N2       1.0000 0.56280  0.64430  0.74480  Biso   1.000  N
  C41      1.0000 0.51870  0.41010  0.23940  Biso   1.000  C
  C42      1.0000 0.48130  0.58990  0.76060  Biso   1.000  C
  C43      1.0000 0.49840  0.46380  0.15690  Biso   1.000  C
  C44      1.0000 0.50160  0.53620  0.84310  Biso   1.000  C
  H9       1.0000 0.51310  0.42530  0.11160  Biso   1.000  H
  H10      1.0000 0.48690  0.57470  0.88840  Biso   1.000  H
  H11      1.0000 0.54720  0.50180  0.15010  Biso   1.000  H
  H12      1.0000 0.45280  0.49820  0.84990  Biso   1.000  H
  H13      1.0000 0.42190  0.49890  0.15580  Biso   1.000  H
  H14      1.0000 0.57810  0.50110  0.84420  Biso   1.000  H
  C45      1.0000 0.63340  0.34110  0.23640  Biso   1.000  C
  C46      1.0000 0.36660  0.65890  0.76360  Biso   1.000  C
  H15      1.0000 0.64080  0.31070  0.18570  Biso   1.000  H
  H16      1.0000 0.35920  0.68930  0.81430  Biso   1.000  H
  H17      1.0000 0.63910  0.29940  0.28490  Biso   1.000  H
  H18      1.0000 0.36090  0.70060  0.71510  Biso   1.000  H
  H19      1.0000 0.69190  0.37010  0.23660  Biso   1.000  H
  H20      1.0000 0.30810  0.62990  0.76340  Biso   1.000  H
  C47      1.0000 0.49820  0.46150  0.32020  Biso   1.000  C
  C48      1.0000 0.50180  0.53850  0.67980  Biso   1.000  C
  C49      1.0000 0.41560  0.55240  0.30670  Biso   1.000  C
  C50      1.0000 0.58440  0.44760  0.69330  Biso   1.000  C
  H21      1.0000 0.40670  0.58210  0.35790  Biso   1.000  H
  H22      1.0000 0.59330  0.41790  0.64210  Biso   1.000  H
  H23      1.0000 0.34450  0.54600  0.29190  Biso   1.000  H
  H24      1.0000 0.65550  0.45400  0.70810  Biso   1.000  H
  H25      1.0000 0.44360  0.58630  0.26180  Biso   1.000  H
  H26      1.0000 0.55640  0.41370  0.73820  Biso   1.000  H
  C51      1.0000 0.59940  0.46860  0.36230  Biso   1.000  C
  C52      1.0000 0.40060  0.53140  0.63770  Biso   1.000  C
  H27      1.0000 0.57660  0.50250  0.41070  Biso   1.000  H
  H28      1.0000 0.42340  0.49750  0.58930  Biso   1.000  H
  H29      1.0000 0.64240  0.49740  0.32320  Biso   1.000  H
  H30      1.0000 0.35760  0.50260  0.67680  Biso   1.000  H
  H31      1.0000 0.64440  0.41060  0.38020  Biso   1.000  H
  H32      1.0000 0.35560  0.58940  0.61980  Biso   1.000  H
  N3       1.0000 0.43770  0.40730  0.37700  Biso   1.000  N
  N4       1.0000 0.56230  0.59270  0.62300  Biso   1.000  N
  C53      1.0000 0.39890  0.35220  0.33510  Biso   1.000  C
  C54      1.0000 0.60110  0.64780  0.66490  Biso   1.000  C
  C55      1.0000 0.33480  0.29590  0.37110  Biso   1.000  C
  C56      1.0000 0.66520  0.70410  0.62890  Biso   1.000  C
  C57      1.0000 0.28850  0.29140  0.45340  Biso   1.000  C
  C58      1.0000 0.71150  0.70860  0.54660  Biso   1.000  C
  H33      1.0000 0.29350  0.32840  0.49450  Biso   1.000  H
  H34      1.0000 0.70650  0.67160  0.50550  Biso   1.000  H
  N5       1.0000 0.23680  0.22830  0.46570  Biso   1.000  N
  N6       1.0000 0.76320  0.77170  0.53430  Biso   1.000  N
  N7       1.0000 0.24830  0.19170  0.39040  Biso   1.000  N
  N8       1.0000 0.75170  0.80830  0.60960  Biso   1.000  N
  C59      1.0000 0.19920  0.11950  0.37840  Biso   1.000  C
  C60      1.0000 0.80080  0.88050  0.62160  Biso   1.000  C
  H35      1.0000 0.20320  0.08270  0.43110  Biso   1.000  H
  H36      1.0000 0.79680  0.91730  0.56890  Biso   1.000  H
  H37      1.0000 0.12070  0.14440  0.36630  Biso   1.000  H
  H38      1.0000 0.87930  0.85560  0.63370  Biso   1.000  H
  C61      1.0000 0.24600  0.07080  0.31920  Biso   1.000  C
  C62      1.0000 0.75400  0.92920  0.68080  Biso   1.000  C
  H39      1.0000 0.21030  0.02460  0.31620  Biso   1.000  H
  H40      1.0000 0.78970  0.97540  0.68380  Biso   1.000  H
  H41      1.0000 0.32400  0.04520  0.33070  Biso   1.000  H
  H42      1.0000 0.67600  0.95480  0.66930  Biso   1.000  H
  H43      1.0000 0.23970  0.10590  0.26620  Biso   1.000  H
  H44      1.0000 0.76030  0.89410  0.73380  Biso   1.000  H
  C63      1.0000 0.30480  0.23030  0.33350  Biso   1.000  C
  C64      1.0000 0.69520  0.76970  0.66650  Biso   1.000  C
  H45      1.0000 0.32160  0.21590  0.27780  Biso   1.000  H
  H46      1.0000 0.67840  0.78410  0.72220  Biso   1.000  H
  O19      1.0000 0.41610  0.42120  0.45430  Biso   1.000  O
  O20      1.0000 0.58390  0.57880  0.54570  Biso   1.000  O
  O21      1.0000 0.05080  0.16570  0.72580  Biso   1.000  O
  O22      1.0000 0.94920  0.83430  0.27420  Biso   1.000  O
  N9       1.0000 0.07200  0.10120  0.78190  Biso   1.000  N
  N10      1.0000 0.92800  0.89880  0.21810  Biso   1.000  N
  C65      1.0000 0.02080  0.02550  0.78420  Biso   1.000  C
  C66      1.0000 0.97920  0.97450  0.21580  Biso   1.000  C
  C67      1.0000 0.02390  0.99500  0.69410  Biso   1.000  C
  C68      1.0000 0.97610  0.00500  0.30590  Biso   1.000  C
  H47      1.0000 0.10040  0.97260  0.67490  Biso   1.000  H
  H48      1.0000 0.89960  0.02740  0.32510  Biso   1.000  H
  H49      1.0000 0.98700  0.04410  0.65650  Biso   1.000  H
  H50      1.0000 0.01300  0.95590  0.34350  Biso   1.000  H
  H51      1.0000 0.98630  0.94930  0.69500  Biso   1.000  H
  H52      1.0000 0.01370  0.05070  0.30500  Biso   1.000  H
  C69      1.0000 0.89900  0.06170  0.81550  Biso   1.000  C
  C70      1.0000 0.10100  0.93830  0.18450  Biso   1.000  C
  H53      1.0000 0.89770  0.08080  0.87140  Biso   1.000  H
  H54      1.0000 0.10230  0.91920  0.12860  Biso   1.000  H
  H55      1.0000 0.86110  0.01620  0.81670  Biso   1.000  H
  H56      1.0000 0.13890  0.98380  0.18330  Biso   1.000  H
  H57      1.0000 0.86200  0.11080  0.77780  Biso   1.000  H
  H58      1.0000 0.13800  0.88920  0.22220  Biso   1.000  H
  C71      1.0000 0.09390  0.95830  0.84800  Biso   1.000  C
  C72      1.0000 0.90610  0.04170  0.15200  Biso   1.000  C
  C73      1.0000 0.19810  0.89870  0.80870  Biso   1.000  C
  C74      1.0000 0.80190  0.10130  0.19130  Biso   1.000  C
  H59      1.0000 0.23490  0.93360  0.77090  Biso   1.000  H
  H60      1.0000 0.76510  0.06640  0.22910  Biso   1.000  H
  H61      1.0000 0.17750  0.85640  0.77780  Biso   1.000  H
  H62      1.0000 0.82250  0.14360  0.22220  Biso   1.000  H
  H63      1.0000 0.24800  0.86840  0.85250  Biso   1.000  H
  H64      1.0000 0.75200  0.13160  0.14750  Biso   1.000  H
  C75      1.0000 0.03360  0.90430  0.90750  Biso   1.000  C
  C76      1.0000 0.96640  0.09570  0.09250  Biso   1.000  C
  H65      1.0000 0.08650  0.86450  0.94450  Biso   1.000  H
  H66      1.0000 0.91350  0.13550  0.05550  Biso   1.000  H
  H67      1.0000 0.99900  0.87120  0.87500  Biso   1.000  H
  H68      1.0000 0.00100  0.12880  0.12500  Biso   1.000  H
  H69      1.0000 0.97720  0.94320  0.94050  Biso   1.000  H
  H70      1.0000 0.02280  0.05680  0.05950  Biso   1.000  H
  N11      1.0000 0.13470  0.02000  0.89830  Biso   1.000  N
  N12      1.0000 0.86530  0.98000  0.10170  Biso   1.000  N
  O23      1.0000 0.18420  0.99430  0.96760  Biso   1.000  O
  O24      1.0000 0.81580  0.00570  0.03240  Biso   1.000  O
  C77      1.0000 0.12500  0.09850  0.85460  Biso   1.000  C
  C78      1.0000 0.87500  0.90150  0.14540  Biso   1.000  C
  C79      1.0000 0.16450  0.16950  0.88000  Biso   1.000  C
  C80      1.0000 0.83550  0.83050  0.12000  Biso   1.000  C
  C81      1.0000 0.20900  0.17660  0.95700  Biso   1.000  C
  C82      1.0000 0.79100  0.82340  0.04300  Biso   1.000  C
  H71      1.0000 0.21980  0.13310  0.00160  Biso   1.000  H
  H72      1.0000 0.78020  0.86690  0.99840  Biso   1.000  H
  N13      1.0000 0.23370  0.25200  0.95900  Biso   1.000  N
  N14      1.0000 0.76630  0.74800  0.04100  Biso   1.000  N
  N15      1.0000 0.20810  0.29420  0.88150  Biso   1.000  N
  N16      1.0000 0.79190  0.70580  0.11850  Biso   1.000  N
  C83      1.0000 0.23210  0.37850  0.85840  Biso   1.000  C
  C84      1.0000 0.76790  0.62150  0.14160  Biso   1.000  C
  H73      1.0000 0.18700  0.42210  0.89460  Biso   1.000  H
  H74      1.0000 0.81300  0.57790  0.10540  Biso   1.000  H
  H75      1.0000 0.31030  0.37250  0.86840  Biso   1.000  H
  H76      1.0000 0.68970  0.62750  0.13160  Biso   1.000  H
  C85      1.0000 0.21000  0.40990  0.77090  Biso   1.000  C
  C86      1.0000 0.79000  0.59010  0.22910  Biso   1.000  C
  H77      1.0000 0.22520  0.46620  0.75980  Biso   1.000  H
  H78      1.0000 0.77480  0.53380  0.24020  Biso   1.000  H
  H79      1.0000 0.13270  0.41570  0.76040  Biso   1.000  H
  H80      1.0000 0.86730  0.58430  0.23960  Biso   1.000  H
  H81      1.0000 0.25700  0.36850  0.73460  Biso   1.000  H
  H82      1.0000 0.74300  0.63150  0.26540  Biso   1.000  H
  C87      1.0000 0.16520  0.24750  0.83360  Biso   1.000  C
  C88      1.0000 0.83480  0.75250  0.16640  Biso   1.000  C
  H83      1.0000 0.14030  0.26430  0.77880  Biso   1.000  H
  H84      1.0000 0.85970  0.73570  0.22120  Biso   1.000  H
