data_image0
_cell_length_a       29.811
_cell_length_b       9.407
_cell_length_c       24.659
_cell_angle_alpha    90
_cell_angle_beta     123.169
_cell_angle_gamma    90

_symmetry_space_group_name_H-M    "P 1"
_symmetry_int_tables_number       1

loop_
  _symmetry_equiv_pos_as_xyz
  'x, y, z'

loop_
  _atom_site_label
  _atom_site_occupancy
  _atom_site_fract_x
  _atom_site_fract_y
  _atom_site_fract_z
  _atom_site_thermal_displace_type
  _atom_site_B_iso_or_equiv
  _atom_site_type_symbol
  Cu1      1.0000 0.25000  0.75000  0.00000  Biso   1.000  Cu
  Cu2      1.0000 0.75000  0.25000  0.00000  Biso   1.000  Cu
  Cu3      1.0000 0.75000  0.75000  0.50000  Biso   1.000  Cu
  Cu4      1.0000 0.25000  0.25000  0.50000  Biso   1.000  Cu
  O1       1.0000 0.31101  0.82770  0.08850  Biso   1.000  O
  O2       1.0000 0.81101  0.32770  0.08850  Biso   1.000  O
  O3       1.0000 0.68899  0.82770  0.41150  Biso   1.000  O
  O4       1.0000 0.18899  0.32770  0.41150  Biso   1.000  O
  O5       1.0000 0.68899  0.17230  0.91150  Biso   1.000  O
  O6       1.0000 0.18899  0.67230  0.91150  Biso   1.000  O
  O7       1.0000 0.31101  0.17230  0.58850  Biso   1.000  O
  O8       1.0000 0.81101  0.67230  0.58850  Biso   1.000  O
  C1       1.0000 0.36860  0.99030  0.16620  Biso   1.000  C
  C2       1.0000 0.86860  0.49030  0.16620  Biso   1.000  C
  C3       1.0000 0.63140  0.99030  0.33380  Biso   1.000  C
  C4       1.0000 0.13140  0.49030  0.33380  Biso   1.000  C
  C5       1.0000 0.63140  0.00970  0.83380  Biso   1.000  C
  C6       1.0000 0.13140  0.50970  0.83380  Biso   1.000  C
  C7       1.0000 0.36860  0.00970  0.66620  Biso   1.000  C
  C8       1.0000 0.86860  0.50970  0.66620  Biso   1.000  C
  F1       1.0000 0.40530  0.89530  0.19890  Biso   1.000  F
  F2       1.0000 0.90530  0.39530  0.19890  Biso   1.000  F
  F3       1.0000 0.59470  0.89530  0.30110  Biso   1.000  F
  F4       1.0000 0.09470  0.39530  0.30110  Biso   1.000  F
  F5       1.0000 0.59470  0.10470  0.80110  Biso   1.000  F
  F6       1.0000 0.09470  0.60470  0.80110  Biso   1.000  F
  F7       1.0000 0.40530  0.10470  0.69890  Biso   1.000  F
  F8       1.0000 0.90530  0.60470  0.69890  Biso   1.000  F
  F9       1.0000 0.33850  0.00960  0.19270  Biso   1.000  F
  F10      1.0000 0.83850  0.50960  0.19270  Biso   1.000  F
  F11      1.0000 0.66150  0.00960  0.30730  Biso   1.000  F
  F12      1.0000 0.16150  0.50960  0.30730  Biso   1.000  F
  F13      1.0000 0.66150  0.99040  0.80730  Biso   1.000  F
  F14      1.0000 0.16150  0.49040  0.80730  Biso   1.000  F
  F15      1.0000 0.33850  0.99040  0.69270  Biso   1.000  F
  F16      1.0000 0.83850  0.49040  0.69270  Biso   1.000  F
  F17      1.0000 0.39050  0.11270  0.17360  Biso   1.000  F
  F18      1.0000 0.89050  0.61270  0.17360  Biso   1.000  F
  F19      1.0000 0.60950  0.11270  0.32640  Biso   1.000  F
  F20      1.0000 0.10950  0.61270  0.32640  Biso   1.000  F
  F21      1.0000 0.60950  0.88730  0.82640  Biso   1.000  F
  F22      1.0000 0.10950  0.38730  0.82640  Biso   1.000  F
  F23      1.0000 0.39050  0.88730  0.67360  Biso   1.000  F
  F24      1.0000 0.89050  0.38730  0.67360  Biso   1.000  F
  C9       1.0000 0.32950  0.94750  0.09570  Biso   1.000  C
  C10      1.0000 0.82950  0.44750  0.09570  Biso   1.000  C
  C11      1.0000 0.67050  0.94750  0.40430  Biso   1.000  C
  C12      1.0000 0.17050  0.44750  0.40430  Biso   1.000  C
  C13      1.0000 0.67050  0.05250  0.90430  Biso   1.000  C
  C14      1.0000 0.17050  0.55250  0.90430  Biso   1.000  C
  C15      1.0000 0.32950  0.05250  0.59570  Biso   1.000  C
  C16      1.0000 0.82950  0.55250  0.59570  Biso   1.000  C
  C17      1.0000 0.31770  0.04890  0.04850  Biso   1.000  C
  C18      1.0000 0.81770  0.54890  0.04850  Biso   1.000  C
  C19      1.0000 0.68230  0.04890  0.45150  Biso   1.000  C
  C20      1.0000 0.18230  0.54890  0.45150  Biso   1.000  C
  C21      1.0000 0.68230  0.95110  0.95150  Biso   1.000  C
  C22      1.0000 0.18230  0.45110  0.95150  Biso   1.000  C
  C23      1.0000 0.31770  0.95110  0.54850  Biso   1.000  C
  C24      1.0000 0.81770  0.45110  0.54850  Biso   1.000  C
  H1       1.0000 0.33400  0.13750  0.06160  Biso   1.000  H
  H2       1.0000 0.83400  0.63750  0.06160  Biso   1.000  H
  H3       1.0000 0.66600  0.13750  0.43840  Biso   1.000  H
  H4       1.0000 0.16600  0.63750  0.43840  Biso   1.000  H
  H5       1.0000 0.66600  0.86250  0.93840  Biso   1.000  H
  H6       1.0000 0.16600  0.36250  0.93840  Biso   1.000  H
  H7       1.0000 0.33400  0.86250  0.56160  Biso   1.000  H
  H8       1.0000 0.83400  0.36250  0.56160  Biso   1.000  H
  C25      1.0000 0.28300  0.02400  0.98330  Biso   1.000  C
  C26      1.0000 0.78300  0.52400  0.98330  Biso   1.000  C
  C27      1.0000 0.71700  0.02400  0.51670  Biso   1.000  C
  C28      1.0000 0.21700  0.52400  0.51670  Biso   1.000  C
  C29      1.0000 0.71700  0.97600  0.01670  Biso   1.000  C
  C30      1.0000 0.21700  0.47600  0.01670  Biso   1.000  C
  C31      1.0000 0.28300  0.97600  0.48330  Biso   1.000  C
  C32      1.0000 0.78300  0.47600  0.48330  Biso   1.000  C
  C33      1.0000 0.27310  0.14530  0.93860  Biso   1.000  C
  C34      1.0000 0.77310  0.64530  0.93860  Biso   1.000  C
  C35      1.0000 0.72690  0.14530  0.56140  Biso   1.000  C
  C36      1.0000 0.22690  0.64530  0.56140  Biso   1.000  C
  C37      1.0000 0.72690  0.85470  0.06140  Biso   1.000  C
  C38      1.0000 0.22690  0.35470  0.06140  Biso   1.000  C
  C39      1.0000 0.27310  0.85470  0.43860  Biso   1.000  C
  C40      1.0000 0.77310  0.35470  0.43860  Biso   1.000  C
  F25      1.0000 0.22240  0.15900  0.89600  Biso   1.000  F
  F26      1.0000 0.72240  0.65900  0.89600  Biso   1.000  F
  F27      1.0000 0.77760  0.15900  0.60400  Biso   1.000  F
  F28      1.0000 0.27760  0.65900  0.60400  Biso   1.000  F
  F29      1.0000 0.77760  0.84100  0.10400  Biso   1.000  F
  F30      1.0000 0.27760  0.34100  0.10400  Biso   1.000  F
  F31      1.0000 0.22240  0.84100  0.39600  Biso   1.000  F
  F32      1.0000 0.72240  0.34100  0.39600  Biso   1.000  F
  F33      1.0000 0.27840  0.27200  0.96610  Biso   1.000  F
  F34      1.0000 0.77840  0.77200  0.96610  Biso   1.000  F
  F35      1.0000 0.72160  0.27200  0.53390  Biso   1.000  F
  F36      1.0000 0.22160  0.77200  0.53390  Biso   1.000  F
  F37      1.0000 0.72160  0.72800  0.03390  Biso   1.000  F
  F38      1.0000 0.22160  0.22800  0.03390  Biso   1.000  F
  F39      1.0000 0.27840  0.72800  0.46610  Biso   1.000  F
  F40      1.0000 0.77840  0.22800  0.46610  Biso   1.000  F
  F41      1.0000 0.30860  0.14600  0.91980  Biso   1.000  F
  F42      1.0000 0.80860  0.64600  0.91980  Biso   1.000  F
  F43      1.0000 0.69140  0.14600  0.58020  Biso   1.000  F
  F44      1.0000 0.19140  0.64600  0.58020  Biso   1.000  F
  F45      1.0000 0.69140  0.85400  0.08020  Biso   1.000  F
  F46      1.0000 0.19140  0.35400  0.08020  Biso   1.000  F
  F47      1.0000 0.30860  0.85400  0.41980  Biso   1.000  F
  F48      1.0000 0.80860  0.35400  0.41980  Biso   1.000  F
  O9       1.0000 0.25720  0.91420  0.95612  Biso   1.000  O
  O10      1.0000 0.75720  0.41420  0.95612  Biso   1.000  O
  O11      1.0000 0.74280  0.91420  0.54388  Biso   1.000  O
  O12      1.0000 0.24280  0.41420  0.54388  Biso   1.000  O
  O13      1.0000 0.74280  0.08580  0.04388  Biso   1.000  O
  O14      1.0000 0.24280  0.58580  0.04388  Biso   1.000  O
  O15      1.0000 0.25720  0.08580  0.45612  Biso   1.000  O
  O16      1.0000 0.75720  0.58580  0.45612  Biso   1.000  O
  Cu5      1.0000 0.00000  0.00000  0.00000  Biso   1.000  Cu
  Cu6      1.0000 0.50000  0.50000  0.00000  Biso   1.000  Cu
  Cu7      1.0000 0.00000  0.00000  0.50000  Biso   1.000  Cu
  Cu8      1.0000 0.50000  0.50000  0.50000  Biso   1.000  Cu
  O17      1.0000 0.00329  0.90030  0.07640  Biso   1.000  O
  O18      1.0000 0.50329  0.40030  0.07640  Biso   1.000  O
  O19      1.0000 0.99671  0.90030  0.42360  Biso   1.000  O
  O20      1.0000 0.49671  0.40030  0.42360  Biso   1.000  O
  O21      1.0000 0.99671  0.09970  0.92360  Biso   1.000  O
  O22      1.0000 0.49671  0.59970  0.92360  Biso   1.000  O
  O23      1.0000 0.00329  0.09970  0.57640  Biso   1.000  O
  O24      1.0000 0.50329  0.59970  0.57640  Biso   1.000  O
  C41      1.0000 0.00570  0.72110  0.14100  Biso   1.000  C
  C42      1.0000 0.50570  0.22110  0.14100  Biso   1.000  C
  C43      1.0000 0.99430  0.72110  0.35900  Biso   1.000  C
  C44      1.0000 0.49430  0.22110  0.35900  Biso   1.000  C
  C45      1.0000 0.99430  0.27890  0.85900  Biso   1.000  C
  C46      1.0000 0.49430  0.77890  0.85900  Biso   1.000  C
  C47      1.0000 0.00570  0.27890  0.64100  Biso   1.000  C
  C48      1.0000 0.50570  0.77890  0.64100  Biso   1.000  C
  F49      1.0000 0.02480  0.81700  0.18930  Biso   1.000  F
  F50      1.0000 0.52480  0.31700  0.18930  Biso   1.000  F
  F51      1.0000 0.97520  0.81700  0.31070  Biso   1.000  F
  F52      1.0000 0.47520  0.31700  0.31070  Biso   1.000  F
  F53      1.0000 0.97520  0.18300  0.81070  Biso   1.000  F
  F54      1.0000 0.47520  0.68300  0.81070  Biso   1.000  F
  F55      1.0000 0.02480  0.18300  0.68930  Biso   1.000  F
  F56      1.0000 0.52480  0.68300  0.68930  Biso   1.000  F
  F57      1.0000 0.03760  0.58900  0.16640  Biso   1.000  F
  F58      1.0000 0.53760  0.08900  0.16640  Biso   1.000  F
  F59      1.0000 0.96240  0.58900  0.33360  Biso   1.000  F
  F60      1.0000 0.46240  0.08900  0.33360  Biso   1.000  F
  F61      1.0000 0.96240  0.41100  0.83360  Biso   1.000  F
  F62      1.0000 0.46240  0.91100  0.83360  Biso   1.000  F
  F63      1.0000 0.03760  0.41100  0.66640  Biso   1.000  F
  F64      1.0000 0.53760  0.91100  0.66640  Biso   1.000  F
  F65      1.0000 0.94540  0.71400  0.10870  Biso   1.000  F
  F66      1.0000 0.44540  0.21400  0.10870  Biso   1.000  F
  F67      1.0000 0.05460  0.71400  0.39130  Biso   1.000  F
  F68      1.0000 0.55460  0.21400  0.39130  Biso   1.000  F
  F69      1.0000 0.05460  0.28600  0.89130  Biso   1.000  F
  F70      1.0000 0.55460  0.78600  0.89130  Biso   1.000  F
  F71      1.0000 0.94540  0.28600  0.60870  Biso   1.000  F
  F72      1.0000 0.44540  0.78600  0.60870  Biso   1.000  F
  C49      1.0000 0.01780  0.77500  0.09290  Biso   1.000  C
  C50      1.0000 0.51780  0.27500  0.09290  Biso   1.000  C
  C51      1.0000 0.98220  0.77500  0.40710  Biso   1.000  C
  C52      1.0000 0.48220  0.27500  0.40710  Biso   1.000  C
  C53      1.0000 0.98220  0.22500  0.90710  Biso   1.000  C
  C54      1.0000 0.48220  0.72500  0.90710  Biso   1.000  C
  C55      1.0000 0.01780  0.22500  0.59290  Biso   1.000  C
  C56      1.0000 0.51780  0.72500  0.59290  Biso   1.000  C
  C57      1.0000 0.04270  0.68720  0.07240  Biso   1.000  C
  C58      1.0000 0.54270  0.18720  0.07240  Biso   1.000  C
  C59      1.0000 0.95730  0.68720  0.42760  Biso   1.000  C
  C60      1.0000 0.45730  0.18720  0.42760  Biso   1.000  C
  C61      1.0000 0.95730  0.31280  0.92760  Biso   1.000  C
  C62      1.0000 0.45730  0.81280  0.92760  Biso   1.000  C
  C63      1.0000 0.04270  0.31280  0.57240  Biso   1.000  C
  C64      1.0000 0.54270  0.81280  0.57240  Biso   1.000  C
  H9       1.0000 0.05480  0.59850  0.09170  Biso   1.000  H
  H10      1.0000 0.55480  0.09850  0.09170  Biso   1.000  H
  H11      1.0000 0.94520  0.59850  0.40830  Biso   1.000  H
  H12      1.0000 0.44520  0.09850  0.40830  Biso   1.000  H
  H13      1.0000 0.94520  0.40150  0.90830  Biso   1.000  H
  H14      1.0000 0.44520  0.90150  0.90830  Biso   1.000  H
  H15      1.0000 0.05480  0.40150  0.59170  Biso   1.000  H
  H16      1.0000 0.55480  0.90150  0.59170  Biso   1.000  H
  C65      1.0000 0.04990  0.72670  0.02450  Biso   1.000  C
  C66      1.0000 0.54990  0.22670  0.02450  Biso   1.000  C
  C67      1.0000 0.95010  0.72670  0.47550  Biso   1.000  C
  C68      1.0000 0.45010  0.22670  0.47550  Biso   1.000  C
  C69      1.0000 0.95010  0.27330  0.97550  Biso   1.000  C
  C70      1.0000 0.45010  0.77330  0.97550  Biso   1.000  C
  C71      1.0000 0.04990  0.27330  0.52450  Biso   1.000  C
  C72      1.0000 0.54990  0.77330  0.52450  Biso   1.000  C
  C73      1.0000 0.07620  0.62020  0.00330  Biso   1.000  C
  C74      1.0000 0.57620  0.12020  0.00330  Biso   1.000  C
  C75      1.0000 0.92380  0.62020  0.49670  Biso   1.000  C
  C76      1.0000 0.42380  0.12020  0.49670  Biso   1.000  C
  C77      1.0000 0.92380  0.37980  0.99670  Biso   1.000  C
  C78      1.0000 0.42380  0.87980  0.99670  Biso   1.000  C
  C79      1.0000 0.07620  0.37980  0.50330  Biso   1.000  C
  C80      1.0000 0.57620  0.87980  0.50330  Biso   1.000  C
  F73      1.0000 0.07590  0.48900  0.02300  Biso   1.000  F
  F74      1.0000 0.57590  0.98900  0.02300  Biso   1.000  F
  F75      1.0000 0.92410  0.48900  0.47700  Biso   1.000  F
  F76      1.0000 0.42410  0.98900  0.47700  Biso   1.000  F
  F77      1.0000 0.92410  0.51100  0.97700  Biso   1.000  F
  F78      1.0000 0.42410  0.01100  0.97700  Biso   1.000  F
  F79      1.0000 0.07590  0.51100  0.52300  Biso   1.000  F
  F80      1.0000 0.57590  0.01100  0.52300  Biso   1.000  F
  F81      1.0000 0.11590  0.65620  0.00400  Biso   1.000  F
  F82      1.0000 0.61590  0.15620  0.00400  Biso   1.000  F
  F83      1.0000 0.88410  0.65620  0.49600  Biso   1.000  F
  F84      1.0000 0.38410  0.15620  0.49600  Biso   1.000  F
  F85      1.0000 0.88410  0.34380  0.99600  Biso   1.000  F
  F86      1.0000 0.38410  0.84380  0.99600  Biso   1.000  F
  F87      1.0000 0.11590  0.34380  0.50400  Biso   1.000  F
  F88      1.0000 0.61590  0.84380  0.50400  Biso   1.000  F
  F89      1.0000 0.03990  0.60260  0.93370  Biso   1.000  F
  F90      1.0000 0.53990  0.10260  0.93370  Biso   1.000  F
  F91      1.0000 0.96010  0.60260  0.56630  Biso   1.000  F
  F92      1.0000 0.46010  0.10260  0.56630  Biso   1.000  F
  F93      1.0000 0.96010  0.39740  0.06630  Biso   1.000  F
  F94      1.0000 0.46010  0.89740  0.06630  Biso   1.000  F
  F95      1.0000 0.03990  0.39740  0.43370  Biso   1.000  F
  F96      1.0000 0.53990  0.89740  0.43370  Biso   1.000  F
  O25      1.0000 0.04030  0.84170  0.99530  Biso   1.000  O
  O26      1.0000 0.54030  0.34170  0.99530  Biso   1.000  O
  O27      1.0000 0.95970  0.84170  0.50470  Biso   1.000  O
  O28      1.0000 0.45970  0.34170  0.50470  Biso   1.000  O
  O29      1.0000 0.95970  0.15830  0.00470  Biso   1.000  O
  O30      1.0000 0.45970  0.65830  0.00470  Biso   1.000  O
  O31      1.0000 0.04030  0.15830  0.49530  Biso   1.000  O
  O32      1.0000 0.54030  0.65830  0.49530  Biso   1.000  O
  O33      1.0000 0.07095  0.13270  0.05518  Biso   1.000  O
  O34      1.0000 0.57095  0.63270  0.05518  Biso   1.000  O
  O35      1.0000 0.92905  0.13270  0.44482  Biso   1.000  O
  O36      1.0000 0.42905  0.63270  0.44482  Biso   1.000  O
  O37      1.0000 0.92905  0.86730  0.94482  Biso   1.000  O
  O38      1.0000 0.42905  0.36730  0.94482  Biso   1.000  O
  O39      1.0000 0.07095  0.86730  0.55518  Biso   1.000  O
  O40      1.0000 0.57095  0.36730  0.55518  Biso   1.000  O
  N1       1.0000 0.11380  0.09930  0.11120  Biso   1.000  N
  N2       1.0000 0.61380  0.59930  0.11120  Biso   1.000  N
  N3       1.0000 0.88620  0.09930  0.38880  Biso   1.000  N
  N4       1.0000 0.38620  0.59930  0.38880  Biso   1.000  N
  N5       1.0000 0.88620  0.90070  0.88880  Biso   1.000  N
  N6       1.0000 0.38620  0.40070  0.88880  Biso   1.000  N
  N7       1.0000 0.11380  0.90070  0.61120  Biso   1.000  N
  N8       1.0000 0.61380  0.40070  0.61120  Biso   1.000  N
  C81      1.0000 0.12570  0.16020  0.17330  Biso   1.000  C
  C82      1.0000 0.62570  0.66020  0.17330  Biso   1.000  C
  C83      1.0000 0.87430  0.16020  0.32670  Biso   1.000  C
  C84      1.0000 0.37430  0.66020  0.32670  Biso   1.000  C
  C85      1.0000 0.87430  0.83980  0.82670  Biso   1.000  C
  C86      1.0000 0.37430  0.33980  0.82670  Biso   1.000  C
  C87      1.0000 0.12570  0.83980  0.67330  Biso   1.000  C
  C88      1.0000 0.62570  0.33980  0.67330  Biso   1.000  C
  C89      1.0000 0.14550  0.31230  0.17390  Biso   1.000  C
  C90      1.0000 0.64550  0.81230  0.17390  Biso   1.000  C
  C91      1.0000 0.85450  0.31230  0.32610  Biso   1.000  C
  C92      1.0000 0.35450  0.81230  0.32610  Biso   1.000  C
  C93      1.0000 0.85450  0.68770  0.82610  Biso   1.000  C
  C94      1.0000 0.35450  0.18770  0.82610  Biso   1.000  C
  C95      1.0000 0.14550  0.68770  0.67390  Biso   1.000  C
  C96      1.0000 0.64550  0.18770  0.67390  Biso   1.000  C
  H17      1.0000 0.11560  0.37020  0.14330  Biso   1.000  H
  H18      1.0000 0.61560  0.87020  0.14330  Biso   1.000  H
  H19      1.0000 0.88440  0.37020  0.35670  Biso   1.000  H
  H20      1.0000 0.38440  0.87020  0.35670  Biso   1.000  H
  H21      1.0000 0.88440  0.62980  0.85670  Biso   1.000  H
  H22      1.0000 0.38440  0.12980  0.85670  Biso   1.000  H
  H23      1.0000 0.11560  0.62980  0.64330  Biso   1.000  H
  H24      1.0000 0.61560  0.12980  0.64330  Biso   1.000  H
  H25      1.0000 0.17130  0.30910  0.16220  Biso   1.000  H
  H26      1.0000 0.67130  0.80910  0.16220  Biso   1.000  H
  H27      1.0000 0.82870  0.30910  0.33780  Biso   1.000  H
  H28      1.0000 0.32870  0.80910  0.33780  Biso   1.000  H
  H29      1.0000 0.82870  0.69090  0.83780  Biso   1.000  H
  H30      1.0000 0.32870  0.19090  0.83780  Biso   1.000  H
  H31      1.0000 0.17130  0.69090  0.66220  Biso   1.000  H
  H32      1.0000 0.67130  0.19090  0.66220  Biso   1.000  H
  H33      1.0000 0.16170  0.35210  0.21650  Biso   1.000  H
  H34      1.0000 0.66170  0.85210  0.21650  Biso   1.000  H
  H35      1.0000 0.83830  0.35210  0.28350  Biso   1.000  H
  H36      1.0000 0.33830  0.85210  0.28350  Biso   1.000  H
  H37      1.0000 0.83830  0.64790  0.78350  Biso   1.000  H
  H38      1.0000 0.33830  0.14790  0.78350  Biso   1.000  H
  H39      1.0000 0.16170  0.64790  0.71650  Biso   1.000  H
  H40      1.0000 0.66170  0.14790  0.71650  Biso   1.000  H
  C97      1.0000 0.07600  0.15990  0.17470  Biso   1.000  C
  C98      1.0000 0.57600  0.65990  0.17470  Biso   1.000  C
  C99      1.0000 0.92400  0.15990  0.32530  Biso   1.000  C
  C100     1.0000 0.42400  0.65990  0.32530  Biso   1.000  C
  C101     1.0000 0.92400  0.84010  0.82530  Biso   1.000  C
  C102     1.0000 0.42400  0.34010  0.82530  Biso   1.000  C
  C103     1.0000 0.07600  0.84010  0.67470  Biso   1.000  C
  C104     1.0000 0.57600  0.34010  0.67470  Biso   1.000  C
  H41      1.0000 0.06510  0.06360  0.17430  Biso   1.000  H
  H42      1.0000 0.56510  0.56360  0.17430  Biso   1.000  H
  H43      1.0000 0.93490  0.06360  0.32570  Biso   1.000  H
  H44      1.0000 0.43490  0.56360  0.32570  Biso   1.000  H
  H45      1.0000 0.93490  0.93640  0.82570  Biso   1.000  H
  H46      1.0000 0.43490  0.43640  0.82570  Biso   1.000  H
  H47      1.0000 0.06510  0.93640  0.67430  Biso   1.000  H
  H48      1.0000 0.56510  0.43640  0.67430  Biso   1.000  H
  H49      1.0000 0.04780  0.20930  0.13740  Biso   1.000  H
  H50      1.0000 0.54780  0.70930  0.13740  Biso   1.000  H
  H51      1.0000 0.95220  0.20930  0.36260  Biso   1.000  H
  H52      1.0000 0.45220  0.70930  0.36260  Biso   1.000  H
  H53      1.0000 0.95220  0.79070  0.86260  Biso   1.000  H
  H54      1.0000 0.45220  0.29070  0.86260  Biso   1.000  H
  H55      1.0000 0.04780  0.79070  0.63740  Biso   1.000  H
  H56      1.0000 0.54780  0.29070  0.63740  Biso   1.000  H
  H57      1.0000 0.08320  0.20650  0.21330  Biso   1.000  H
  H58      1.0000 0.58320  0.70650  0.21330  Biso   1.000  H
  H59      1.0000 0.91680  0.20650  0.28670  Biso   1.000  H
  H60      1.0000 0.41680  0.70650  0.28670  Biso   1.000  H
  H61      1.0000 0.91680  0.79350  0.78670  Biso   1.000  H
  H62      1.0000 0.41680  0.29350  0.78670  Biso   1.000  H
  H63      1.0000 0.08320  0.79350  0.71330  Biso   1.000  H
  H64      1.0000 0.58320  0.29350  0.71330  Biso   1.000  H
  C105     1.0000 0.17110  0.06120  0.22080  Biso   1.000  C
  C106     1.0000 0.67110  0.56120  0.22080  Biso   1.000  C
  C107     1.0000 0.82890  0.06120  0.27920  Biso   1.000  C
  C108     1.0000 0.32890  0.56120  0.27920  Biso   1.000  C
  C109     1.0000 0.82890  0.93880  0.77920  Biso   1.000  C
  C110     1.0000 0.32890  0.43880  0.77920  Biso   1.000  C
  C111     1.0000 0.17110  0.93880  0.72080  Biso   1.000  C
  C112     1.0000 0.67110  0.43880  0.72080  Biso   1.000  C
  C113     1.0000 0.15400  0.92520  0.23600  Biso   1.000  C
  C114     1.0000 0.65400  0.42520  0.23600  Biso   1.000  C
  C115     1.0000 0.84600  0.92520  0.26400  Biso   1.000  C
  C116     1.0000 0.34600  0.42520  0.26400  Biso   1.000  C
  C117     1.0000 0.84600  0.07480  0.76400  Biso   1.000  C
  C118     1.0000 0.34600  0.57480  0.76400  Biso   1.000  C
  C119     1.0000 0.15400  0.07480  0.73600  Biso   1.000  C
  C120     1.0000 0.65400  0.57480  0.73600  Biso   1.000  C
  H65      1.0000 0.18510  0.87060  0.26610  Biso   1.000  H
  H66      1.0000 0.68510  0.37060  0.26610  Biso   1.000  H
  H67      1.0000 0.81490  0.87060  0.23390  Biso   1.000  H
  H68      1.0000 0.31490  0.37060  0.23390  Biso   1.000  H
  H69      1.0000 0.81490  0.12940  0.73390  Biso   1.000  H
  H70      1.0000 0.31490  0.62940  0.73390  Biso   1.000  H
  H71      1.0000 0.18510  0.12940  0.76610  Biso   1.000  H
  H72      1.0000 0.68510  0.62940  0.76610  Biso   1.000  H
  H73      1.0000 0.13210  0.87170  0.19690  Biso   1.000  H
  H74      1.0000 0.63210  0.37170  0.19690  Biso   1.000  H
  H75      1.0000 0.86790  0.87170  0.30310  Biso   1.000  H
  H76      1.0000 0.36790  0.37170  0.30310  Biso   1.000  H
  H77      1.0000 0.86790  0.12830  0.80310  Biso   1.000  H
  H78      1.0000 0.36790  0.62830  0.80310  Biso   1.000  H
  H79      1.0000 0.13210  0.12830  0.69690  Biso   1.000  H
  H80      1.0000 0.63210  0.62830  0.69690  Biso   1.000  H
  H81      1.0000 0.13390  0.94630  0.25490  Biso   1.000  H
  H82      1.0000 0.63390  0.44630  0.25490  Biso   1.000  H
  H83      1.0000 0.86610  0.94630  0.24510  Biso   1.000  H
  H84      1.0000 0.36610  0.44630  0.24510  Biso   1.000  H
  H85      1.0000 0.86610  0.05370  0.74510  Biso   1.000  H
  H86      1.0000 0.36610  0.55370  0.74510  Biso   1.000  H
  H87      1.0000 0.13390  0.05370  0.75490  Biso   1.000  H
  H88      1.0000 0.63390  0.55370  0.75490  Biso   1.000  H
  C121     1.0000 0.21450  0.13110  0.28230  Biso   1.000  C
  C122     1.0000 0.71450  0.63110  0.28230  Biso   1.000  C
  C123     1.0000 0.78550  0.13110  0.21770  Biso   1.000  C
  C124     1.0000 0.28550  0.63110  0.21770  Biso   1.000  C
  C125     1.0000 0.78550  0.86890  0.71770  Biso   1.000  C
  C126     1.0000 0.28550  0.36890  0.71770  Biso   1.000  C
  C127     1.0000 0.21450  0.86890  0.78230  Biso   1.000  C
  C128     1.0000 0.71450  0.36890  0.78230  Biso   1.000  C
  H89      1.0000 0.24130  0.06180  0.30940  Biso   1.000  H
  H90      1.0000 0.74130  0.56180  0.30940  Biso   1.000  H
  H91      1.0000 0.75870  0.06180  0.19060  Biso   1.000  H
  H92      1.0000 0.25870  0.56180  0.19060  Biso   1.000  H
  H93      1.0000 0.75870  0.93820  0.69060  Biso   1.000  H
  H94      1.0000 0.25870  0.43820  0.69060  Biso   1.000  H
  H95      1.0000 0.24130  0.93820  0.80940  Biso   1.000  H
  H96      1.0000 0.74130  0.43820  0.80940  Biso   1.000  H
  H97      1.0000 0.19940  0.17030  0.30490  Biso   1.000  H
  H98      1.0000 0.69940  0.67030  0.30490  Biso   1.000  H
  H99      1.0000 0.80060  0.17030  0.19510  Biso   1.000  H
  H100     1.0000 0.30060  0.67030  0.19510  Biso   1.000  H
  H101     1.0000 0.80060  0.82970  0.69510  Biso   1.000  H
  H102     1.0000 0.30060  0.32970  0.69510  Biso   1.000  H
  H103     1.0000 0.19940  0.82970  0.80490  Biso   1.000  H
  H104     1.0000 0.69940  0.32970  0.80490  Biso   1.000  H
  H105     1.0000 0.23070  0.20570  0.27210  Biso   1.000  H
  H106     1.0000 0.73070  0.70570  0.27210  Biso   1.000  H
  H107     1.0000 0.76930  0.20570  0.22790  Biso   1.000  H
  H108     1.0000 0.26930  0.70570  0.22790  Biso   1.000  H
  H109     1.0000 0.76930  0.79430  0.72790  Biso   1.000  H
  H110     1.0000 0.26930  0.29430  0.72790  Biso   1.000  H
  H111     1.0000 0.23070  0.79430  0.77210  Biso   1.000  H
  H112     1.0000 0.73070  0.29430  0.77210  Biso   1.000  H
  N9       1.0000 0.19270  0.01940  0.18120  Biso   1.000  N
  N10      1.0000 0.69270  0.51940  0.18120  Biso   1.000  N
  N11      1.0000 0.80730  0.01940  0.31880  Biso   1.000  N
  N12      1.0000 0.30730  0.51940  0.31880  Biso   1.000  N
  N13      1.0000 0.80730  0.98060  0.81880  Biso   1.000  N
  N14      1.0000 0.30730  0.48060  0.81880  Biso   1.000  N
  N15      1.0000 0.19270  0.98060  0.68120  Biso   1.000  N
  N16      1.0000 0.69270  0.48060  0.68120  Biso   1.000  N
  O41      1.0000 0.23800  0.96340  0.20550  Biso   1.000  O
  O42      1.0000 0.73800  0.46340  0.20550  Biso   1.000  O
  O43      1.0000 0.76200  0.96340  0.29450  Biso   1.000  O
  O44      1.0000 0.26200  0.46340  0.29450  Biso   1.000  O
  O45      1.0000 0.76200  0.03660  0.79450  Biso   1.000  O
  O46      1.0000 0.26200  0.53660  0.79450  Biso   1.000  O
  O47      1.0000 0.23800  0.03660  0.70550  Biso   1.000  O
  O48      1.0000 0.73800  0.53660  0.70550  Biso   1.000  O
  C129     1.0000 0.15580  0.03130  0.11780  Biso   1.000  C
  C130     1.0000 0.65580  0.53130  0.11780  Biso   1.000  C
  C131     1.0000 0.84420  0.03130  0.38220  Biso   1.000  C
  C132     1.0000 0.34420  0.53130  0.38220  Biso   1.000  C
  C133     1.0000 0.84420  0.96870  0.88220  Biso   1.000  C
  C134     1.0000 0.34420  0.46870  0.88220  Biso   1.000  C
  C135     1.0000 0.15580  0.96870  0.61780  Biso   1.000  C
  C136     1.0000 0.65580  0.46870  0.61780  Biso   1.000  C
  C137     1.0000 0.16170  0.98280  0.06650  Biso   1.000  C
  C138     1.0000 0.66170  0.48280  0.06650  Biso   1.000  C
  C139     1.0000 0.83830  0.98280  0.43350  Biso   1.000  C
  C140     1.0000 0.33830  0.48280  0.43350  Biso   1.000  C
  C141     1.0000 0.83830  0.01720  0.93350  Biso   1.000  C
  C142     1.0000 0.33830  0.51720  0.93350  Biso   1.000  C
  C143     1.0000 0.16170  0.01720  0.56650  Biso   1.000  C
  C144     1.0000 0.66170  0.51720  0.56650  Biso   1.000  C
  C145     1.0000 0.20250  0.89960  0.07120  Biso   1.000  C
  C146     1.0000 0.70250  0.39960  0.07120  Biso   1.000  C
  C147     1.0000 0.79750  0.89960  0.42880  Biso   1.000  C
  C148     1.0000 0.29750  0.39960  0.42880  Biso   1.000  C
  C149     1.0000 0.79750  0.10040  0.92880  Biso   1.000  C
  C150     1.0000 0.29750  0.60040  0.92880  Biso   1.000  C
  C151     1.0000 0.20250  0.10040  0.57120  Biso   1.000  C
  C152     1.0000 0.70250  0.60040  0.57120  Biso   1.000  C
  H113     1.0000 0.23150  0.86300  0.10960  Biso   1.000  H
  H114     1.0000 0.73150  0.36300  0.10960  Biso   1.000  H
  H115     1.0000 0.76850  0.86300  0.39040  Biso   1.000  H
  H116     1.0000 0.26850  0.36300  0.39040  Biso   1.000  H
  H117     1.0000 0.76850  0.13700  0.89040  Biso   1.000  H
  H118     1.0000 0.26850  0.63700  0.89040  Biso   1.000  H
  H119     1.0000 0.23150  0.13700  0.60960  Biso   1.000  H
  H120     1.0000 0.73150  0.63700  0.60960  Biso   1.000  H
  N17      1.0000 0.19410  0.88110  0.01390  Biso   1.000  N
  N18      1.0000 0.69410  0.38110  0.01390  Biso   1.000  N
  N19      1.0000 0.80590  0.88110  0.48610  Biso   1.000  N
  N20      1.0000 0.30590  0.38110  0.48610  Biso   1.000  N
  N21      1.0000 0.80590  0.11890  0.98610  Biso   1.000  N
  N22      1.0000 0.30590  0.61890  0.98610  Biso   1.000  N
  N23      1.0000 0.19410  0.11890  0.51390  Biso   1.000  N
  N24      1.0000 0.69410  0.61890  0.51390  Biso   1.000  N
  N25      1.0000 0.14890  0.95280  0.97160  Biso   1.000  N
  N26      1.0000 0.64890  0.45280  0.97160  Biso   1.000  N
  N27      1.0000 0.85110  0.95280  0.52840  Biso   1.000  N
  N28      1.0000 0.35110  0.45280  0.52840  Biso   1.000  N
  N29      1.0000 0.85110  0.04720  0.02840  Biso   1.000  N
  N30      1.0000 0.35110  0.54720  0.02840  Biso   1.000  N
  N31      1.0000 0.14890  0.04720  0.47160  Biso   1.000  N
  N32      1.0000 0.64890  0.54720  0.47160  Biso   1.000  N
  C153     1.0000 0.12760  0.96030  0.90250  Biso   1.000  C
  C154     1.0000 0.62760  0.46030  0.90250  Biso   1.000  C
  C155     1.0000 0.87240  0.96030  0.59750  Biso   1.000  C
  C156     1.0000 0.37240  0.46030  0.59750  Biso   1.000  C
  C157     1.0000 0.87240  0.03970  0.09750  Biso   1.000  C
  C158     1.0000 0.37240  0.53970  0.09750  Biso   1.000  C
  C159     1.0000 0.12760  0.03970  0.40250  Biso   1.000  C
  C160     1.0000 0.62760  0.53970  0.40250  Biso   1.000  C
  H121     1.0000 0.12480  0.05920  0.88980  Biso   1.000  H
  H122     1.0000 0.62480  0.55920  0.88980  Biso   1.000  H
  H123     1.0000 0.87520  0.05920  0.61020  Biso   1.000  H
  H124     1.0000 0.37520  0.55920  0.61020  Biso   1.000  H
  H125     1.0000 0.87520  0.94080  0.11020  Biso   1.000  H
  H126     1.0000 0.37520  0.44080  0.11020  Biso   1.000  H
  H127     1.0000 0.12480  0.94080  0.38980  Biso   1.000  H
  H128     1.0000 0.62480  0.44080  0.38980  Biso   1.000  H
  H129     1.0000 0.15220  0.91340  0.89420  Biso   1.000  H
  H130     1.0000 0.65220  0.41340  0.89420  Biso   1.000  H
  H131     1.0000 0.84780  0.91340  0.60580  Biso   1.000  H
  H132     1.0000 0.34780  0.41340  0.60580  Biso   1.000  H
  H133     1.0000 0.84780  0.08660  0.10580  Biso   1.000  H
  H134     1.0000 0.34780  0.58660  0.10580  Biso   1.000  H
  H135     1.0000 0.15220  0.08660  0.39420  Biso   1.000  H
  H136     1.0000 0.65220  0.58660  0.39420  Biso   1.000  H
  C161     1.0000 0.07490  0.89370  0.86330  Biso   1.000  C
  C162     1.0000 0.57490  0.39370  0.86330  Biso   1.000  C
  C163     1.0000 0.92510  0.89370  0.63670  Biso   1.000  C
  C164     1.0000 0.42510  0.39370  0.63670  Biso   1.000  C
  C165     1.0000 0.92510  0.10630  0.13670  Biso   1.000  C
  C166     1.0000 0.42510  0.60630  0.13670  Biso   1.000  C
  C167     1.0000 0.07490  0.10630  0.36330  Biso   1.000  C
  C168     1.0000 0.57490  0.60630  0.36330  Biso   1.000  C
  H137     1.0000 0.06250  0.89990  0.81830  Biso   1.000  H
  H138     1.0000 0.56250  0.39990  0.81830  Biso   1.000  H
  H139     1.0000 0.93750  0.89990  0.68170  Biso   1.000  H
  H140     1.0000 0.43750  0.39990  0.68170  Biso   1.000  H
  H141     1.0000 0.93750  0.10010  0.18170  Biso   1.000  H
  H142     1.0000 0.43750  0.60010  0.18170  Biso   1.000  H
  H143     1.0000 0.06250  0.10010  0.31830  Biso   1.000  H
  H144     1.0000 0.56250  0.60010  0.31830  Biso   1.000  H
  H145     1.0000 0.05010  0.94170  0.87040  Biso   1.000  H
  H146     1.0000 0.55010  0.44170  0.87040  Biso   1.000  H
  H147     1.0000 0.94990  0.94170  0.62960  Biso   1.000  H
  H148     1.0000 0.44990  0.44170  0.62960  Biso   1.000  H
  H149     1.0000 0.94990  0.05830  0.12960  Biso   1.000  H
  H150     1.0000 0.44990  0.55830  0.12960  Biso   1.000  H
  H151     1.0000 0.05010  0.05830  0.37040  Biso   1.000  H
  H152     1.0000 0.55010  0.55830  0.37040  Biso   1.000  H
  H153     1.0000 0.07750  0.79560  0.87540  Biso   1.000  H
  H154     1.0000 0.57750  0.29560  0.87540  Biso   1.000  H
  H155     1.0000 0.92250  0.79560  0.62460  Biso   1.000  H
  H156     1.0000 0.42250  0.29560  0.62460  Biso   1.000  H
  H157     1.0000 0.92250  0.20440  0.12460  Biso   1.000  H
  H158     1.0000 0.42250  0.70440  0.12460  Biso   1.000  H
  H159     1.0000 0.07750  0.20440  0.37540  Biso   1.000  H
  H160     1.0000 0.57750  0.70440  0.37540  Biso   1.000  H
  C169     1.0000 0.12800  0.01520  0.00190  Biso   1.000  C
  C170     1.0000 0.62800  0.51520  0.00190  Biso   1.000  C
  C171     1.0000 0.87200  0.01520  0.49810  Biso   1.000  C
  C172     1.0000 0.37200  0.51520  0.49810  Biso   1.000  C
  C173     1.0000 0.87200  0.98480  0.99810  Biso   1.000  C
  C174     1.0000 0.37200  0.48480  0.99810  Biso   1.000  C
  C175     1.0000 0.12800  0.98480  0.50190  Biso   1.000  C
  C176     1.0000 0.62800  0.48480  0.50190  Biso   1.000  C
  H161     1.0000 0.09700  0.06970  0.98300  Biso   1.000  H
  H162     1.0000 0.59700  0.56970  0.98300  Biso   1.000  H
  H163     1.0000 0.90300  0.06970  0.51700  Biso   1.000  H
  H164     1.0000 0.40300  0.56970  0.51700  Biso   1.000  H
  H165     1.0000 0.90300  0.93030  0.01700  Biso   1.000  H
  H166     1.0000 0.40300  0.43030  0.01700  Biso   1.000  H
  H167     1.0000 0.09700  0.93030  0.48300  Biso   1.000  H
  H168     1.0000 0.59700  0.43030  0.48300  Biso   1.000  H
  F97      1.0000 0.37570  0.91000  0.20510  Biso   1.000  F
  F98      1.0000 0.87570  0.41000  0.20510  Biso   1.000  F
  F99      1.0000 0.62430  0.91000  0.29490  Biso   1.000  F
  F100     1.0000 0.12430  0.41000  0.29490  Biso   1.000  F
  F101     1.0000 0.62430  0.09000  0.79490  Biso   1.000  F
  F102     1.0000 0.12430  0.59000  0.79490  Biso   1.000  F
  F103     1.0000 0.37570  0.09000  0.70510  Biso   1.000  F
  F104     1.0000 0.87570  0.59000  0.70510  Biso   1.000  F
  F105     1.0000 0.36980  0.11400  0.17590  Biso   1.000  F
  F106     1.0000 0.86980  0.61400  0.17590  Biso   1.000  F
  F107     1.0000 0.63020  0.11400  0.32410  Biso   1.000  F
  F108     1.0000 0.13020  0.61400  0.32410  Biso   1.000  F
  F109     1.0000 0.63020  0.88600  0.82410  Biso   1.000  F
  F110     1.0000 0.13020  0.38600  0.82410  Biso   1.000  F
  F111     1.0000 0.36980  0.88600  0.67590  Biso   1.000  F
  F112     1.0000 0.86980  0.38600  0.67590  Biso   1.000  F
  F113     1.0000 0.41410  0.02000  0.17870  Biso   1.000  F
  F114     1.0000 0.91410  0.52000  0.17870  Biso   1.000  F
  F115     1.0000 0.58590  0.02000  0.32130  Biso   1.000  F
  F116     1.0000 0.08590  0.52000  0.32130  Biso   1.000  F
  F117     1.0000 0.58590  0.98000  0.82130  Biso   1.000  F
  F118     1.0000 0.08590  0.48000  0.82130  Biso   1.000  F
  F119     1.0000 0.41410  0.98000  0.67870  Biso   1.000  F
  F120     1.0000 0.91410  0.48000  0.67870  Biso   1.000  F
  F121     1.0000 0.22200  0.14700  0.88820  Biso   1.000  F
  F122     1.0000 0.72200  0.64700  0.88820  Biso   1.000  F
  F123     1.0000 0.77800  0.14700  0.61180  Biso   1.000  F
  F124     1.0000 0.27800  0.64700  0.61180  Biso   1.000  F
  F125     1.0000 0.77800  0.85300  0.11180  Biso   1.000  F
  F126     1.0000 0.27800  0.35300  0.11180  Biso   1.000  F
  F127     1.0000 0.22200  0.85300  0.38820  Biso   1.000  F
  F128     1.0000 0.72200  0.35300  0.38820  Biso   1.000  F
  F129     1.0000 0.29080  0.26300  0.96500  Biso   1.000  F
  F130     1.0000 0.79080  0.76300  0.96500  Biso   1.000  F
  F131     1.0000 0.70920  0.26300  0.53500  Biso   1.000  F
  F132     1.0000 0.20920  0.76300  0.53500  Biso   1.000  F
  F133     1.0000 0.70920  0.73700  0.03500  Biso   1.000  F
  F134     1.0000 0.20920  0.23700  0.03500  Biso   1.000  F
  F135     1.0000 0.29080  0.73700  0.46500  Biso   1.000  F
  F136     1.0000 0.79080  0.23700  0.46500  Biso   1.000  F
  F137     1.0000 0.28970  0.12100  0.90380  Biso   1.000  F
  F138     1.0000 0.78970  0.62100  0.90380  Biso   1.000  F
  F139     1.0000 0.71030  0.12100  0.59620  Biso   1.000  F
  F140     1.0000 0.21030  0.62100  0.59620  Biso   1.000  F
  F141     1.0000 0.71030  0.87900  0.09620  Biso   1.000  F
  F142     1.0000 0.21030  0.37900  0.09620  Biso   1.000  F
  F143     1.0000 0.28970  0.87900  0.40380  Biso   1.000  F
  F144     1.0000 0.78970  0.37900  0.40380  Biso   1.000  F
  F145     1.0000 0.02850  0.80700  0.19560  Biso   1.000  F
  F146     1.0000 0.52850  0.30700  0.19560  Biso   1.000  F
  F147     1.0000 0.97150  0.80700  0.30440  Biso   1.000  F
  F148     1.0000 0.47150  0.30700  0.30440  Biso   1.000  F
  F149     1.0000 0.97150  0.19300  0.80440  Biso   1.000  F
  F150     1.0000 0.47150  0.69300  0.80440  Biso   1.000  F
  F151     1.0000 0.02850  0.19300  0.69560  Biso   1.000  F
  F152     1.0000 0.52850  0.69300  0.69560  Biso   1.000  F
  F153     1.0000 0.01960  0.60400  0.16610  Biso   1.000  F
  F154     1.0000 0.51960  0.10400  0.16610  Biso   1.000  F
  F155     1.0000 0.98040  0.60400  0.33390  Biso   1.000  F
  F156     1.0000 0.48040  0.10400  0.33390  Biso   1.000  F
  F157     1.0000 0.98040  0.39600  0.83390  Biso   1.000  F
  F158     1.0000 0.48040  0.89600  0.83390  Biso   1.000  F
  F159     1.0000 0.01960  0.39600  0.66610  Biso   1.000  F
  F160     1.0000 0.51960  0.89600  0.66610  Biso   1.000  F
  F161     1.0000 0.96320  0.71100  0.12180  Biso   1.000  F
  F162     1.0000 0.46320  0.21100  0.12180  Biso   1.000  F
  F163     1.0000 0.03680  0.71100  0.37820  Biso   1.000  F
  F164     1.0000 0.53680  0.21100  0.37820  Biso   1.000  F
  F165     1.0000 0.03680  0.28900  0.87820  Biso   1.000  F
  F166     1.0000 0.53680  0.78900  0.87820  Biso   1.000  F
  F167     1.0000 0.96320  0.28900  0.62180  Biso   1.000  F
  F168     1.0000 0.46320  0.78900  0.62180  Biso   1.000  F
  F169     1.0000 0.13620  0.62590  0.06240  Biso   1.000  F
  F170     1.0000 0.63620  0.12590  0.06240  Biso   1.000  F
  F171     1.0000 0.86380  0.62590  0.43760  Biso   1.000  F
  F172     1.0000 0.36380  0.12590  0.43760  Biso   1.000  F
  F173     1.0000 0.86380  0.37410  0.93760  Biso   1.000  F
  F174     1.0000 0.36380  0.87410  0.93760  Biso   1.000  F
  F175     1.0000 0.13620  0.37410  0.56240  Biso   1.000  F
  F176     1.0000 0.63620  0.87410  0.56240  Biso   1.000  F
  F177     1.0000 0.08990  0.66400  0.97220  Biso   1.000  F
  F178     1.0000 0.58990  0.16400  0.97220  Biso   1.000  F
  F179     1.0000 0.91010  0.66400  0.52780  Biso   1.000  F
  F180     1.0000 0.41010  0.16400  0.52780  Biso   1.000  F
  F181     1.0000 0.91010  0.33600  0.02780  Biso   1.000  F
  F182     1.0000 0.41010  0.83600  0.02780  Biso   1.000  F
  F183     1.0000 0.08990  0.33600  0.47220  Biso   1.000  F
  F184     1.0000 0.58990  0.83600  0.47220  Biso   1.000  F
  F185     1.0000 0.07010  0.49700  0.00940  Biso   1.000  F
  F186     1.0000 0.57010  0.99700  0.00940  Biso   1.000  F
  F187     1.0000 0.92990  0.49700  0.49060  Biso   1.000  F
  F188     1.0000 0.42990  0.99700  0.49060  Biso   1.000  F
  F189     1.0000 0.92990  0.50300  0.99060  Biso   1.000  F
  F190     1.0000 0.42990  0.00300  0.99060  Biso   1.000  F
  F191     1.0000 0.07010  0.50300  0.50940  Biso   1.000  F
  F192     1.0000 0.57010  0.00300  0.50940  Biso   1.000  F
