data_image0
_cell_length_a       29.324
_cell_length_b       9.438
_cell_length_c       24.236
_cell_angle_alpha    90
_cell_angle_beta     121.03
_cell_angle_gamma    90

_symmetry_space_group_name_H-M    "P 1"
_symmetry_int_tables_number       1

loop_
  _symmetry_equiv_pos_as_xyz
  'x, y, z'

loop_
  _atom_site_label
  _atom_site_occupancy
  _atom_site_fract_x
  _atom_site_fract_y
  _atom_site_fract_z
  _atom_site_thermal_displace_type
  _atom_site_B_iso_or_equiv
  _atom_site_type_symbol
  Cu1      1.0000 0.00000  0.50000  0.50000  Biso   1.000  Cu
  Cu2      1.0000 0.50000  0.00000  0.50000  Biso   1.000  Cu
  Cu3      1.0000 0.00000  0.50000  0.00000  Biso   1.000  Cu
  Cu4      1.0000 0.50000  0.00000  0.00000  Biso   1.000  Cu
  O1       1.0000 0.00136  0.59090  0.42699  Biso   1.000  O
  O2       1.0000 0.50136  0.09090  0.42699  Biso   1.000  O
  O3       1.0000 0.00136  0.40910  0.92699  Biso   1.000  O
  O4       1.0000 0.50136  0.90910  0.92699  Biso   1.000  O
  O5       1.0000 0.99864  0.40910  0.57301  Biso   1.000  O
  O6       1.0000 0.49864  0.90910  0.57301  Biso   1.000  O
  O7       1.0000 0.99864  0.59090  0.07301  Biso   1.000  O
  O8       1.0000 0.49864  0.09090  0.07301  Biso   1.000  O
  F1       1.0000 0.98619  0.67000  0.31195  Biso   1.000  F
  F2       1.0000 0.48619  0.17000  0.31195  Biso   1.000  F
  F3       1.0000 0.98619  0.33000  0.81195  Biso   1.000  F
  F4       1.0000 0.48619  0.83000  0.81195  Biso   1.000  F
  F5       1.0000 0.01381  0.33000  0.68805  Biso   1.000  F
  F6       1.0000 0.51381  0.83000  0.68805  Biso   1.000  F
  F7       1.0000 0.01381  0.67000  0.18805  Biso   1.000  F
  F8       1.0000 0.51381  0.17000  0.18805  Biso   1.000  F
  F9       1.0000 0.05453  0.77590  0.38782  Biso   1.000  F
  F10      1.0000 0.55453  0.27590  0.38782  Biso   1.000  F
  F11      1.0000 0.05453  0.22410  0.88782  Biso   1.000  F
  F12      1.0000 0.55453  0.72410  0.88782  Biso   1.000  F
  F13      1.0000 0.94547  0.22410  0.61218  Biso   1.000  F
  F14      1.0000 0.44547  0.72410  0.61218  Biso   1.000  F
  F15      1.0000 0.94547  0.77590  0.11218  Biso   1.000  F
  F16      1.0000 0.44547  0.27590  0.11218  Biso   1.000  F
  F17      1.0000 0.98085  0.88760  0.33230  Biso   1.000  F
  F18      1.0000 0.48085  0.38760  0.33230  Biso   1.000  F
  F19      1.0000 0.98085  0.11240  0.83230  Biso   1.000  F
  F20      1.0000 0.48085  0.61240  0.83230  Biso   1.000  F
  F21      1.0000 0.01915  0.11240  0.66770  Biso   1.000  F
  F22      1.0000 0.51915  0.61240  0.66770  Biso   1.000  F
  F23      1.0000 0.01915  0.88760  0.16770  Biso   1.000  F
  F24      1.0000 0.51915  0.38760  0.16770  Biso   1.000  F
  C1       1.0000 0.98764  0.71500  0.40890  Biso   1.000  C
  C2       1.0000 0.48764  0.21500  0.40890  Biso   1.000  C
  C3       1.0000 0.98764  0.28500  0.90890  Biso   1.000  C
  C4       1.0000 0.48764  0.78500  0.90890  Biso   1.000  C
  C5       1.0000 0.01236  0.28500  0.59110  Biso   1.000  C
  C6       1.0000 0.51236  0.78500  0.59110  Biso   1.000  C
  C7       1.0000 0.01236  0.71500  0.09110  Biso   1.000  C
  C8       1.0000 0.51236  0.21500  0.09110  Biso   1.000  C
  C9       1.0000 0.96280  0.80970  0.42830  Biso   1.000  C
  C10      1.0000 0.46280  0.30970  0.42830  Biso   1.000  C
  C11      1.0000 0.96280  0.19030  0.92830  Biso   1.000  C
  C12      1.0000 0.46280  0.69030  0.92830  Biso   1.000  C
  C13      1.0000 0.03720  0.19030  0.57170  Biso   1.000  C
  C14      1.0000 0.53720  0.69030  0.57170  Biso   1.000  C
  C15      1.0000 0.03720  0.80970  0.07170  Biso   1.000  C
  C16      1.0000 0.53720  0.30970  0.07170  Biso   1.000  C
  H1       1.0000 0.95700  0.89500  0.41600  Biso   1.000  H
  H2       1.0000 0.45700  0.39500  0.41600  Biso   1.000  H
  H3       1.0000 0.95700  0.10500  0.91600  Biso   1.000  H
  H4       1.0000 0.45700  0.60500  0.91600  Biso   1.000  H
  H5       1.0000 0.04300  0.10500  0.58400  Biso   1.000  H
  H6       1.0000 0.54300  0.60500  0.58400  Biso   1.000  H
  H7       1.0000 0.04300  0.89500  0.08400  Biso   1.000  H
  H8       1.0000 0.54300  0.39500  0.08400  Biso   1.000  H
  C17      1.0000 0.95193  0.77380  0.47660  Biso   1.000  C
  C18      1.0000 0.45193  0.27380  0.47660  Biso   1.000  C
  C19      1.0000 0.95193  0.22620  0.97660  Biso   1.000  C
  C20      1.0000 0.45193  0.72620  0.97660  Biso   1.000  C
  C21      1.0000 0.04807  0.22620  0.52340  Biso   1.000  C
  C22      1.0000 0.54807  0.72620  0.52340  Biso   1.000  C
  C23      1.0000 0.04807  0.77380  0.02340  Biso   1.000  C
  C24      1.0000 0.54807  0.27380  0.02340  Biso   1.000  C
  C25      1.0000 0.92790  0.88930  0.49990  Biso   1.000  C
  C26      1.0000 0.42790  0.38930  0.49990  Biso   1.000  C
  C27      1.0000 0.92790  0.11070  0.99990  Biso   1.000  C
  C28      1.0000 0.42790  0.61070  0.99990  Biso   1.000  C
  C29      1.0000 0.07210  0.11070  0.50010  Biso   1.000  C
  C30      1.0000 0.57210  0.61070  0.50010  Biso   1.000  C
  C31      1.0000 0.07210  0.88930  0.00010  Biso   1.000  C
  C32      1.0000 0.57210  0.38930  0.00010  Biso   1.000  C
  F25      1.0000 0.92426  0.01470  0.47500  Biso   1.000  F
  F26      1.0000 0.42426  0.51470  0.47500  Biso   1.000  F
  F27      1.0000 0.92426  0.98530  0.97500  Biso   1.000  F
  F28      1.0000 0.42426  0.48530  0.97500  Biso   1.000  F
  F29      1.0000 0.07574  0.98530  0.52500  Biso   1.000  F
  F30      1.0000 0.57574  0.48530  0.52500  Biso   1.000  F
  F31      1.0000 0.07574  0.01470  0.02500  Biso   1.000  F
  F32      1.0000 0.57574  0.51470  0.02500  Biso   1.000  F
  F33      1.0000 0.88271  0.84920  0.49180  Biso   1.000  F
  F34      1.0000 0.38271  0.34920  0.49180  Biso   1.000  F
  F35      1.0000 0.88271  0.15080  0.99180  Biso   1.000  F
  F36      1.0000 0.38271  0.65080  0.99180  Biso   1.000  F
  F37      1.0000 0.11729  0.15080  0.50820  Biso   1.000  F
  F38      1.0000 0.61729  0.65080  0.50820  Biso   1.000  F
  F39      1.0000 0.11729  0.84920  0.00820  Biso   1.000  F
  F40      1.0000 0.61729  0.34920  0.00820  Biso   1.000  F
  F41      1.0000 0.95930  0.90690  0.56450  Biso   1.000  F
  F42      1.0000 0.45930  0.40690  0.56450  Biso   1.000  F
  F43      1.0000 0.95930  0.09310  0.06450  Biso   1.000  F
  F44      1.0000 0.45930  0.59310  0.06450  Biso   1.000  F
  F45      1.0000 0.04070  0.09310  0.43550  Biso   1.000  F
  F46      1.0000 0.54070  0.59310  0.43550  Biso   1.000  F
  F47      1.0000 0.04070  0.90690  0.93550  Biso   1.000  F
  F48      1.0000 0.54070  0.40690  0.93550  Biso   1.000  F
  O9       1.0000 0.96104  0.66140  0.50643  Biso   1.000  O
  O10      1.0000 0.46104  0.16140  0.50643  Biso   1.000  O
  O11      1.0000 0.96104  0.33860  0.00643  Biso   1.000  O
  O12      1.0000 0.46104  0.83860  0.00643  Biso   1.000  O
  O13      1.0000 0.03896  0.33860  0.49357  Biso   1.000  O
  O14      1.0000 0.53896  0.83860  0.49357  Biso   1.000  O
  O15      1.0000 0.03896  0.66140  0.99357  Biso   1.000  O
  O16      1.0000 0.53896  0.16140  0.99357  Biso   1.000  O
  Cu5      1.0000 0.75000  0.75000  0.50000  Biso   1.000  Cu
  Cu6      1.0000 0.25000  0.25000  0.50000  Biso   1.000  Cu
  Cu7      1.0000 0.75000  0.25000  0.00000  Biso   1.000  Cu
  Cu8      1.0000 0.25000  0.75000  0.00000  Biso   1.000  Cu
  O17      1.0000 0.76144  0.91600  0.45999  Biso   1.000  O
  O18      1.0000 0.26144  0.41600  0.45999  Biso   1.000  O
  O19      1.0000 0.76144  0.08400  0.95999  Biso   1.000  O
  O20      1.0000 0.26144  0.58400  0.95999  Biso   1.000  O
  O21      1.0000 0.23856  0.08400  0.54001  Biso   1.000  O
  O22      1.0000 0.73856  0.58400  0.54001  Biso   1.000  O
  O23      1.0000 0.23856  0.91600  0.04001  Biso   1.000  O
  O24      1.0000 0.73856  0.41600  0.04001  Biso   1.000  O
  C33      1.0000 0.77490  0.15070  0.44050  Biso   1.000  C
  C34      1.0000 0.27490  0.65070  0.44050  Biso   1.000  C
  C35      1.0000 0.77490  0.84930  0.94050  Biso   1.000  C
  C36      1.0000 0.27490  0.34930  0.94050  Biso   1.000  C
  C37      1.0000 0.22510  0.84930  0.55950  Biso   1.000  C
  C38      1.0000 0.72510  0.34930  0.55950  Biso   1.000  C
  C39      1.0000 0.22510  0.15070  0.05950  Biso   1.000  C
  C40      1.0000 0.72510  0.65070  0.05950  Biso   1.000  C
  F49      1.0000 0.72385  0.15630  0.39438  Biso   1.000  F
  F50      1.0000 0.22385  0.65630  0.39438  Biso   1.000  F
  F51      1.0000 0.72385  0.84370  0.89438  Biso   1.000  F
  F52      1.0000 0.22385  0.34370  0.89438  Biso   1.000  F
  F53      1.0000 0.27615  0.84370  0.60562  Biso   1.000  F
  F54      1.0000 0.77615  0.34370  0.60562  Biso   1.000  F
  F55      1.0000 0.27615  0.15630  0.10562  Biso   1.000  F
  F56      1.0000 0.77615  0.65630  0.10562  Biso   1.000  F
  F57      1.0000 0.80244  0.13060  0.41142  Biso   1.000  F
  F58      1.0000 0.30244  0.63060  0.41142  Biso   1.000  F
  F59      1.0000 0.80244  0.86940  0.91142  Biso   1.000  F
  F60      1.0000 0.30244  0.36940  0.91142  Biso   1.000  F
  F61      1.0000 0.19756  0.86940  0.58858  Biso   1.000  F
  F62      1.0000 0.69756  0.36940  0.58858  Biso   1.000  F
  F63      1.0000 0.19756  0.13060  0.08858  Biso   1.000  F
  F64      1.0000 0.69756  0.63060  0.08858  Biso   1.000  F
  F65      1.0000 0.78729  0.27680  0.46841  Biso   1.000  F
  F66      1.0000 0.28729  0.77680  0.46841  Biso   1.000  F
  F67      1.0000 0.78729  0.72320  0.96841  Biso   1.000  F
  F68      1.0000 0.28729  0.22320  0.96841  Biso   1.000  F
  F69      1.0000 0.21271  0.72320  0.53159  Biso   1.000  F
  F70      1.0000 0.71271  0.22320  0.53159  Biso   1.000  F
  F71      1.0000 0.21271  0.27680  0.03159  Biso   1.000  F
  F72      1.0000 0.71271  0.77680  0.03159  Biso   1.000  F
  C41      1.0000 0.78530  0.03030  0.48760  Biso   1.000  C
  C42      1.0000 0.28530  0.53030  0.48760  Biso   1.000  C
  C43      1.0000 0.78530  0.96970  0.98760  Biso   1.000  C
  C44      1.0000 0.28530  0.46970  0.98760  Biso   1.000  C
  C45      1.0000 0.21470  0.96970  0.51240  Biso   1.000  C
  C46      1.0000 0.71470  0.46970  0.51240  Biso   1.000  C
  C47      1.0000 0.21470  0.03030  0.01240  Biso   1.000  C
  C48      1.0000 0.71470  0.53030  0.01240  Biso   1.000  C
  C49      1.0000 0.81870  0.05890  0.55220  Biso   1.000  C
  C50      1.0000 0.31870  0.55890  0.55220  Biso   1.000  C
  C51      1.0000 0.81870  0.94110  0.05220  Biso   1.000  C
  C52      1.0000 0.31870  0.44110  0.05220  Biso   1.000  C
  C53      1.0000 0.18130  0.94110  0.44780  Biso   1.000  C
  C54      1.0000 0.68130  0.44110  0.44780  Biso   1.000  C
  C55      1.0000 0.18130  0.05890  0.94780  Biso   1.000  C
  C56      1.0000 0.68130  0.55890  0.94780  Biso   1.000  C
  H9       1.0000 0.83100  0.14500  0.56400  Biso   1.000  H
  H10      1.0000 0.33100  0.64500  0.56400  Biso   1.000  H
  H11      1.0000 0.83100  0.85500  0.06400  Biso   1.000  H
  H12      1.0000 0.33100  0.35500  0.06400  Biso   1.000  H
  H13      1.0000 0.16900  0.85500  0.43600  Biso   1.000  H
  H14      1.0000 0.66900  0.35500  0.43600  Biso   1.000  H
  H15      1.0000 0.16900  0.14500  0.93600  Biso   1.000  H
  H16      1.0000 0.66900  0.64500  0.93600  Biso   1.000  H
  C57      1.0000 0.83147  0.96190  0.60190  Biso   1.000  C
  C58      1.0000 0.33147  0.46190  0.60190  Biso   1.000  C
  C59      1.0000 0.83147  0.03810  0.10190  Biso   1.000  C
  C60      1.0000 0.33147  0.53810  0.10190  Biso   1.000  C
  C61      1.0000 0.16853  0.03810  0.39810  Biso   1.000  C
  C62      1.0000 0.66853  0.53810  0.39810  Biso   1.000  C
  C63      1.0000 0.16853  0.96190  0.89810  Biso   1.000  C
  C64      1.0000 0.66853  0.46190  0.89810  Biso   1.000  C
  C65      1.0000 0.86700  0.01580  0.67110  Biso   1.000  C
  C66      1.0000 0.36700  0.51580  0.67110  Biso   1.000  C
  C67      1.0000 0.86700  0.98420  0.17110  Biso   1.000  C
  C68      1.0000 0.36700  0.48420  0.17110  Biso   1.000  C
  C69      1.0000 0.13300  0.98420  0.32890  Biso   1.000  C
  C70      1.0000 0.63300  0.48420  0.32890  Biso   1.000  C
  C71      1.0000 0.13300  0.01580  0.82890  Biso   1.000  C
  C72      1.0000 0.63300  0.51580  0.82890  Biso   1.000  C
  F73      1.0000 0.88655  0.14370  0.67566  Biso   1.000  F
  F74      1.0000 0.38655  0.64370  0.67566  Biso   1.000  F
  F75      1.0000 0.88655  0.85630  0.17566  Biso   1.000  F
  F76      1.0000 0.38655  0.35630  0.17566  Biso   1.000  F
  F77      1.0000 0.11345  0.85630  0.32434  Biso   1.000  F
  F78      1.0000 0.61345  0.35630  0.32434  Biso   1.000  F
  F79      1.0000 0.11345  0.14370  0.82434  Biso   1.000  F
  F80      1.0000 0.61345  0.64370  0.82434  Biso   1.000  F
  F81      1.0000 0.83570  0.03530  0.69750  Biso   1.000  F
  F82      1.0000 0.33570  0.53530  0.69750  Biso   1.000  F
  F83      1.0000 0.83570  0.96470  0.19750  Biso   1.000  F
  F84      1.0000 0.33570  0.46470  0.19750  Biso   1.000  F
  F85      1.0000 0.16430  0.96470  0.30250  Biso   1.000  F
  F86      1.0000 0.66430  0.46470  0.30250  Biso   1.000  F
  F87      1.0000 0.16430  0.03530  0.80250  Biso   1.000  F
  F88      1.0000 0.66430  0.53530  0.80250  Biso   1.000  F
  F89      1.0000 0.90170  0.92730  0.70870  Biso   1.000  F
  F90      1.0000 0.40170  0.42730  0.70870  Biso   1.000  F
  F91      1.0000 0.90170  0.07270  0.20870  Biso   1.000  F
  F92      1.0000 0.40170  0.57270  0.20870  Biso   1.000  F
  F93      1.0000 0.09830  0.07270  0.29130  Biso   1.000  F
  F94      1.0000 0.59830  0.57270  0.29130  Biso   1.000  F
  F95      1.0000 0.09830  0.92730  0.79130  Biso   1.000  F
  F96      1.0000 0.59830  0.42730  0.79130  Biso   1.000  F
  O25      1.0000 0.81686  0.83760  0.59777  Biso   1.000  O
  O26      1.0000 0.31686  0.33760  0.59777  Biso   1.000  O
  O27      1.0000 0.81686  0.16240  0.09777  Biso   1.000  O
  O28      1.0000 0.31686  0.66240  0.09777  Biso   1.000  O
  O29      1.0000 0.18314  0.16240  0.40223  Biso   1.000  O
  O30      1.0000 0.68314  0.66240  0.40223  Biso   1.000  O
  O31      1.0000 0.18314  0.83760  0.90223  Biso   1.000  O
  O32      1.0000 0.68314  0.33760  0.90223  Biso   1.000  O
  O33      1.0000 0.76461  0.56870  0.29120  Biso   1.000  O
  O34      1.0000 0.26461  0.06870  0.29120  Biso   1.000  O
  O35      1.0000 0.76461  0.43130  0.79120  Biso   1.000  O
  O36      1.0000 0.26461  0.93130  0.79120  Biso   1.000  O
  O37      1.0000 0.23539  0.43130  0.70880  Biso   1.000  O
  O38      1.0000 0.73539  0.93130  0.70880  Biso   1.000  O
  O39      1.0000 0.23539  0.56870  0.20880  Biso   1.000  O
  O40      1.0000 0.73539  0.06870  0.20880  Biso   1.000  O
  N1       1.0000 0.80842  0.50190  0.31521  Biso   1.000  N
  N2       1.0000 0.30842  0.00190  0.31521  Biso   1.000  N
  N3       1.0000 0.80842  0.49810  0.81521  Biso   1.000  N
  N4       1.0000 0.30842  0.99810  0.81521  Biso   1.000  N
  N5       1.0000 0.19158  0.49810  0.68479  Biso   1.000  N
  N6       1.0000 0.69158  0.99810  0.68479  Biso   1.000  N
  N7       1.0000 0.19158  0.50190  0.18479  Biso   1.000  N
  N8       1.0000 0.69158  0.00190  0.18479  Biso   1.000  N
  C73      1.0000 0.00200  0.76590  0.35930  Biso   1.000  C
  C74      1.0000 0.50200  0.26590  0.35930  Biso   1.000  C
  C75      1.0000 0.00200  0.23410  0.85930  Biso   1.000  C
  C76      1.0000 0.50200  0.73410  0.85930  Biso   1.000  C
  C77      1.0000 0.99800  0.23410  0.64070  Biso   1.000  C
  C78      1.0000 0.49800  0.73410  0.64070  Biso   1.000  C
  C79      1.0000 0.99800  0.76590  0.14070  Biso   1.000  C
  C80      1.0000 0.49800  0.26590  0.14070  Biso   1.000  C
  C81      1.0000 0.83110  0.45270  0.27510  Biso   1.000  C
  C82      1.0000 0.33110  0.95270  0.27510  Biso   1.000  C
  C83      1.0000 0.83110  0.54730  0.77510  Biso   1.000  C
  C84      1.0000 0.33110  0.04730  0.77510  Biso   1.000  C
  C85      1.0000 0.16890  0.54730  0.72490  Biso   1.000  C
  C86      1.0000 0.66890  0.04730  0.72490  Biso   1.000  C
  C87      1.0000 0.16890  0.45270  0.22490  Biso   1.000  C
  C88      1.0000 0.66890  0.95270  0.22490  Biso   1.000  C
  C89      1.0000 0.78790  0.38710  0.21290  Biso   1.000  C
  C90      1.0000 0.28790  0.88710  0.21290  Biso   1.000  C
  C91      1.0000 0.78790  0.61290  0.71290  Biso   1.000  C
  C92      1.0000 0.28790  0.11290  0.71290  Biso   1.000  C
  C93      1.0000 0.21210  0.61290  0.78710  Biso   1.000  C
  C94      1.0000 0.71210  0.11290  0.78710  Biso   1.000  C
  C95      1.0000 0.21210  0.38710  0.28710  Biso   1.000  C
  C96      1.0000 0.71210  0.88710  0.28710  Biso   1.000  C
  H17      1.0000 0.76200  0.45100  0.18800  Biso   1.000  H
  H18      1.0000 0.26200  0.95100  0.18800  Biso   1.000  H
  H19      1.0000 0.76200  0.54900  0.68800  Biso   1.000  H
  H20      1.0000 0.26200  0.04900  0.68800  Biso   1.000  H
  H21      1.0000 0.23800  0.54900  0.81200  Biso   1.000  H
  H22      1.0000 0.73800  0.04900  0.81200  Biso   1.000  H
  H23      1.0000 0.23800  0.45100  0.31200  Biso   1.000  H
  H24      1.0000 0.73800  0.95100  0.31200  Biso   1.000  H
  H25      1.0000 0.80300  0.34800  0.18900  Biso   1.000  H
  H26      1.0000 0.30300  0.84800  0.18900  Biso   1.000  H
  H27      1.0000 0.80300  0.65200  0.68900  Biso   1.000  H
  H28      1.0000 0.30300  0.15200  0.68900  Biso   1.000  H
  H29      1.0000 0.19700  0.65200  0.81100  Biso   1.000  H
  H30      1.0000 0.69700  0.15200  0.81100  Biso   1.000  H
  H31      1.0000 0.19700  0.34800  0.31100  Biso   1.000  H
  H32      1.0000 0.69700  0.84800  0.31100  Biso   1.000  H
  H33      1.0000 0.76800  0.32600  0.21900  Biso   1.000  H
  H34      1.0000 0.26800  0.82600  0.21900  Biso   1.000  H
  H35      1.0000 0.76800  0.67400  0.71900  Biso   1.000  H
  H36      1.0000 0.26800  0.17400  0.71900  Biso   1.000  H
  H37      1.0000 0.23200  0.67400  0.78100  Biso   1.000  H
  H38      1.0000 0.73200  0.17400  0.78100  Biso   1.000  H
  H39      1.0000 0.23200  0.32600  0.28100  Biso   1.000  H
  H40      1.0000 0.73200  0.82600  0.28100  Biso   1.000  H
  C97      1.0000 0.85430  0.58490  0.26250  Biso   1.000  C
  C98      1.0000 0.35430  0.08490  0.26250  Biso   1.000  C
  C99      1.0000 0.85430  0.41510  0.76250  Biso   1.000  C
  C100     1.0000 0.35430  0.91510  0.76250  Biso   1.000  C
  C101     1.0000 0.14570  0.41510  0.73750  Biso   1.000  C
  C102     1.0000 0.64570  0.91510  0.73750  Biso   1.000  C
  C103     1.0000 0.14570  0.58490  0.23750  Biso   1.000  C
  C104     1.0000 0.64570  0.08490  0.23750  Biso   1.000  C
  H41      1.0000 0.82400  0.64400  0.23800  Biso   1.000  H
  H42      1.0000 0.32400  0.14400  0.23800  Biso   1.000  H
  H43      1.0000 0.82400  0.35600  0.73800  Biso   1.000  H
  H44      1.0000 0.32400  0.85600  0.73800  Biso   1.000  H
  H45      1.0000 0.17600  0.35600  0.76200  Biso   1.000  H
  H46      1.0000 0.67600  0.85600  0.76200  Biso   1.000  H
  H47      1.0000 0.17600  0.64400  0.26200  Biso   1.000  H
  H48      1.0000 0.67600  0.14400  0.26200  Biso   1.000  H
  H49      1.0000 0.88000  0.62500  0.30200  Biso   1.000  H
  H50      1.0000 0.38000  0.12500  0.30200  Biso   1.000  H
  H51      1.0000 0.88000  0.37500  0.80200  Biso   1.000  H
  H52      1.0000 0.38000  0.87500  0.80200  Biso   1.000  H
  H53      1.0000 0.12000  0.37500  0.69800  Biso   1.000  H
  H54      1.0000 0.62000  0.87500  0.69800  Biso   1.000  H
  H55      1.0000 0.12000  0.62500  0.19800  Biso   1.000  H
  H56      1.0000 0.62000  0.12500  0.19800  Biso   1.000  H
  H57      1.0000 0.86500  0.57400  0.23400  Biso   1.000  H
  H58      1.0000 0.36500  0.07400  0.23400  Biso   1.000  H
  H59      1.0000 0.86500  0.42600  0.73400  Biso   1.000  H
  H60      1.0000 0.36500  0.92600  0.73400  Biso   1.000  H
  H61      1.0000 0.13500  0.42600  0.76600  Biso   1.000  H
  H62      1.0000 0.63500  0.92600  0.76600  Biso   1.000  H
  H63      1.0000 0.13500  0.57400  0.26600  Biso   1.000  H
  H64      1.0000 0.63500  0.07400  0.26600  Biso   1.000  H
  C105     1.0000 0.87366  0.34550  0.32310  Biso   1.000  C
  C106     1.0000 0.37366  0.84550  0.32310  Biso   1.000  C
  C107     1.0000 0.87366  0.65450  0.82310  Biso   1.000  C
  C108     1.0000 0.37366  0.15450  0.82310  Biso   1.000  C
  C109     1.0000 0.12634  0.65450  0.67690  Biso   1.000  C
  C110     1.0000 0.62634  0.15450  0.67690  Biso   1.000  C
  C111     1.0000 0.12634  0.34550  0.17690  Biso   1.000  C
  C112     1.0000 0.62634  0.84550  0.17690  Biso   1.000  C
  C113     1.0000 0.92480  0.33990  0.32100  Biso   1.000  C
  C114     1.0000 0.42480  0.83990  0.32100  Biso   1.000  C
  C115     1.0000 0.92480  0.66010  0.82100  Biso   1.000  C
  C116     1.0000 0.42480  0.16010  0.82100  Biso   1.000  C
  C117     1.0000 0.07520  0.66010  0.67900  Biso   1.000  C
  C118     1.0000 0.57520  0.16010  0.67900  Biso   1.000  C
  C119     1.0000 0.07520  0.33990  0.17900  Biso   1.000  C
  C120     1.0000 0.57520  0.83990  0.17900  Biso   1.000  C
  H65      1.0000 0.94900  0.27500  0.35200  Biso   1.000  H
  H66      1.0000 0.44900  0.77500  0.35200  Biso   1.000  H
  H67      1.0000 0.94900  0.72500  0.85200  Biso   1.000  H
  H68      1.0000 0.44900  0.22500  0.85200  Biso   1.000  H
  H69      1.0000 0.05100  0.72500  0.64800  Biso   1.000  H
  H70      1.0000 0.55100  0.22500  0.64800  Biso   1.000  H
  H71      1.0000 0.05100  0.27500  0.14800  Biso   1.000  H
  H72      1.0000 0.55100  0.77500  0.14800  Biso   1.000  H
  H73      1.0000 0.91400  0.29400  0.27800  Biso   1.000  H
  H74      1.0000 0.41400  0.79400  0.27800  Biso   1.000  H
  H75      1.0000 0.91400  0.70600  0.77800  Biso   1.000  H
  H76      1.0000 0.41400  0.20600  0.77800  Biso   1.000  H
  H77      1.0000 0.08600  0.70600  0.72200  Biso   1.000  H
  H78      1.0000 0.58600  0.20600  0.72200  Biso   1.000  H
  H79      1.0000 0.08600  0.29400  0.22200  Biso   1.000  H
  H80      1.0000 0.58600  0.79400  0.22200  Biso   1.000  H
  H81      1.0000 0.94300  0.42400  0.32900  Biso   1.000  H
  H82      1.0000 0.44300  0.92400  0.32900  Biso   1.000  H
  H83      1.0000 0.94300  0.57600  0.82900  Biso   1.000  H
  H84      1.0000 0.44300  0.07600  0.82900  Biso   1.000  H
  H85      1.0000 0.05700  0.57600  0.67100  Biso   1.000  H
  H86      1.0000 0.55700  0.07600  0.67100  Biso   1.000  H
  H87      1.0000 0.05700  0.42400  0.17100  Biso   1.000  H
  H88      1.0000 0.55700  0.92400  0.17100  Biso   1.000  H
  C121     1.0000 0.85230  0.19720  0.31970  Biso   1.000  C
  C122     1.0000 0.35230  0.69720  0.31970  Biso   1.000  C
  C123     1.0000 0.85230  0.80280  0.81970  Biso   1.000  C
  C124     1.0000 0.35230  0.30280  0.81970  Biso   1.000  C
  C125     1.0000 0.14770  0.80280  0.68030  Biso   1.000  C
  C126     1.0000 0.64770  0.30280  0.68030  Biso   1.000  C
  C127     1.0000 0.14770  0.19720  0.18030  Biso   1.000  C
  C128     1.0000 0.64770  0.69720  0.18030  Biso   1.000  C
  H89      1.0000 0.87700  0.17400  0.35700  Biso   1.000  H
  H90      1.0000 0.37700  0.67400  0.35700  Biso   1.000  H
  H91      1.0000 0.87700  0.82600  0.85700  Biso   1.000  H
  H92      1.0000 0.37700  0.32600  0.85700  Biso   1.000  H
  H93      1.0000 0.12300  0.82600  0.64300  Biso   1.000  H
  H94      1.0000 0.62300  0.32600  0.64300  Biso   1.000  H
  H95      1.0000 0.12300  0.17400  0.14300  Biso   1.000  H
  H96      1.0000 0.62300  0.67400  0.14300  Biso   1.000  H
  H97      1.0000 0.82300  0.20100  0.32200  Biso   1.000  H
  H98      1.0000 0.32300  0.70100  0.32200  Biso   1.000  H
  H99      1.0000 0.82300  0.79900  0.82200  Biso   1.000  H
  H100     1.0000 0.32300  0.29900  0.82200  Biso   1.000  H
  H101     1.0000 0.17700  0.79900  0.67800  Biso   1.000  H
  H102     1.0000 0.67700  0.29900  0.67800  Biso   1.000  H
  H103     1.0000 0.17700  0.20100  0.17800  Biso   1.000  H
  H104     1.0000 0.67700  0.70100  0.17800  Biso   1.000  H
  H105     1.0000 0.84690  0.15500  0.27900  Biso   1.000  H
  H106     1.0000 0.34690  0.65500  0.27900  Biso   1.000  H
  H107     1.0000 0.84690  0.84500  0.77900  Biso   1.000  H
  H108     1.0000 0.34690  0.34500  0.77900  Biso   1.000  H
  H109     1.0000 0.15310  0.84500  0.72100  Biso   1.000  H
  H110     1.0000 0.65310  0.34500  0.72100  Biso   1.000  H
  H111     1.0000 0.15310  0.15500  0.22100  Biso   1.000  H
  H112     1.0000 0.65310  0.65500  0.22100  Biso   1.000  H
  N9       1.0000 0.88450  0.40830  0.38591  Biso   1.000  N
  N10      1.0000 0.38450  0.90830  0.38591  Biso   1.000  N
  N11      1.0000 0.88450  0.59170  0.88591  Biso   1.000  N
  N12      1.0000 0.38450  0.09170  0.88591  Biso   1.000  N
  N13      1.0000 0.11550  0.59170  0.61409  Biso   1.000  N
  N14      1.0000 0.61550  0.09170  0.61409  Biso   1.000  N
  N15      1.0000 0.11550  0.40830  0.11409  Biso   1.000  N
  N16      1.0000 0.61550  0.90830  0.11409  Biso   1.000  N
  O41      1.0000 0.92500  0.36770  0.44060  Biso   1.000  O
  O42      1.0000 0.42500  0.86770  0.44060  Biso   1.000  O
  O43      1.0000 0.92500  0.63230  0.94060  Biso   1.000  O
  O44      1.0000 0.42500  0.13230  0.94060  Biso   1.000  O
  O45      1.0000 0.07500  0.63230  0.55940  Biso   1.000  O
  O46      1.0000 0.57500  0.13230  0.55940  Biso   1.000  O
  O47      1.0000 0.07500  0.36770  0.05940  Biso   1.000  O
  O48      1.0000 0.57500  0.86770  0.05940  Biso   1.000  O
  C129     1.0000 0.84351  0.48290  0.37900  Biso   1.000  C
  C130     1.0000 0.34351  0.98290  0.37900  Biso   1.000  C
  C131     1.0000 0.84351  0.51710  0.87900  Biso   1.000  C
  C132     1.0000 0.34351  0.01710  0.87900  Biso   1.000  C
  C133     1.0000 0.15649  0.51710  0.62100  Biso   1.000  C
  C134     1.0000 0.65649  0.01710  0.62100  Biso   1.000  C
  C135     1.0000 0.15649  0.48290  0.12100  Biso   1.000  C
  C136     1.0000 0.65649  0.98290  0.12100  Biso   1.000  C
  C137     1.0000 0.83648  0.53150  0.43000  Biso   1.000  C
  C138     1.0000 0.33648  0.03150  0.43000  Biso   1.000  C
  C139     1.0000 0.83648  0.46850  0.93000  Biso   1.000  C
  C140     1.0000 0.33648  0.96850  0.93000  Biso   1.000  C
  C141     1.0000 0.16352  0.46850  0.57000  Biso   1.000  C
  C142     1.0000 0.66352  0.96850  0.57000  Biso   1.000  C
  C143     1.0000 0.16352  0.53150  0.07000  Biso   1.000  C
  C144     1.0000 0.66352  0.03150  0.07000  Biso   1.000  C
  C145     1.0000 0.86740  0.49740  0.49440  Biso   1.000  C
  C146     1.0000 0.36740  0.99740  0.49440  Biso   1.000  C
  C147     1.0000 0.86740  0.50260  0.99440  Biso   1.000  C
  C148     1.0000 0.36740  0.00260  0.99440  Biso   1.000  C
  C149     1.0000 0.13260  0.50260  0.50560  Biso   1.000  C
  C150     1.0000 0.63260  0.00260  0.50560  Biso   1.000  C
  C151     1.0000 0.13260  0.49740  0.00560  Biso   1.000  C
  C152     1.0000 0.63260  0.99740  0.00560  Biso   1.000  C
  H113     1.0000 0.89800  0.44800  0.51700  Biso   1.000  H
  H114     1.0000 0.39800  0.94800  0.51700  Biso   1.000  H
  H115     1.0000 0.89800  0.55200  0.01700  Biso   1.000  H
  H116     1.0000 0.39800  0.05200  0.01700  Biso   1.000  H
  H117     1.0000 0.10200  0.55200  0.48300  Biso   1.000  H
  H118     1.0000 0.60200  0.05200  0.48300  Biso   1.000  H
  H119     1.0000 0.10200  0.44800  0.98300  Biso   1.000  H
  H120     1.0000 0.60200  0.94800  0.98300  Biso   1.000  H
  N17      1.0000 0.84609  0.56020  0.52560  Biso   1.000  N
  N18      1.0000 0.34609  0.06020  0.52560  Biso   1.000  N
  N19      1.0000 0.84609  0.43980  0.02560  Biso   1.000  N
  N20      1.0000 0.34609  0.93980  0.02560  Biso   1.000  N
  N21      1.0000 0.15391  0.43980  0.47440  Biso   1.000  N
  N22      1.0000 0.65391  0.93980  0.47440  Biso   1.000  N
  N23      1.0000 0.15391  0.56020  0.97440  Biso   1.000  N
  N24      1.0000 0.65391  0.06020  0.97440  Biso   1.000  N
  C153     1.0000 0.86660  0.54900  0.59490  Biso   1.000  C
  C154     1.0000 0.36660  0.04900  0.59490  Biso   1.000  C
  C155     1.0000 0.86660  0.45100  0.09490  Biso   1.000  C
  C156     1.0000 0.36660  0.95100  0.09490  Biso   1.000  C
  C157     1.0000 0.13340  0.45100  0.40510  Biso   1.000  C
  C158     1.0000 0.63340  0.95100  0.40510  Biso   1.000  C
  C159     1.0000 0.13340  0.54900  0.90510  Biso   1.000  C
  C160     1.0000 0.63340  0.04900  0.90510  Biso   1.000  C
  H121     1.0000 0.86600  0.46000  0.60500  Biso   1.000  H
  H122     1.0000 0.36600  0.96000  0.60500  Biso   1.000  H
  H123     1.0000 0.86600  0.54000  0.10500  Biso   1.000  H
  H124     1.0000 0.36600  0.04000  0.10500  Biso   1.000  H
  H125     1.0000 0.13400  0.54000  0.39500  Biso   1.000  H
  H126     1.0000 0.63400  0.04000  0.39500  Biso   1.000  H
  H127     1.0000 0.13400  0.46000  0.89500  Biso   1.000  H
  H128     1.0000 0.63400  0.96000  0.89500  Biso   1.000  H
  H129     1.0000 0.84100  0.58400  0.60100  Biso   1.000  H
  H130     1.0000 0.34100  0.08400  0.60100  Biso   1.000  H
  H131     1.0000 0.84100  0.41600  0.10100  Biso   1.000  H
  H132     1.0000 0.34100  0.91600  0.10100  Biso   1.000  H
  H133     1.0000 0.15900  0.41600  0.39900  Biso   1.000  H
  H134     1.0000 0.65900  0.91600  0.39900  Biso   1.000  H
  H135     1.0000 0.15900  0.58400  0.89900  Biso   1.000  H
  H136     1.0000 0.65900  0.08400  0.89900  Biso   1.000  H
  C161     1.0000 0.91970  0.62180  0.63420  Biso   1.000  C
  C162     1.0000 0.41970  0.12180  0.63420  Biso   1.000  C
  C163     1.0000 0.91970  0.37820  0.13420  Biso   1.000  C
  C164     1.0000 0.41970  0.87820  0.13420  Biso   1.000  C
  C165     1.0000 0.08030  0.37820  0.36580  Biso   1.000  C
  C166     1.0000 0.58030  0.87820  0.36580  Biso   1.000  C
  C167     1.0000 0.08030  0.62180  0.86580  Biso   1.000  C
  C168     1.0000 0.58030  0.12180  0.86580  Biso   1.000  C
  H137     1.0000 0.93200  0.60900  0.68200  Biso   1.000  H
  H138     1.0000 0.43200  0.10900  0.68200  Biso   1.000  H
  H139     1.0000 0.93200  0.39100  0.18200  Biso   1.000  H
  H140     1.0000 0.43200  0.89100  0.18200  Biso   1.000  H
  H141     1.0000 0.06800  0.39100  0.31800  Biso   1.000  H
  H142     1.0000 0.56800  0.89100  0.31800  Biso   1.000  H
  H143     1.0000 0.06800  0.60900  0.81800  Biso   1.000  H
  H144     1.0000 0.56800  0.10900  0.81800  Biso   1.000  H
  H145     1.0000 0.93900  0.58600  0.62400  Biso   1.000  H
  H146     1.0000 0.43900  0.08600  0.62400  Biso   1.000  H
  H147     1.0000 0.93900  0.41400  0.12400  Biso   1.000  H
  H148     1.0000 0.43900  0.91400  0.12400  Biso   1.000  H
  H149     1.0000 0.06100  0.41400  0.37600  Biso   1.000  H
  H150     1.0000 0.56100  0.91400  0.37600  Biso   1.000  H
  H151     1.0000 0.06100  0.58600  0.87600  Biso   1.000  H
  H152     1.0000 0.56100  0.08600  0.87600  Biso   1.000  H
  H153     1.0000 0.91700  0.72900  0.62400  Biso   1.000  H
  H154     1.0000 0.41700  0.22900  0.62400  Biso   1.000  H
  H155     1.0000 0.91700  0.27100  0.12400  Biso   1.000  H
  H156     1.0000 0.41700  0.77100  0.12400  Biso   1.000  H
  H157     1.0000 0.08300  0.27100  0.37600  Biso   1.000  H
  H158     1.0000 0.58300  0.77100  0.37600  Biso   1.000  H
  H159     1.0000 0.08300  0.72900  0.87600  Biso   1.000  H
  H160     1.0000 0.58300  0.22900  0.87600  Biso   1.000  H
  N25      1.0000 0.80146  0.63440  0.48395  Biso   1.000  N
  N26      1.0000 0.30146  0.13440  0.48395  Biso   1.000  N
  N27      1.0000 0.80146  0.36560  0.98395  Biso   1.000  N
  N28      1.0000 0.30146  0.86560  0.98395  Biso   1.000  N
  N29      1.0000 0.19854  0.36560  0.51605  Biso   1.000  N
  N30      1.0000 0.69854  0.86560  0.51605  Biso   1.000  N
  N31      1.0000 0.19854  0.63440  0.01605  Biso   1.000  N
  N32      1.0000 0.69854  0.13440  0.01605  Biso   1.000  N
  C169     1.0000 0.79581  0.61780  0.42650  Biso   1.000  C
  C170     1.0000 0.29581  0.11780  0.42650  Biso   1.000  C
  C171     1.0000 0.79581  0.38220  0.92650  Biso   1.000  C
  C172     1.0000 0.29581  0.88220  0.92650  Biso   1.000  C
  C173     1.0000 0.20419  0.38220  0.57350  Biso   1.000  C
  C174     1.0000 0.70419  0.88220  0.57350  Biso   1.000  C
  C175     1.0000 0.20419  0.61780  0.07350  Biso   1.000  C
  C176     1.0000 0.70419  0.11780  0.07350  Biso   1.000  C
  H161     1.0000 0.76800  0.65100  0.39300  Biso   1.000  H
  H162     1.0000 0.26800  0.15100  0.39300  Biso   1.000  H
  H163     1.0000 0.76800  0.34900  0.89300  Biso   1.000  H
  H164     1.0000 0.26800  0.84900  0.89300  Biso   1.000  H
  H165     1.0000 0.23200  0.34900  0.60700  Biso   1.000  H
  H166     1.0000 0.73200  0.84900  0.60700  Biso   1.000  H
  H167     1.0000 0.23200  0.65100  0.10700  Biso   1.000  H
  H168     1.0000 0.73200  0.15100  0.10700  Biso   1.000  H
