data_image0
_cell_length_a       30.189
_cell_length_b       9.4707
_cell_length_c       24.991
_cell_angle_alpha    90
_cell_angle_beta     123.9
_cell_angle_gamma    90

_symmetry_space_group_name_H-M    "P 1"
_symmetry_int_tables_number       1

loop_
  _symmetry_equiv_pos_as_xyz
  'x, y, z'

loop_
  _atom_site_label
  _atom_site_occupancy
  _atom_site_fract_x
  _atom_site_fract_y
  _atom_site_fract_z
  _atom_site_thermal_displace_type
  _atom_site_B_iso_or_equiv
  _atom_site_type_symbol
  Cu1      1.0000 0.25000  0.75000  0.00000  Biso   1.000  Cu
  Cu2      1.0000 0.75000  0.25000  0.00000  Biso   1.000  Cu
  Cu3      1.0000 0.75000  0.75000  0.50000  Biso   1.000  Cu
  Cu4      1.0000 0.25000  0.25000  0.50000  Biso   1.000  Cu
  O1       1.0000 0.30940  0.82485  0.08627  Biso   1.000  O
  O2       1.0000 0.80940  0.32485  0.08627  Biso   1.000  O
  O3       1.0000 0.69060  0.82485  0.41373  Biso   1.000  O
  O4       1.0000 0.19060  0.32485  0.41373  Biso   1.000  O
  O5       1.0000 0.69060  0.17515  0.91373  Biso   1.000  O
  O6       1.0000 0.19060  0.67515  0.91373  Biso   1.000  O
  O7       1.0000 0.30940  0.17515  0.58627  Biso   1.000  O
  O8       1.0000 0.80940  0.67515  0.58627  Biso   1.000  O
  C1       1.0000 0.36939  0.98460  0.16491  Biso   1.000  C
  C2       1.0000 0.86939  0.48460  0.16491  Biso   1.000  C
  C3       1.0000 0.63061  0.98460  0.33509  Biso   1.000  C
  C4       1.0000 0.13061  0.48460  0.33509  Biso   1.000  C
  C5       1.0000 0.63061  0.01540  0.83509  Biso   1.000  C
  C6       1.0000 0.13061  0.51540  0.83509  Biso   1.000  C
  C7       1.0000 0.36939  0.01540  0.66491  Biso   1.000  C
  C8       1.0000 0.86939  0.51540  0.66491  Biso   1.000  C
  F1       1.0000 0.39760  0.88340  0.19880  Biso   1.000  F
  F2       1.0000 0.89760  0.38340  0.19880  Biso   1.000  F
  F3       1.0000 0.60240  0.88340  0.30120  Biso   1.000  F
  F4       1.0000 0.10240  0.38340  0.30120  Biso   1.000  F
  F5       1.0000 0.60240  0.11660  0.80120  Biso   1.000  F
  F6       1.0000 0.10240  0.61660  0.80120  Biso   1.000  F
  F7       1.0000 0.39760  0.11660  0.69880  Biso   1.000  F
  F8       1.0000 0.89760  0.61660  0.69880  Biso   1.000  F
  F9       1.0000 0.34100  0.02280  0.18900  Biso   1.000  F
  F10      1.0000 0.84100  0.52280  0.18900  Biso   1.000  F
  F11      1.0000 0.65900  0.02280  0.31100  Biso   1.000  F
  F12      1.0000 0.15900  0.52280  0.31100  Biso   1.000  F
  F13      1.0000 0.65900  0.97720  0.81100  Biso   1.000  F
  F14      1.0000 0.15900  0.47720  0.81100  Biso   1.000  F
  F15      1.0000 0.34100  0.97720  0.68900  Biso   1.000  F
  F16      1.0000 0.84100  0.47720  0.68900  Biso   1.000  F
  F17      1.0000 0.40040  0.08300  0.17460  Biso   1.000  F
  F18      1.0000 0.90040  0.58300  0.17460  Biso   1.000  F
  F19      1.0000 0.59960  0.08300  0.32540  Biso   1.000  F
  F20      1.0000 0.09960  0.58300  0.32540  Biso   1.000  F
  F21      1.0000 0.59960  0.91700  0.82540  Biso   1.000  F
  F22      1.0000 0.09960  0.41700  0.82540  Biso   1.000  F
  F23      1.0000 0.40040  0.91700  0.67460  Biso   1.000  F
  F24      1.0000 0.90040  0.41700  0.67460  Biso   1.000  F
  F25      1.0000 0.35820  0.94440  0.20190  Biso   1.000  F
  F26      1.0000 0.85820  0.44440  0.20190  Biso   1.000  F
  F27      1.0000 0.64180  0.94440  0.29810  Biso   1.000  F
  F28      1.0000 0.14180  0.44440  0.29810  Biso   1.000  F
  F29      1.0000 0.64180  0.05560  0.79810  Biso   1.000  F
  F30      1.0000 0.14180  0.55560  0.79810  Biso   1.000  F
  F31      1.0000 0.35820  0.05560  0.70190  Biso   1.000  F
  F32      1.0000 0.85820  0.55560  0.70190  Biso   1.000  F
  F33      1.0000 0.38090  0.11870  0.17280  Biso   1.000  F
  F34      1.0000 0.88090  0.61870  0.17280  Biso   1.000  F
  F35      1.0000 0.61910  0.11870  0.32720  Biso   1.000  F
  F36      1.0000 0.11910  0.61870  0.32720  Biso   1.000  F
  F37      1.0000 0.61910  0.88130  0.82720  Biso   1.000  F
  F38      1.0000 0.11910  0.38130  0.82720  Biso   1.000  F
  F39      1.0000 0.38090  0.88130  0.67280  Biso   1.000  F
  F40      1.0000 0.88090  0.38130  0.67280  Biso   1.000  F
  F41      1.0000 0.41660  0.92700  0.18350  Biso   1.000  F
  F42      1.0000 0.91660  0.42700  0.18350  Biso   1.000  F
  F43      1.0000 0.58340  0.92700  0.31650  Biso   1.000  F
  F44      1.0000 0.08340  0.42700  0.31650  Biso   1.000  F
  F45      1.0000 0.58340  0.07300  0.81650  Biso   1.000  F
  F46      1.0000 0.08340  0.57300  0.81650  Biso   1.000  F
  F47      1.0000 0.41660  0.07300  0.68350  Biso   1.000  F
  F48      1.0000 0.91660  0.57300  0.68350  Biso   1.000  F
  C9       1.0000 0.32925  0.94520  0.09407  Biso   1.000  C
  C10      1.0000 0.82925  0.44520  0.09407  Biso   1.000  C
  C11      1.0000 0.67075  0.94520  0.40593  Biso   1.000  C
  C12      1.0000 0.17075  0.44520  0.40593  Biso   1.000  C
  C13      1.0000 0.67075  0.05480  0.90593  Biso   1.000  C
  C14      1.0000 0.17075  0.55480  0.90593  Biso   1.000  C
  C15      1.0000 0.32925  0.05480  0.59407  Biso   1.000  C
  C16      1.0000 0.82925  0.55480  0.59407  Biso   1.000  C
  C17      1.0000 0.31857  0.04410  0.04801  Biso   1.000  C
  C18      1.0000 0.81857  0.54410  0.04801  Biso   1.000  C
  C19      1.0000 0.68143  0.04410  0.45199  Biso   1.000  C
  C20      1.0000 0.18143  0.54410  0.45199  Biso   1.000  C
  C21      1.0000 0.68143  0.95590  0.95199  Biso   1.000  C
  C22      1.0000 0.18143  0.45590  0.95199  Biso   1.000  C
  C23      1.0000 0.31857  0.95590  0.54801  Biso   1.000  C
  C24      1.0000 0.81857  0.45590  0.54801  Biso   1.000  C
  H1       1.0000 0.33330  0.13400  0.05990  Biso   1.000  H
  H2       1.0000 0.83330  0.63400  0.05990  Biso   1.000  H
  H3       1.0000 0.66670  0.13400  0.44010  Biso   1.000  H
  H4       1.0000 0.16670  0.63400  0.44010  Biso   1.000  H
  H5       1.0000 0.66670  0.86600  0.94010  Biso   1.000  H
  H6       1.0000 0.16670  0.36600  0.94010  Biso   1.000  H
  H7       1.0000 0.33330  0.86600  0.55990  Biso   1.000  H
  H8       1.0000 0.83330  0.36600  0.55990  Biso   1.000  H
  C25      1.0000 0.28261  0.02130  0.98284  Biso   1.000  C
  C26      1.0000 0.78261  0.52130  0.98284  Biso   1.000  C
  C27      1.0000 0.71739  0.02130  0.51716  Biso   1.000  C
  C28      1.0000 0.21739  0.52130  0.51716  Biso   1.000  C
  C29      1.0000 0.71739  0.97870  0.01716  Biso   1.000  C
  C30      1.0000 0.21739  0.47870  0.01716  Biso   1.000  C
  C31      1.0000 0.28261  0.97870  0.48284  Biso   1.000  C
  C32      1.0000 0.78261  0.47870  0.48284  Biso   1.000  C
  C33      1.0000 0.27205  0.14410  0.93743  Biso   1.000  C
  C34      1.0000 0.77205  0.64410  0.93743  Biso   1.000  C
  C35      1.0000 0.72795  0.14410  0.56257  Biso   1.000  C
  C36      1.0000 0.22795  0.64410  0.56257  Biso   1.000  C
  C37      1.0000 0.72795  0.85590  0.06257  Biso   1.000  C
  C38      1.0000 0.22795  0.35590  0.06257  Biso   1.000  C
  C39      1.0000 0.27205  0.85590  0.43743  Biso   1.000  C
  C40      1.0000 0.77205  0.35590  0.43743  Biso   1.000  C
  F49      1.0000 0.21830  0.15670  0.89340  Biso   1.000  F
  F50      1.0000 0.71830  0.65670  0.89340  Biso   1.000  F
  F51      1.0000 0.78170  0.15670  0.60660  Biso   1.000  F
  F52      1.0000 0.28170  0.65670  0.60660  Biso   1.000  F
  F53      1.0000 0.78170  0.84330  0.10660  Biso   1.000  F
  F54      1.0000 0.28170  0.34330  0.10660  Biso   1.000  F
  F55      1.0000 0.21830  0.84330  0.39340  Biso   1.000  F
  F56      1.0000 0.71830  0.34330  0.39340  Biso   1.000  F
  F57      1.0000 0.27750  0.26740  0.96330  Biso   1.000  F
  F58      1.0000 0.77750  0.76740  0.96330  Biso   1.000  F
  F59      1.0000 0.72250  0.26740  0.53670  Biso   1.000  F
  F60      1.0000 0.22250  0.76740  0.53670  Biso   1.000  F
  F61      1.0000 0.72250  0.73260  0.03670  Biso   1.000  F
  F62      1.0000 0.22250  0.23260  0.03670  Biso   1.000  F
  F63      1.0000 0.27750  0.73260  0.46330  Biso   1.000  F
  F64      1.0000 0.77750  0.23260  0.46330  Biso   1.000  F
  F65      1.0000 0.31370  0.14680  0.92900  Biso   1.000  F
  F66      1.0000 0.81370  0.64680  0.92900  Biso   1.000  F
  F67      1.0000 0.68630  0.14680  0.57100  Biso   1.000  F
  F68      1.0000 0.18630  0.64680  0.57100  Biso   1.000  F
  F69      1.0000 0.68630  0.85320  0.07100  Biso   1.000  F
  F70      1.0000 0.18630  0.35320  0.07100  Biso   1.000  F
  F71      1.0000 0.31370  0.85320  0.42900  Biso   1.000  F
  F72      1.0000 0.81370  0.35320  0.42900  Biso   1.000  F
  F73      1.0000 0.23050  0.14320  0.88670  Biso   1.000  F
  F74      1.0000 0.73050  0.64320  0.88670  Biso   1.000  F
  F75      1.0000 0.76950  0.14320  0.61330  Biso   1.000  F
  F76      1.0000 0.26950  0.64320  0.61330  Biso   1.000  F
  F77      1.0000 0.76950  0.85680  0.11330  Biso   1.000  F
  F78      1.0000 0.26950  0.35680  0.11330  Biso   1.000  F
  F79      1.0000 0.23050  0.85680  0.38670  Biso   1.000  F
  F80      1.0000 0.73050  0.35680  0.38670  Biso   1.000  F
  F81      1.0000 0.28920  0.26330  0.96620  Biso   1.000  F
  F82      1.0000 0.78920  0.76330  0.96620  Biso   1.000  F
  F83      1.0000 0.71080  0.26330  0.53380  Biso   1.000  F
  F84      1.0000 0.21080  0.76330  0.53380  Biso   1.000  F
  F85      1.0000 0.71080  0.73670  0.03380  Biso   1.000  F
  F86      1.0000 0.21080  0.23670  0.03380  Biso   1.000  F
  F87      1.0000 0.28920  0.73670  0.46620  Biso   1.000  F
  F88      1.0000 0.78920  0.23670  0.46620  Biso   1.000  F
  F89      1.0000 0.28950  0.11890  0.90250  Biso   1.000  F
  F90      1.0000 0.78950  0.61890  0.90250  Biso   1.000  F
  F91      1.0000 0.71050  0.11890  0.59750  Biso   1.000  F
  F92      1.0000 0.21050  0.61890  0.59750  Biso   1.000  F
  F93      1.0000 0.71050  0.88110  0.09750  Biso   1.000  F
  F94      1.0000 0.21050  0.38110  0.09750  Biso   1.000  F
  F95      1.0000 0.28950  0.88110  0.40250  Biso   1.000  F
  F96      1.0000 0.78950  0.38110  0.40250  Biso   1.000  F
  O9       1.0000 0.25629  0.91270  0.95502  Biso   1.000  O
  O10      1.0000 0.75629  0.41270  0.95502  Biso   1.000  O
  O11      1.0000 0.74371  0.91270  0.54498  Biso   1.000  O
  O12      1.0000 0.24371  0.41270  0.54498  Biso   1.000  O
  O13      1.0000 0.74371  0.08730  0.04498  Biso   1.000  O
  O14      1.0000 0.24371  0.58730  0.04498  Biso   1.000  O
  O15      1.0000 0.25629  0.08730  0.45502  Biso   1.000  O
  O16      1.0000 0.75629  0.58730  0.45502  Biso   1.000  O
  Cu5      1.0000 0.00000  0.00000  0.00000  Biso   1.000  Cu
  Cu6      1.0000 0.50000  0.50000  0.00000  Biso   1.000  Cu
  Cu7      1.0000 0.00000  0.00000  0.50000  Biso   1.000  Cu
  Cu8      1.0000 0.50000  0.50000  0.50000  Biso   1.000  Cu
  O17      1.0000 0.00503  0.89942  0.07658  Biso   1.000  O
  O18      1.0000 0.50503  0.39942  0.07658  Biso   1.000  O
  O19      1.0000 0.99497  0.89942  0.42342  Biso   1.000  O
  O20      1.0000 0.49497  0.39942  0.42342  Biso   1.000  O
  O21      1.0000 0.99497  0.10058  0.92342  Biso   1.000  O
  O22      1.0000 0.49497  0.60058  0.92342  Biso   1.000  O
  O23      1.0000 0.00503  0.10058  0.57658  Biso   1.000  O
  O24      1.0000 0.50503  0.60058  0.57658  Biso   1.000  O
  C41      1.0000 0.00973  0.71890  0.14230  Biso   1.000  C
  C42      1.0000 0.50973  0.21890  0.14230  Biso   1.000  C
  C43      1.0000 0.99027  0.71890  0.35770  Biso   1.000  C
  C44      1.0000 0.49027  0.21890  0.35770  Biso   1.000  C
  C45      1.0000 0.99027  0.28110  0.85770  Biso   1.000  C
  C46      1.0000 0.49027  0.78110  0.85770  Biso   1.000  C
  C47      1.0000 0.00973  0.28110  0.64230  Biso   1.000  C
  C48      1.0000 0.50973  0.78110  0.64230  Biso   1.000  C
  F97      1.0000 0.03000  0.81900  0.19080  Biso   1.000  F
  F98      1.0000 0.53000  0.31900  0.19080  Biso   1.000  F
  F99      1.0000 0.97000  0.81900  0.30920  Biso   1.000  F
  F100     1.0000 0.47000  0.31900  0.30920  Biso   1.000  F
  F101     1.0000 0.97000  0.18100  0.80920  Biso   1.000  F
  F102     1.0000 0.47000  0.68100  0.80920  Biso   1.000  F
  F103     1.0000 0.03000  0.18100  0.69080  Biso   1.000  F
  F104     1.0000 0.53000  0.68100  0.69080  Biso   1.000  F
  F105     1.0000 0.02690  0.59200  0.15570  Biso   1.000  F
  F106     1.0000 0.52690  0.09200  0.15570  Biso   1.000  F
  F107     1.0000 0.97310  0.59200  0.34430  Biso   1.000  F
  F108     1.0000 0.47310  0.09200  0.34430  Biso   1.000  F
  F109     1.0000 0.97310  0.40800  0.84430  Biso   1.000  F
  F110     1.0000 0.47310  0.90800  0.84430  Biso   1.000  F
  F111     1.0000 0.02690  0.40800  0.65570  Biso   1.000  F
  F112     1.0000 0.52690  0.90800  0.65570  Biso   1.000  F
  F113     1.0000 0.95540  0.71800  0.11520  Biso   1.000  F
  F114     1.0000 0.45540  0.21800  0.11520  Biso   1.000  F
  F115     1.0000 0.04460  0.71800  0.38480  Biso   1.000  F
  F116     1.0000 0.54460  0.21800  0.38480  Biso   1.000  F
  F117     1.0000 0.04460  0.28200  0.88480  Biso   1.000  F
  F118     1.0000 0.54460  0.78200  0.88480  Biso   1.000  F
  F119     1.0000 0.95540  0.28200  0.61520  Biso   1.000  F
  F120     1.0000 0.45540  0.78200  0.61520  Biso   1.000  F
  F121     1.0000 0.02760  0.78300  0.19410  Biso   1.000  F
  F122     1.0000 0.52760  0.28300  0.19410  Biso   1.000  F
  F123     1.0000 0.97240  0.78300  0.30590  Biso   1.000  F
  F124     1.0000 0.47240  0.28300  0.30590  Biso   1.000  F
  F125     1.0000 0.97240  0.21700  0.80590  Biso   1.000  F
  F126     1.0000 0.47240  0.71700  0.80590  Biso   1.000  F
  F127     1.0000 0.02760  0.21700  0.69410  Biso   1.000  F
  F128     1.0000 0.52760  0.71700  0.69410  Biso   1.000  F
  F129     1.0000 0.03140  0.59200  0.17080  Biso   1.000  F
  F130     1.0000 0.53140  0.09200  0.17080  Biso   1.000  F
  F131     1.0000 0.96860  0.59200  0.32920  Biso   1.000  F
  F132     1.0000 0.46860  0.09200  0.32920  Biso   1.000  F
  F133     1.0000 0.96860  0.40800  0.82920  Biso   1.000  F
  F134     1.0000 0.46860  0.90800  0.82920  Biso   1.000  F
  F135     1.0000 0.03140  0.40800  0.67080  Biso   1.000  F
  F136     1.0000 0.53140  0.90800  0.67080  Biso   1.000  F
  F137     1.0000 0.96240  0.69600  0.11850  Biso   1.000  F
  F138     1.0000 0.46240  0.19600  0.11850  Biso   1.000  F
  F139     1.0000 0.03760  0.69600  0.38150  Biso   1.000  F
  F140     1.0000 0.53760  0.19600  0.38150  Biso   1.000  F
  F141     1.0000 0.03760  0.30400  0.88150  Biso   1.000  F
  F142     1.0000 0.53760  0.80400  0.88150  Biso   1.000  F
  F143     1.0000 0.96240  0.30400  0.61850  Biso   1.000  F
  F144     1.0000 0.46240  0.80400  0.61850  Biso   1.000  F
  C49      1.0000 0.02013  0.77480  0.09260  Biso   1.000  C
  C50      1.0000 0.52013  0.27480  0.09260  Biso   1.000  C
  C51      1.0000 0.97987  0.77480  0.40740  Biso   1.000  C
  C52      1.0000 0.47987  0.27480  0.40740  Biso   1.000  C
  C53      1.0000 0.97987  0.22520  0.90740  Biso   1.000  C
  C54      1.0000 0.47987  0.72520  0.90740  Biso   1.000  C
  C55      1.0000 0.02013  0.22520  0.59260  Biso   1.000  C
  C56      1.0000 0.52013  0.72520  0.59260  Biso   1.000  C
  C57      1.0000 0.04290  0.68760  0.07112  Biso   1.000  C
  C58      1.0000 0.54290  0.18760  0.07112  Biso   1.000  C
  C59      1.0000 0.95710  0.68760  0.42888  Biso   1.000  C
  C60      1.0000 0.45710  0.18760  0.42888  Biso   1.000  C
  C61      1.0000 0.95710  0.31240  0.92888  Biso   1.000  C
  C62      1.0000 0.45710  0.81240  0.92888  Biso   1.000  C
  C63      1.0000 0.04290  0.31240  0.57112  Biso   1.000  C
  C64      1.0000 0.54290  0.81240  0.57112  Biso   1.000  C
  H9       1.0000 0.05020  0.59900  0.08430  Biso   1.000  H
  H10      1.0000 0.55020  0.09900  0.08430  Biso   1.000  H
  H11      1.0000 0.94980  0.59900  0.41570  Biso   1.000  H
  H12      1.0000 0.44980  0.09900  0.41570  Biso   1.000  H
  H13      1.0000 0.94980  0.40100  0.91570  Biso   1.000  H
  H14      1.0000 0.44980  0.90100  0.91570  Biso   1.000  H
  H15      1.0000 0.05020  0.40100  0.58430  Biso   1.000  H
  H16      1.0000 0.55020  0.90100  0.58430  Biso   1.000  H
  C65      1.0000 0.05161  0.72800  0.02490  Biso   1.000  C
  C66      1.0000 0.55161  0.22800  0.02490  Biso   1.000  C
  C67      1.0000 0.94839  0.72800  0.47510  Biso   1.000  C
  C68      1.0000 0.44839  0.22800  0.47510  Biso   1.000  C
  C69      1.0000 0.94839  0.27200  0.97510  Biso   1.000  C
  C70      1.0000 0.44839  0.77200  0.97510  Biso   1.000  C
  C71      1.0000 0.05161  0.27200  0.52490  Biso   1.000  C
  C72      1.0000 0.55161  0.77200  0.52490  Biso   1.000  C
  C73      1.0000 0.07772  0.62310  0.00390  Biso   1.000  C
  C74      1.0000 0.57772  0.12310  0.00390  Biso   1.000  C
  C75      1.0000 0.92228  0.62310  0.49610  Biso   1.000  C
  C76      1.0000 0.42228  0.12310  0.49610  Biso   1.000  C
  C77      1.0000 0.92228  0.37690  0.99610  Biso   1.000  C
  C78      1.0000 0.42228  0.87690  0.99610  Biso   1.000  C
  C79      1.0000 0.07772  0.37690  0.50390  Biso   1.000  C
  C80      1.0000 0.57772  0.87690  0.50390  Biso   1.000  C
  F145     1.0000 0.07730  0.49440  0.02230  Biso   1.000  F
  F146     1.0000 0.57730  0.99440  0.02230  Biso   1.000  F
  F147     1.0000 0.92270  0.49440  0.47770  Biso   1.000  F
  F148     1.0000 0.42270  0.99440  0.47770  Biso   1.000  F
  F149     1.0000 0.92270  0.50560  0.97770  Biso   1.000  F
  F150     1.0000 0.42270  0.00560  0.97770  Biso   1.000  F
  F151     1.0000 0.07730  0.50560  0.52230  Biso   1.000  F
  F152     1.0000 0.57730  0.00560  0.52230  Biso   1.000  F
  F153     1.0000 0.11590  0.66180  0.00550  Biso   1.000  F
  F154     1.0000 0.61590  0.16180  0.00550  Biso   1.000  F
  F155     1.0000 0.88410  0.66180  0.49450  Biso   1.000  F
  F156     1.0000 0.38410  0.16180  0.49450  Biso   1.000  F
  F157     1.0000 0.88410  0.33820  0.99450  Biso   1.000  F
  F158     1.0000 0.38410  0.83820  0.99450  Biso   1.000  F
  F159     1.0000 0.11590  0.33820  0.50550  Biso   1.000  F
  F160     1.0000 0.61590  0.83820  0.50550  Biso   1.000  F
  F161     1.0000 0.03820  0.60410  0.93220  Biso   1.000  F
  F162     1.0000 0.53820  0.10410  0.93220  Biso   1.000  F
  F163     1.0000 0.96180  0.60410  0.56780  Biso   1.000  F
  F164     1.0000 0.46180  0.10410  0.56780  Biso   1.000  F
  F165     1.0000 0.96180  0.39590  0.06780  Biso   1.000  F
  F166     1.0000 0.46180  0.89590  0.06780  Biso   1.000  F
  F167     1.0000 0.03820  0.39590  0.43220  Biso   1.000  F
  F168     1.0000 0.53820  0.89590  0.43220  Biso   1.000  F
  F169     1.0000 0.13580  0.62700  0.06240  Biso   1.000  F
  F170     1.0000 0.63580  0.12700  0.06240  Biso   1.000  F
  F171     1.0000 0.86420  0.62700  0.43760  Biso   1.000  F
  F172     1.0000 0.36420  0.12700  0.43760  Biso   1.000  F
  F173     1.0000 0.86420  0.37300  0.93760  Biso   1.000  F
  F174     1.0000 0.36420  0.87300  0.93760  Biso   1.000  F
  F175     1.0000 0.13580  0.37300  0.56240  Biso   1.000  F
  F176     1.0000 0.63580  0.87300  0.56240  Biso   1.000  F
  F177     1.0000 0.08160  0.65620  0.96240  Biso   1.000  F
  F178     1.0000 0.58160  0.15620  0.96240  Biso   1.000  F
  F179     1.0000 0.91840  0.65620  0.53760  Biso   1.000  F
  F180     1.0000 0.41840  0.15620  0.53760  Biso   1.000  F
  F181     1.0000 0.91840  0.34380  0.03760  Biso   1.000  F
  F182     1.0000 0.41840  0.84380  0.03760  Biso   1.000  F
  F183     1.0000 0.08160  0.34380  0.46240  Biso   1.000  F
  F184     1.0000 0.58160  0.84380  0.46240  Biso   1.000  F
  F185     1.0000 0.06900  0.49480  0.00700  Biso   1.000  F
  F186     1.0000 0.56900  0.99480  0.00700  Biso   1.000  F
  F187     1.0000 0.93100  0.49480  0.49300  Biso   1.000  F
  F188     1.0000 0.43100  0.99480  0.49300  Biso   1.000  F
  F189     1.0000 0.93100  0.50520  0.99300  Biso   1.000  F
  F190     1.0000 0.43100  0.00520  0.99300  Biso   1.000  F
  F191     1.0000 0.06900  0.50520  0.50700  Biso   1.000  F
  F192     1.0000 0.56900  0.00520  0.50700  Biso   1.000  F
  O25      1.0000 0.04063  0.84311  0.99568  Biso   1.000  O
  O26      1.0000 0.54063  0.34311  0.99568  Biso   1.000  O
  O27      1.0000 0.95937  0.84311  0.50432  Biso   1.000  O
  O28      1.0000 0.45937  0.34311  0.50432  Biso   1.000  O
  O29      1.0000 0.95937  0.15689  0.00432  Biso   1.000  O
  O30      1.0000 0.45937  0.65689  0.00432  Biso   1.000  O
  O31      1.0000 0.04063  0.15689  0.49568  Biso   1.000  O
  O32      1.0000 0.54063  0.65689  0.49568  Biso   1.000  O
  O33      1.0000 0.07024  0.13491  0.05495  Biso   1.000  O
  O34      1.0000 0.57024  0.63491  0.05495  Biso   1.000  O
  O35      1.0000 0.92976  0.13491  0.44505  Biso   1.000  O
  O36      1.0000 0.42976  0.63491  0.44505  Biso   1.000  O
  O37      1.0000 0.92976  0.86509  0.94505  Biso   1.000  O
  O38      1.0000 0.42976  0.36509  0.94505  Biso   1.000  O
  O39      1.0000 0.07024  0.86509  0.55495  Biso   1.000  O
  O40      1.0000 0.57024  0.36509  0.55495  Biso   1.000  O
  N1       1.0000 0.11361  0.10270  0.10994  Biso   1.000  N
  N2       1.0000 0.61361  0.60270  0.10994  Biso   1.000  N
  N3       1.0000 0.88639  0.10270  0.39006  Biso   1.000  N
  N4       1.0000 0.38639  0.60270  0.39006  Biso   1.000  N
  N5       1.0000 0.88639  0.89730  0.89006  Biso   1.000  N
  N6       1.0000 0.38639  0.39730  0.89006  Biso   1.000  N
  N7       1.0000 0.11361  0.89730  0.60994  Biso   1.000  N
  N8       1.0000 0.61361  0.39730  0.60994  Biso   1.000  N
  C81      1.0000 0.12616  0.16480  0.17217  Biso   1.000  C
  C82      1.0000 0.62616  0.66480  0.17217  Biso   1.000  C
  C83      1.0000 0.87384  0.16480  0.32783  Biso   1.000  C
  C84      1.0000 0.37384  0.66480  0.32783  Biso   1.000  C
  C85      1.0000 0.87384  0.83520  0.82783  Biso   1.000  C
  C86      1.0000 0.37384  0.33520  0.82783  Biso   1.000  C
  C87      1.0000 0.12616  0.83520  0.67217  Biso   1.000  C
  C88      1.0000 0.62616  0.33520  0.67217  Biso   1.000  C
  C89      1.0000 0.14298  0.31710  0.17283  Biso   1.000  C
  C90      1.0000 0.64298  0.81710  0.17283  Biso   1.000  C
  C91      1.0000 0.85702  0.31710  0.32717  Biso   1.000  C
  C92      1.0000 0.35702  0.81710  0.32717  Biso   1.000  C
  C93      1.0000 0.85702  0.68290  0.82717  Biso   1.000  C
  C94      1.0000 0.35702  0.18290  0.82717  Biso   1.000  C
  C95      1.0000 0.14298  0.68290  0.67283  Biso   1.000  C
  C96      1.0000 0.64298  0.18290  0.67283  Biso   1.000  C
  H17      1.0000 0.11110  0.35300  0.13380  Biso   1.000  H
  H18      1.0000 0.61110  0.85300  0.13380  Biso   1.000  H
  H19      1.0000 0.88890  0.35300  0.36620  Biso   1.000  H
  H20      1.0000 0.38890  0.85300  0.36620  Biso   1.000  H
  H21      1.0000 0.88890  0.64700  0.86620  Biso   1.000  H
  H22      1.0000 0.38890  0.14700  0.86620  Biso   1.000  H
  H23      1.0000 0.11110  0.64700  0.63380  Biso   1.000  H
  H24      1.0000 0.61110  0.14700  0.63380  Biso   1.000  H
  H25      1.0000 0.16890  0.32200  0.16740  Biso   1.000  H
  H26      1.0000 0.66890  0.82200  0.16740  Biso   1.000  H
  H27      1.0000 0.83110  0.32200  0.33260  Biso   1.000  H
  H28      1.0000 0.33110  0.82200  0.33260  Biso   1.000  H
  H29      1.0000 0.83110  0.67800  0.83260  Biso   1.000  H
  H30      1.0000 0.33110  0.17800  0.83260  Biso   1.000  H
  H31      1.0000 0.16890  0.67800  0.66740  Biso   1.000  H
  H32      1.0000 0.66890  0.17800  0.66740  Biso   1.000  H
  H33      1.0000 0.14630  0.36000  0.20930  Biso   1.000  H
  H34      1.0000 0.64630  0.86000  0.20930  Biso   1.000  H
  H35      1.0000 0.85370  0.36000  0.29070  Biso   1.000  H
  H36      1.0000 0.35370  0.86000  0.29070  Biso   1.000  H
  H37      1.0000 0.85370  0.64000  0.79070  Biso   1.000  H
  H38      1.0000 0.35370  0.14000  0.79070  Biso   1.000  H
  H39      1.0000 0.14630  0.64000  0.70930  Biso   1.000  H
  H40      1.0000 0.64630  0.14000  0.70930  Biso   1.000  H
  C97      1.0000 0.07725  0.16080  0.17514  Biso   1.000  C
  C98      1.0000 0.57725  0.66080  0.17514  Biso   1.000  C
  C99      1.0000 0.92275  0.16080  0.32486  Biso   1.000  C
  C100     1.0000 0.42275  0.66080  0.32486  Biso   1.000  C
  C101     1.0000 0.92275  0.83920  0.82486  Biso   1.000  C
  C102     1.0000 0.42275  0.33920  0.82486  Biso   1.000  C
  C103     1.0000 0.07725  0.83920  0.67514  Biso   1.000  C
  C104     1.0000 0.57725  0.33920  0.67514  Biso   1.000  C
  H41      1.0000 0.05100  0.24200  0.14000  Biso   1.000  H
  H42      1.0000 0.55100  0.74200  0.14000  Biso   1.000  H
  H43      1.0000 0.94900  0.24200  0.36000  Biso   1.000  H
  H44      1.0000 0.44900  0.74200  0.36000  Biso   1.000  H
  H45      1.0000 0.94900  0.75800  0.86000  Biso   1.000  H
  H46      1.0000 0.44900  0.25800  0.86000  Biso   1.000  H
  H47      1.0000 0.05100  0.75800  0.64000  Biso   1.000  H
  H48      1.0000 0.55100  0.25800  0.64000  Biso   1.000  H
  H49      1.0000 0.08450  0.19400  0.21220  Biso   1.000  H
  H50      1.0000 0.58450  0.69400  0.21220  Biso   1.000  H
  H51      1.0000 0.91550  0.19400  0.28780  Biso   1.000  H
  H52      1.0000 0.41550  0.69400  0.28780  Biso   1.000  H
  H53      1.0000 0.91550  0.80600  0.78780  Biso   1.000  H
  H54      1.0000 0.41550  0.30600  0.78780  Biso   1.000  H
  H55      1.0000 0.08450  0.80600  0.71220  Biso   1.000  H
  H56      1.0000 0.58450  0.30600  0.71220  Biso   1.000  H
  H57      1.0000 0.06550  0.07500  0.16900  Biso   1.000  H
  H58      1.0000 0.56550  0.57500  0.16900  Biso   1.000  H
  H59      1.0000 0.93450  0.07500  0.33100  Biso   1.000  H
  H60      1.0000 0.43450  0.57500  0.33100  Biso   1.000  H
  H61      1.0000 0.93450  0.92500  0.83100  Biso   1.000  H
  H62      1.0000 0.43450  0.42500  0.83100  Biso   1.000  H
  H63      1.0000 0.06550  0.92500  0.66900  Biso   1.000  H
  H64      1.0000 0.56550  0.42500  0.66900  Biso   1.000  H
  C105     1.0000 0.17272  0.06760  0.22053  Biso   1.000  C
  C106     1.0000 0.67272  0.56760  0.22053  Biso   1.000  C
  C107     1.0000 0.82728  0.06760  0.27947  Biso   1.000  C
  C108     1.0000 0.32728  0.56760  0.27947  Biso   1.000  C
  C109     1.0000 0.82728  0.93240  0.77947  Biso   1.000  C
  C110     1.0000 0.32728  0.43240  0.77947  Biso   1.000  C
  C111     1.0000 0.17272  0.93240  0.72053  Biso   1.000  C
  C112     1.0000 0.67272  0.43240  0.72053  Biso   1.000  C
  C113     1.0000 0.15463  0.93070  0.23463  Biso   1.000  C
  C114     1.0000 0.65463  0.43070  0.23463  Biso   1.000  C
  C115     1.0000 0.84537  0.93070  0.26537  Biso   1.000  C
  C116     1.0000 0.34537  0.43070  0.26537  Biso   1.000  C
  C117     1.0000 0.84537  0.06930  0.76537  Biso   1.000  C
  C118     1.0000 0.34537  0.56930  0.76537  Biso   1.000  C
  C119     1.0000 0.15463  0.06930  0.73463  Biso   1.000  C
  C120     1.0000 0.65463  0.56930  0.73463  Biso   1.000  C
  H65      1.0000 0.18280  0.87100  0.25660  Biso   1.000  H
  H66      1.0000 0.68280  0.37100  0.25660  Biso   1.000  H
  H67      1.0000 0.81720  0.87100  0.24340  Biso   1.000  H
  H68      1.0000 0.31720  0.37100  0.24340  Biso   1.000  H
  H69      1.0000 0.81720  0.12900  0.74340  Biso   1.000  H
  H70      1.0000 0.31720  0.62900  0.74340  Biso   1.000  H
  H71      1.0000 0.18280  0.12900  0.75660  Biso   1.000  H
  H72      1.0000 0.68280  0.62900  0.75660  Biso   1.000  H
  H73      1.0000 0.12300  0.88500  0.19120  Biso   1.000  H
  H74      1.0000 0.62300  0.38500  0.19120  Biso   1.000  H
  H75      1.0000 0.87700  0.88500  0.30880  Biso   1.000  H
  H76      1.0000 0.37700  0.38500  0.30880  Biso   1.000  H
  H77      1.0000 0.87700  0.11500  0.80880  Biso   1.000  H
  H78      1.0000 0.37700  0.61500  0.80880  Biso   1.000  H
  H79      1.0000 0.12300  0.11500  0.69120  Biso   1.000  H
  H80      1.0000 0.62300  0.61500  0.69120  Biso   1.000  H
  H81      1.0000 0.13860  0.95100  0.25860  Biso   1.000  H
  H82      1.0000 0.63860  0.45100  0.25860  Biso   1.000  H
  H83      1.0000 0.86140  0.95100  0.24140  Biso   1.000  H
  H84      1.0000 0.36140  0.45100  0.24140  Biso   1.000  H
  H85      1.0000 0.86140  0.04900  0.74140  Biso   1.000  H
  H86      1.0000 0.36140  0.54900  0.74140  Biso   1.000  H
  H87      1.0000 0.13860  0.04900  0.75860  Biso   1.000  H
  H88      1.0000 0.63860  0.54900  0.75860  Biso   1.000  H
  C121     1.0000 0.21633  0.13890  0.28269  Biso   1.000  C
  C122     1.0000 0.71633  0.63890  0.28269  Biso   1.000  C
  C123     1.0000 0.78367  0.13890  0.21731  Biso   1.000  C
  C124     1.0000 0.28367  0.63890  0.21731  Biso   1.000  C
  C125     1.0000 0.78367  0.86110  0.71731  Biso   1.000  C
  C126     1.0000 0.28367  0.36110  0.71731  Biso   1.000  C
  C127     1.0000 0.21633  0.86110  0.78269  Biso   1.000  C
  C128     1.0000 0.71633  0.36110  0.78269  Biso   1.000  C
  H89      1.0000 0.24110  0.07800  0.30370  Biso   1.000  H
  H90      1.0000 0.74110  0.57800  0.30370  Biso   1.000  H
  H91      1.0000 0.75890  0.07800  0.19630  Biso   1.000  H
  H92      1.0000 0.25890  0.57800  0.19630  Biso   1.000  H
  H93      1.0000 0.75890  0.92200  0.69630  Biso   1.000  H
  H94      1.0000 0.25890  0.42200  0.69630  Biso   1.000  H
  H95      1.0000 0.24110  0.92200  0.80370  Biso   1.000  H
  H96      1.0000 0.74110  0.42200  0.80370  Biso   1.000  H
  H97      1.0000 0.19390  0.16000  0.30580  Biso   1.000  H
  H98      1.0000 0.69390  0.66000  0.30580  Biso   1.000  H
  H99      1.0000 0.80610  0.16000  0.19420  Biso   1.000  H
  H100     1.0000 0.30610  0.66000  0.19420  Biso   1.000  H
  H101     1.0000 0.80610  0.84000  0.69420  Biso   1.000  H
  H102     1.0000 0.30610  0.34000  0.69420  Biso   1.000  H
  H103     1.0000 0.19390  0.84000  0.80580  Biso   1.000  H
  H104     1.0000 0.69390  0.34000  0.80580  Biso   1.000  H
  H105     1.0000 0.23270  0.22200  0.27190  Biso   1.000  H
  H106     1.0000 0.73270  0.72200  0.27190  Biso   1.000  H
  H107     1.0000 0.76730  0.22200  0.22810  Biso   1.000  H
  H108     1.0000 0.26730  0.72200  0.22810  Biso   1.000  H
  H109     1.0000 0.76730  0.77800  0.72810  Biso   1.000  H
  H110     1.0000 0.26730  0.27800  0.72810  Biso   1.000  H
  H111     1.0000 0.23270  0.77800  0.77190  Biso   1.000  H
  H112     1.0000 0.73270  0.27800  0.77190  Biso   1.000  H
  N9       1.0000 0.19378  0.02710  0.18060  Biso   1.000  N
  N10      1.0000 0.69378  0.52710  0.18060  Biso   1.000  N
  N11      1.0000 0.80622  0.02710  0.31940  Biso   1.000  N
  N12      1.0000 0.30622  0.52710  0.31940  Biso   1.000  N
  N13      1.0000 0.80622  0.97290  0.81940  Biso   1.000  N
  N14      1.0000 0.30622  0.47290  0.81940  Biso   1.000  N
  N15      1.0000 0.19378  0.97290  0.68060  Biso   1.000  N
  N16      1.0000 0.69378  0.47290  0.68060  Biso   1.000  N
  O41      1.0000 0.23934  0.97260  0.20492  Biso   1.000  O
  O42      1.0000 0.73934  0.47260  0.20492  Biso   1.000  O
  O43      1.0000 0.76066  0.97260  0.29508  Biso   1.000  O
  O44      1.0000 0.26066  0.47260  0.29508  Biso   1.000  O
  O45      1.0000 0.76066  0.02740  0.79508  Biso   1.000  O
  O46      1.0000 0.26066  0.52740  0.79508  Biso   1.000  O
  O47      1.0000 0.23934  0.02740  0.70492  Biso   1.000  O
  O48      1.0000 0.73934  0.52740  0.70492  Biso   1.000  O
  C129     1.0000 0.15569  0.03800  0.11695  Biso   1.000  C
  C130     1.0000 0.65569  0.53800  0.11695  Biso   1.000  C
  C131     1.0000 0.84431  0.03800  0.38305  Biso   1.000  C
  C132     1.0000 0.34431  0.53800  0.38305  Biso   1.000  C
  C133     1.0000 0.84431  0.96200  0.88305  Biso   1.000  C
  C134     1.0000 0.34431  0.46200  0.88305  Biso   1.000  C
  C135     1.0000 0.15569  0.96200  0.61695  Biso   1.000  C
  C136     1.0000 0.65569  0.46200  0.61695  Biso   1.000  C
  C137     1.0000 0.16044  0.99000  0.06619  Biso   1.000  C
  C138     1.0000 0.66044  0.49000  0.06619  Biso   1.000  C
  C139     1.0000 0.83956  0.99000  0.43381  Biso   1.000  C
  C140     1.0000 0.33956  0.49000  0.43381  Biso   1.000  C
  C141     1.0000 0.83956  0.01000  0.93381  Biso   1.000  C
  C142     1.0000 0.33956  0.51000  0.93381  Biso   1.000  C
  C143     1.0000 0.16044  0.01000  0.56619  Biso   1.000  C
  C144     1.0000 0.66044  0.51000  0.56619  Biso   1.000  C
  C145     1.0000 0.20106  0.90780  0.07070  Biso   1.000  C
  C146     1.0000 0.70106  0.40780  0.07070  Biso   1.000  C
  C147     1.0000 0.79894  0.90780  0.42930  Biso   1.000  C
  C148     1.0000 0.29894  0.40780  0.42930  Biso   1.000  C
  C149     1.0000 0.79894  0.09220  0.92930  Biso   1.000  C
  C150     1.0000 0.29894  0.59220  0.92930  Biso   1.000  C
  C151     1.0000 0.20106  0.09220  0.57070  Biso   1.000  C
  C152     1.0000 0.70106  0.59220  0.57070  Biso   1.000  C
  H113     1.0000 0.23060  0.87200  0.10790  Biso   1.000  H
  H114     1.0000 0.73060  0.37200  0.10790  Biso   1.000  H
  H115     1.0000 0.76940  0.87200  0.39210  Biso   1.000  H
  H116     1.0000 0.26940  0.37200  0.39210  Biso   1.000  H
  H117     1.0000 0.76940  0.12800  0.89210  Biso   1.000  H
  H118     1.0000 0.26940  0.62800  0.89210  Biso   1.000  H
  H119     1.0000 0.23060  0.12800  0.60790  Biso   1.000  H
  H120     1.0000 0.73060  0.62800  0.60790  Biso   1.000  H
  N17      1.0000 0.19296  0.88660  0.01363  Biso   1.000  N
  N18      1.0000 0.69296  0.38660  0.01363  Biso   1.000  N
  N19      1.0000 0.80704  0.88660  0.48637  Biso   1.000  N
  N20      1.0000 0.30704  0.38660  0.48637  Biso   1.000  N
  N21      1.0000 0.80704  0.11340  0.98637  Biso   1.000  N
  N22      1.0000 0.30704  0.61340  0.98637  Biso   1.000  N
  N23      1.0000 0.19296  0.11340  0.51363  Biso   1.000  N
  N24      1.0000 0.69296  0.61340  0.51363  Biso   1.000  N
  N25      1.0000 0.14660  0.95700  0.97131  Biso   1.000  N
  N26      1.0000 0.64660  0.45700  0.97131  Biso   1.000  N
  N27      1.0000 0.85340  0.95700  0.52869  Biso   1.000  N
  N28      1.0000 0.35340  0.45700  0.52869  Biso   1.000  N
  N29      1.0000 0.85340  0.04300  0.02869  Biso   1.000  N
  N30      1.0000 0.35340  0.54300  0.02869  Biso   1.000  N
  N31      1.0000 0.14660  0.04300  0.47131  Biso   1.000  N
  N32      1.0000 0.64660  0.54300  0.47131  Biso   1.000  N
  C153     1.0000 0.12519  0.96280  0.90239  Biso   1.000  C
  C154     1.0000 0.62519  0.46280  0.90239  Biso   1.000  C
  C155     1.0000 0.87481  0.96280  0.59761  Biso   1.000  C
  C156     1.0000 0.37481  0.46280  0.59761  Biso   1.000  C
  C157     1.0000 0.87481  0.03720  0.09761  Biso   1.000  C
  C158     1.0000 0.37481  0.53720  0.09761  Biso   1.000  C
  C159     1.0000 0.12519  0.03720  0.40239  Biso   1.000  C
  C160     1.0000 0.62519  0.53720  0.40239  Biso   1.000  C
  H121     1.0000 0.14600  0.92000  0.89620  Biso   1.000  H
  H122     1.0000 0.64600  0.42000  0.89620  Biso   1.000  H
  H123     1.0000 0.85400  0.92000  0.60380  Biso   1.000  H
  H124     1.0000 0.35400  0.42000  0.60380  Biso   1.000  H
  H125     1.0000 0.85400  0.08000  0.10380  Biso   1.000  H
  H126     1.0000 0.35400  0.58000  0.10380  Biso   1.000  H
  H127     1.0000 0.14600  0.08000  0.39620  Biso   1.000  H
  H128     1.0000 0.64600  0.58000  0.39620  Biso   1.000  H
  H129     1.0000 0.10790  0.06000  0.87300  Biso   1.000  H
  H130     1.0000 0.60790  0.56000  0.87300  Biso   1.000  H
  H131     1.0000 0.89210  0.06000  0.62700  Biso   1.000  H
  H132     1.0000 0.39210  0.56000  0.62700  Biso   1.000  H
  H133     1.0000 0.89210  0.94000  0.12700  Biso   1.000  H
  H134     1.0000 0.39210  0.44000  0.12700  Biso   1.000  H
  H135     1.0000 0.10790  0.94000  0.37300  Biso   1.000  H
  H136     1.0000 0.60790  0.44000  0.37300  Biso   1.000  H
  C161     1.0000 0.07210  0.89910  0.86243  Biso   1.000  C
  C162     1.0000 0.57210  0.39910  0.86243  Biso   1.000  C
  C163     1.0000 0.92790  0.89910  0.63757  Biso   1.000  C
  C164     1.0000 0.42790  0.39910  0.63757  Biso   1.000  C
  C165     1.0000 0.92790  0.10090  0.13757  Biso   1.000  C
  C166     1.0000 0.42790  0.60090  0.13757  Biso   1.000  C
  C167     1.0000 0.07210  0.10090  0.36243  Biso   1.000  C
  C168     1.0000 0.57210  0.60090  0.36243  Biso   1.000  C
  H137     1.0000 0.05970  0.90580  0.81780  Biso   1.000  H
  H138     1.0000 0.55970  0.40580  0.81780  Biso   1.000  H
  H139     1.0000 0.94030  0.90580  0.68220  Biso   1.000  H
  H140     1.0000 0.44030  0.40580  0.68220  Biso   1.000  H
  H141     1.0000 0.94030  0.09420  0.18220  Biso   1.000  H
  H142     1.0000 0.44030  0.59420  0.18220  Biso   1.000  H
  H143     1.0000 0.05970  0.09420  0.31780  Biso   1.000  H
  H144     1.0000 0.55970  0.59420  0.31780  Biso   1.000  H
  H145     1.0000 0.04780  0.94810  0.86930  Biso   1.000  H
  H146     1.0000 0.54780  0.44810  0.86930  Biso   1.000  H
  H147     1.0000 0.95220  0.94810  0.63070  Biso   1.000  H
  H148     1.0000 0.45220  0.44810  0.63070  Biso   1.000  H
  H149     1.0000 0.95220  0.05190  0.13070  Biso   1.000  H
  H150     1.0000 0.45220  0.55190  0.13070  Biso   1.000  H
  H151     1.0000 0.04780  0.05190  0.36930  Biso   1.000  H
  H152     1.0000 0.54780  0.55190  0.36930  Biso   1.000  H
  H153     1.0000 0.07400  0.80150  0.87400  Biso   1.000  H
  H154     1.0000 0.57400  0.30150  0.87400  Biso   1.000  H
  H155     1.0000 0.92600  0.80150  0.62600  Biso   1.000  H
  H156     1.0000 0.42600  0.30150  0.62600  Biso   1.000  H
  H157     1.0000 0.92600  0.19850  0.12600  Biso   1.000  H
  H158     1.0000 0.42600  0.69850  0.12600  Biso   1.000  H
  H159     1.0000 0.07400  0.19850  0.37400  Biso   1.000  H
  H160     1.0000 0.57400  0.69850  0.37400  Biso   1.000  H
  C169     1.0000 0.12630  0.01910  0.00113  Biso   1.000  C
  C170     1.0000 0.62630  0.51910  0.00113  Biso   1.000  C
  C171     1.0000 0.87370  0.01910  0.49887  Biso   1.000  C
  C172     1.0000 0.37370  0.51910  0.49887  Biso   1.000  C
  C173     1.0000 0.87370  0.98090  0.99887  Biso   1.000  C
  C174     1.0000 0.37370  0.48090  0.99887  Biso   1.000  C
  C175     1.0000 0.12630  0.98090  0.50113  Biso   1.000  C
  C176     1.0000 0.62630  0.48090  0.50113  Biso   1.000  C
  H161     1.0000 0.09370  0.07100  0.97560  Biso   1.000  H
  H162     1.0000 0.59370  0.57100  0.97560  Biso   1.000  H
  H163     1.0000 0.90630  0.07100  0.52440  Biso   1.000  H
  H164     1.0000 0.40630  0.57100  0.52440  Biso   1.000  H
  H165     1.0000 0.90630  0.92900  0.02440  Biso   1.000  H
  H166     1.0000 0.40630  0.42900  0.02440  Biso   1.000  H
  H167     1.0000 0.09370  0.92900  0.47560  Biso   1.000  H
  H168     1.0000 0.59370  0.42900  0.47560  Biso   1.000  H
