data_image0
_cell_length_a       30.098
_cell_length_b       9.4572
_cell_length_c       24.923
_cell_angle_alpha    90
_cell_angle_beta     123.75
_cell_angle_gamma    90

_symmetry_space_group_name_H-M    "P 1"
_symmetry_int_tables_number       1

loop_
  _symmetry_equiv_pos_as_xyz
  'x, y, z'

loop_
  _atom_site_label
  _atom_site_occupancy
  _atom_site_fract_x
  _atom_site_fract_y
  _atom_site_fract_z
  _atom_site_thermal_displace_type
  _atom_site_B_iso_or_equiv
  _atom_site_type_symbol
  Cu1      1.0000 0.25000  0.75000  0.00000  Biso   1.000  Cu
  Cu2      1.0000 0.75000  0.25000  0.00000  Biso   1.000  Cu
  Cu3      1.0000 0.75000  0.75000  0.50000  Biso   1.000  Cu
  Cu4      1.0000 0.25000  0.25000  0.50000  Biso   1.000  Cu
  O1       1.0000 0.30978  0.82543  0.08674  Biso   1.000  O
  O2       1.0000 0.80978  0.32543  0.08674  Biso   1.000  O
  O3       1.0000 0.69022  0.82543  0.41326  Biso   1.000  O
  O4       1.0000 0.19022  0.32543  0.41326  Biso   1.000  O
  O5       1.0000 0.69022  0.17457  0.91326  Biso   1.000  O
  O6       1.0000 0.19022  0.67457  0.91326  Biso   1.000  O
  O7       1.0000 0.30978  0.17457  0.58674  Biso   1.000  O
  O8       1.0000 0.80978  0.67457  0.58674  Biso   1.000  O
  C1       1.0000 0.36920  0.98600  0.16526  Biso   1.000  C
  C2       1.0000 0.86920  0.48600  0.16526  Biso   1.000  C
  C3       1.0000 0.63080  0.98600  0.33474  Biso   1.000  C
  C4       1.0000 0.13080  0.48600  0.33474  Biso   1.000  C
  C5       1.0000 0.63080  0.01400  0.83474  Biso   1.000  C
  C6       1.0000 0.13080  0.51400  0.83474  Biso   1.000  C
  C7       1.0000 0.36920  0.01400  0.66526  Biso   1.000  C
  C8       1.0000 0.86920  0.51400  0.66526  Biso   1.000  C
  F1       1.0000 0.39720  0.88500  0.19990  Biso   1.000  F
  F2       1.0000 0.89720  0.38500  0.19990  Biso   1.000  F
  F3       1.0000 0.60280  0.88500  0.30010  Biso   1.000  F
  F4       1.0000 0.10280  0.38500  0.30010  Biso   1.000  F
  F5       1.0000 0.60280  0.11500  0.80010  Biso   1.000  F
  F6       1.0000 0.10280  0.61500  0.80010  Biso   1.000  F
  F7       1.0000 0.39720  0.11500  0.69990  Biso   1.000  F
  F8       1.0000 0.89720  0.61500  0.69990  Biso   1.000  F
  F9       1.0000 0.34090  0.02410  0.18970  Biso   1.000  F
  F10      1.0000 0.84090  0.52410  0.18970  Biso   1.000  F
  F11      1.0000 0.65910  0.02410  0.31030  Biso   1.000  F
  F12      1.0000 0.15910  0.52410  0.31030  Biso   1.000  F
  F13      1.0000 0.65910  0.97590  0.81030  Biso   1.000  F
  F14      1.0000 0.15910  0.47590  0.81030  Biso   1.000  F
  F15      1.0000 0.34090  0.97590  0.68970  Biso   1.000  F
  F16      1.0000 0.84090  0.47590  0.68970  Biso   1.000  F
  F17      1.0000 0.39980  0.08730  0.17460  Biso   1.000  F
  F18      1.0000 0.89980  0.58730  0.17460  Biso   1.000  F
  F19      1.0000 0.60020  0.08730  0.32540  Biso   1.000  F
  F20      1.0000 0.10020  0.58730  0.32540  Biso   1.000  F
  F21      1.0000 0.60020  0.91270  0.82540  Biso   1.000  F
  F22      1.0000 0.10020  0.41270  0.82540  Biso   1.000  F
  F23      1.0000 0.39980  0.91270  0.67460  Biso   1.000  F
  F24      1.0000 0.89980  0.41270  0.67460  Biso   1.000  F
  F25      1.0000 0.35740  0.94860  0.20210  Biso   1.000  F
  F26      1.0000 0.85740  0.44860  0.20210  Biso   1.000  F
  F27      1.0000 0.64260  0.94860  0.29790  Biso   1.000  F
  F28      1.0000 0.14260  0.44860  0.29790  Biso   1.000  F
  F29      1.0000 0.64260  0.05140  0.79790  Biso   1.000  F
  F30      1.0000 0.14260  0.55140  0.79790  Biso   1.000  F
  F31      1.0000 0.35740  0.05140  0.70210  Biso   1.000  F
  F32      1.0000 0.85740  0.55140  0.70210  Biso   1.000  F
  F33      1.0000 0.38180  0.11690  0.17390  Biso   1.000  F
  F34      1.0000 0.88180  0.61690  0.17390  Biso   1.000  F
  F35      1.0000 0.61820  0.11690  0.32610  Biso   1.000  F
  F36      1.0000 0.11820  0.61690  0.32610  Biso   1.000  F
  F37      1.0000 0.61820  0.88310  0.82610  Biso   1.000  F
  F38      1.0000 0.11820  0.38310  0.82610  Biso   1.000  F
  F39      1.0000 0.38180  0.88310  0.67390  Biso   1.000  F
  F40      1.0000 0.88180  0.38310  0.67390  Biso   1.000  F
  F41      1.0000 0.41590  0.92350  0.18490  Biso   1.000  F
  F42      1.0000 0.91590  0.42350  0.18490  Biso   1.000  F
  F43      1.0000 0.58410  0.92350  0.31510  Biso   1.000  F
  F44      1.0000 0.08410  0.42350  0.31510  Biso   1.000  F
  F45      1.0000 0.58410  0.07650  0.81510  Biso   1.000  F
  F46      1.0000 0.08410  0.57650  0.81510  Biso   1.000  F
  F47      1.0000 0.41590  0.07650  0.68490  Biso   1.000  F
  F48      1.0000 0.91590  0.57650  0.68490  Biso   1.000  F
  C9       1.0000 0.32929  0.94610  0.09443  Biso   1.000  C
  C10      1.0000 0.82929  0.44610  0.09443  Biso   1.000  C
  C11      1.0000 0.67071  0.94610  0.40557  Biso   1.000  C
  C12      1.0000 0.17071  0.44610  0.40557  Biso   1.000  C
  C13      1.0000 0.67071  0.05390  0.90557  Biso   1.000  C
  C14      1.0000 0.17071  0.55390  0.90557  Biso   1.000  C
  C15      1.0000 0.32929  0.05390  0.59443  Biso   1.000  C
  C16      1.0000 0.82929  0.55390  0.59443  Biso   1.000  C
  C17      1.0000 0.31849  0.04560  0.04830  Biso   1.000  C
  C18      1.0000 0.81849  0.54560  0.04830  Biso   1.000  C
  C19      1.0000 0.68151  0.04560  0.45170  Biso   1.000  C
  C20      1.0000 0.18151  0.54560  0.45170  Biso   1.000  C
  C21      1.0000 0.68151  0.95440  0.95170  Biso   1.000  C
  C22      1.0000 0.18151  0.45440  0.95170  Biso   1.000  C
  C23      1.0000 0.31849  0.95440  0.54830  Biso   1.000  C
  C24      1.0000 0.81849  0.45440  0.54830  Biso   1.000  C
  H1       1.0000 0.33210  0.13200  0.05880  Biso   1.000  H
  H2       1.0000 0.83210  0.63200  0.05880  Biso   1.000  H
  H3       1.0000 0.66790  0.13200  0.44120  Biso   1.000  H
  H4       1.0000 0.16790  0.63200  0.44120  Biso   1.000  H
  H5       1.0000 0.66790  0.86800  0.94120  Biso   1.000  H
  H6       1.0000 0.16790  0.36800  0.94120  Biso   1.000  H
  H7       1.0000 0.33210  0.86800  0.55880  Biso   1.000  H
  H8       1.0000 0.83210  0.36800  0.55880  Biso   1.000  H
  C25      1.0000 0.28261  0.02200  0.98310  Biso   1.000  C
  C26      1.0000 0.78261  0.52200  0.98310  Biso   1.000  C
  C27      1.0000 0.71739  0.02200  0.51690  Biso   1.000  C
  C28      1.0000 0.21739  0.52200  0.51690  Biso   1.000  C
  C29      1.0000 0.71739  0.97800  0.01690  Biso   1.000  C
  C30      1.0000 0.21739  0.47800  0.01690  Biso   1.000  C
  C31      1.0000 0.28261  0.97800  0.48310  Biso   1.000  C
  C32      1.0000 0.78261  0.47800  0.48310  Biso   1.000  C
  C33      1.0000 0.27204  0.14490  0.93753  Biso   1.000  C
  C34      1.0000 0.77204  0.64490  0.93753  Biso   1.000  C
  C35      1.0000 0.72796  0.14490  0.56247  Biso   1.000  C
  C36      1.0000 0.22796  0.64490  0.56247  Biso   1.000  C
  C37      1.0000 0.72796  0.85510  0.06247  Biso   1.000  C
  C38      1.0000 0.22796  0.35510  0.06247  Biso   1.000  C
  C39      1.0000 0.27204  0.85510  0.43753  Biso   1.000  C
  C40      1.0000 0.77204  0.35510  0.43753  Biso   1.000  C
  F49      1.0000 0.21830  0.15640  0.89280  Biso   1.000  F
  F50      1.0000 0.71830  0.65640  0.89280  Biso   1.000  F
  F51      1.0000 0.78170  0.15640  0.60720  Biso   1.000  F
  F52      1.0000 0.28170  0.65640  0.60720  Biso   1.000  F
  F53      1.0000 0.78170  0.84360  0.10720  Biso   1.000  F
  F54      1.0000 0.28170  0.34360  0.10720  Biso   1.000  F
  F55      1.0000 0.21830  0.84360  0.39280  Biso   1.000  F
  F56      1.0000 0.71830  0.34360  0.39280  Biso   1.000  F
  F57      1.0000 0.27900  0.27090  0.96440  Biso   1.000  F
  F58      1.0000 0.77900  0.77090  0.96440  Biso   1.000  F
  F59      1.0000 0.72100  0.27090  0.53560  Biso   1.000  F
  F60      1.0000 0.22100  0.77090  0.53560  Biso   1.000  F
  F61      1.0000 0.72100  0.72910  0.03560  Biso   1.000  F
  F62      1.0000 0.22100  0.22910  0.03560  Biso   1.000  F
  F63      1.0000 0.27900  0.72910  0.46440  Biso   1.000  F
  F64      1.0000 0.77900  0.22910  0.46440  Biso   1.000  F
  F65      1.0000 0.31050  0.14350  0.92580  Biso   1.000  F
  F66      1.0000 0.81050  0.64350  0.92580  Biso   1.000  F
  F67      1.0000 0.68950  0.14350  0.57420  Biso   1.000  F
  F68      1.0000 0.18950  0.64350  0.57420  Biso   1.000  F
  F69      1.0000 0.68950  0.85650  0.07420  Biso   1.000  F
  F70      1.0000 0.18950  0.35650  0.07420  Biso   1.000  F
  F71      1.0000 0.31050  0.85650  0.42580  Biso   1.000  F
  F72      1.0000 0.81050  0.35650  0.42580  Biso   1.000  F
  F73      1.0000 0.22840  0.14670  0.88780  Biso   1.000  F
  F74      1.0000 0.72840  0.64670  0.88780  Biso   1.000  F
  F75      1.0000 0.77160  0.14670  0.61220  Biso   1.000  F
  F76      1.0000 0.27160  0.64670  0.61220  Biso   1.000  F
  F77      1.0000 0.77160  0.85330  0.11220  Biso   1.000  F
  F78      1.0000 0.27160  0.35330  0.11220  Biso   1.000  F
  F79      1.0000 0.22840  0.85330  0.38780  Biso   1.000  F
  F80      1.0000 0.72840  0.35330  0.38780  Biso   1.000  F
  F81      1.0000 0.28990  0.26180  0.96610  Biso   1.000  F
  F82      1.0000 0.78990  0.76180  0.96610  Biso   1.000  F
  F83      1.0000 0.71010  0.26180  0.53390  Biso   1.000  F
  F84      1.0000 0.21010  0.76180  0.53390  Biso   1.000  F
  F85      1.0000 0.71010  0.73820  0.03390  Biso   1.000  F
  F86      1.0000 0.21010  0.23820  0.03390  Biso   1.000  F
  F87      1.0000 0.28990  0.73820  0.46610  Biso   1.000  F
  F88      1.0000 0.78990  0.23820  0.46610  Biso   1.000  F
  F89      1.0000 0.29140  0.12200  0.90320  Biso   1.000  F
  F90      1.0000 0.79140  0.62200  0.90320  Biso   1.000  F
  F91      1.0000 0.70860  0.12200  0.59680  Biso   1.000  F
  F92      1.0000 0.20860  0.62200  0.59680  Biso   1.000  F
  F93      1.0000 0.70860  0.87800  0.09680  Biso   1.000  F
  F94      1.0000 0.20860  0.37800  0.09680  Biso   1.000  F
  F95      1.0000 0.29140  0.87800  0.40320  Biso   1.000  F
  F96      1.0000 0.79140  0.37800  0.40320  Biso   1.000  F
  O9       1.0000 0.25643  0.91318  0.95514  Biso   1.000  O
  O10      1.0000 0.75643  0.41318  0.95514  Biso   1.000  O
  O11      1.0000 0.74357  0.91318  0.54486  Biso   1.000  O
  O12      1.0000 0.24357  0.41318  0.54486  Biso   1.000  O
  O13      1.0000 0.74357  0.08682  0.04486  Biso   1.000  O
  O14      1.0000 0.24357  0.58682  0.04486  Biso   1.000  O
  O15      1.0000 0.25643  0.08682  0.45514  Biso   1.000  O
  O16      1.0000 0.75643  0.58682  0.45514  Biso   1.000  O
  Cu5      1.0000 0.00000  0.00000  0.00000  Biso   1.000  Cu
  Cu6      1.0000 0.50000  0.50000  0.00000  Biso   1.000  Cu
  Cu7      1.0000 0.00000  0.00000  0.50000  Biso   1.000  Cu
  Cu8      1.0000 0.50000  0.50000  0.50000  Biso   1.000  Cu
  O17      1.0000 0.00451  0.89914  0.07672  Biso   1.000  O
  O18      1.0000 0.50451  0.39914  0.07672  Biso   1.000  O
  O19      1.0000 0.99549  0.89914  0.42328  Biso   1.000  O
  O20      1.0000 0.49549  0.39914  0.42328  Biso   1.000  O
  O21      1.0000 0.99549  0.10086  0.92328  Biso   1.000  O
  O22      1.0000 0.49549  0.60086  0.92328  Biso   1.000  O
  O23      1.0000 0.00451  0.10086  0.57672  Biso   1.000  O
  O24      1.0000 0.50451  0.60086  0.57672  Biso   1.000  O
  C41      1.0000 0.00865  0.71890  0.14237  Biso   1.000  C
  C42      1.0000 0.50865  0.21890  0.14237  Biso   1.000  C
  C43      1.0000 0.99135  0.71890  0.35763  Biso   1.000  C
  C44      1.0000 0.49135  0.21890  0.35763  Biso   1.000  C
  C45      1.0000 0.99135  0.28110  0.85763  Biso   1.000  C
  C46      1.0000 0.49135  0.78110  0.85763  Biso   1.000  C
  C47      1.0000 0.00865  0.28110  0.64237  Biso   1.000  C
  C48      1.0000 0.50865  0.78110  0.64237  Biso   1.000  C
  F97      1.0000 0.02820  0.81810  0.19210  Biso   1.000  F
  F98      1.0000 0.52820  0.31810  0.19210  Biso   1.000  F
  F99      1.0000 0.97180  0.81810  0.30790  Biso   1.000  F
  F100     1.0000 0.47180  0.31810  0.30790  Biso   1.000  F
  F101     1.0000 0.97180  0.18190  0.80790  Biso   1.000  F
  F102     1.0000 0.47180  0.68190  0.80790  Biso   1.000  F
  F103     1.0000 0.02820  0.18190  0.69210  Biso   1.000  F
  F104     1.0000 0.52820  0.68190  0.69210  Biso   1.000  F
  F105     1.0000 0.02570  0.58300  0.15370  Biso   1.000  F
  F106     1.0000 0.52570  0.08300  0.15370  Biso   1.000  F
  F107     1.0000 0.97430  0.58300  0.34630  Biso   1.000  F
  F108     1.0000 0.47430  0.08300  0.34630  Biso   1.000  F
  F109     1.0000 0.97430  0.41700  0.84630  Biso   1.000  F
  F110     1.0000 0.47430  0.91700  0.84630  Biso   1.000  F
  F111     1.0000 0.02570  0.41700  0.65370  Biso   1.000  F
  F112     1.0000 0.52570  0.91700  0.65370  Biso   1.000  F
  F113     1.0000 0.95520  0.72300  0.11510  Biso   1.000  F
  F114     1.0000 0.45520  0.22300  0.11510  Biso   1.000  F
  F115     1.0000 0.04480  0.72300  0.38490  Biso   1.000  F
  F116     1.0000 0.54480  0.22300  0.38490  Biso   1.000  F
  F117     1.0000 0.04480  0.27700  0.88490  Biso   1.000  F
  F118     1.0000 0.54480  0.77700  0.88490  Biso   1.000  F
  F119     1.0000 0.95520  0.27700  0.61510  Biso   1.000  F
  F120     1.0000 0.45520  0.77700  0.61510  Biso   1.000  F
  F121     1.0000 0.02910  0.78300  0.19310  Biso   1.000  F
  F122     1.0000 0.52910  0.28300  0.19310  Biso   1.000  F
  F123     1.0000 0.97090  0.78300  0.30690  Biso   1.000  F
  F124     1.0000 0.47090  0.28300  0.30690  Biso   1.000  F
  F125     1.0000 0.97090  0.21700  0.80690  Biso   1.000  F
  F126     1.0000 0.47090  0.71700  0.80690  Biso   1.000  F
  F127     1.0000 0.02910  0.21700  0.69310  Biso   1.000  F
  F128     1.0000 0.52910  0.71700  0.69310  Biso   1.000  F
  F129     1.0000 0.02950  0.59660  0.17090  Biso   1.000  F
  F130     1.0000 0.52950  0.09660  0.17090  Biso   1.000  F
  F131     1.0000 0.97050  0.59660  0.32910  Biso   1.000  F
  F132     1.0000 0.47050  0.09660  0.32910  Biso   1.000  F
  F133     1.0000 0.97050  0.40340  0.82910  Biso   1.000  F
  F134     1.0000 0.47050  0.90340  0.82910  Biso   1.000  F
  F135     1.0000 0.02950  0.40340  0.67090  Biso   1.000  F
  F136     1.0000 0.52950  0.90340  0.67090  Biso   1.000  F
  F137     1.0000 0.95990  0.69100  0.11820  Biso   1.000  F
  F138     1.0000 0.45990  0.19100  0.11820  Biso   1.000  F
  F139     1.0000 0.04010  0.69100  0.38180  Biso   1.000  F
  F140     1.0000 0.54010  0.19100  0.38180  Biso   1.000  F
  F141     1.0000 0.04010  0.30900  0.88180  Biso   1.000  F
  F142     1.0000 0.54010  0.80900  0.88180  Biso   1.000  F
  F143     1.0000 0.95990  0.30900  0.61820  Biso   1.000  F
  F144     1.0000 0.45990  0.80900  0.61820  Biso   1.000  F
  C49      1.0000 0.01922  0.77410  0.09279  Biso   1.000  C
  C50      1.0000 0.51922  0.27410  0.09279  Biso   1.000  C
  C51      1.0000 0.98078  0.77410  0.40721  Biso   1.000  C
  C52      1.0000 0.48078  0.27410  0.40721  Biso   1.000  C
  C53      1.0000 0.98078  0.22590  0.90721  Biso   1.000  C
  C54      1.0000 0.48078  0.72590  0.90721  Biso   1.000  C
  C55      1.0000 0.01922  0.22590  0.59279  Biso   1.000  C
  C56      1.0000 0.51922  0.72590  0.59279  Biso   1.000  C
  C57      1.0000 0.04258  0.68700  0.07145  Biso   1.000  C
  C58      1.0000 0.54258  0.18700  0.07145  Biso   1.000  C
  C59      1.0000 0.95742  0.68700  0.42855  Biso   1.000  C
  C60      1.0000 0.45742  0.18700  0.42855  Biso   1.000  C
  C61      1.0000 0.95742  0.31300  0.92855  Biso   1.000  C
  C62      1.0000 0.45742  0.81300  0.92855  Biso   1.000  C
  C63      1.0000 0.04258  0.31300  0.57145  Biso   1.000  C
  C64      1.0000 0.54258  0.81300  0.57145  Biso   1.000  C
  H9       1.0000 0.04970  0.60700  0.08530  Biso   1.000  H
  H10      1.0000 0.54970  0.10700  0.08530  Biso   1.000  H
  H11      1.0000 0.95030  0.60700  0.41470  Biso   1.000  H
  H12      1.0000 0.45030  0.10700  0.41470  Biso   1.000  H
  H13      1.0000 0.95030  0.39300  0.91470  Biso   1.000  H
  H14      1.0000 0.45030  0.89300  0.91470  Biso   1.000  H
  H15      1.0000 0.04970  0.39300  0.58530  Biso   1.000  H
  H16      1.0000 0.54970  0.89300  0.58530  Biso   1.000  H
  C65      1.0000 0.05166  0.72750  0.02513  Biso   1.000  C
  C66      1.0000 0.55166  0.22750  0.02513  Biso   1.000  C
  C67      1.0000 0.94834  0.72750  0.47487  Biso   1.000  C
  C68      1.0000 0.44834  0.22750  0.47487  Biso   1.000  C
  C69      1.0000 0.94834  0.27250  0.97487  Biso   1.000  C
  C70      1.0000 0.44834  0.77250  0.97487  Biso   1.000  C
  C71      1.0000 0.05166  0.27250  0.52513  Biso   1.000  C
  C72      1.0000 0.55166  0.77250  0.52513  Biso   1.000  C
  C73      1.0000 0.07768  0.62220  0.00460  Biso   1.000  C
  C74      1.0000 0.57768  0.12220  0.00460  Biso   1.000  C
  C75      1.0000 0.92232  0.62220  0.49540  Biso   1.000  C
  C76      1.0000 0.42232  0.12220  0.49540  Biso   1.000  C
  C77      1.0000 0.92232  0.37780  0.99540  Biso   1.000  C
  C78      1.0000 0.42232  0.87780  0.99540  Biso   1.000  C
  C79      1.0000 0.07768  0.37780  0.50460  Biso   1.000  C
  C80      1.0000 0.57768  0.87780  0.50460  Biso   1.000  C
  F145     1.0000 0.07690  0.49350  0.02240  Biso   1.000  F
  F146     1.0000 0.57690  0.99350  0.02240  Biso   1.000  F
  F147     1.0000 0.92310  0.49350  0.47760  Biso   1.000  F
  F148     1.0000 0.42310  0.99350  0.47760  Biso   1.000  F
  F149     1.0000 0.92310  0.50650  0.97760  Biso   1.000  F
  F150     1.0000 0.42310  0.00650  0.97760  Biso   1.000  F
  F151     1.0000 0.07690  0.50650  0.52240  Biso   1.000  F
  F152     1.0000 0.57690  0.00650  0.52240  Biso   1.000  F
  F153     1.0000 0.11600  0.66000  0.00510  Biso   1.000  F
  F154     1.0000 0.61600  0.16000  0.00510  Biso   1.000  F
  F155     1.0000 0.88400  0.66000  0.49490  Biso   1.000  F
  F156     1.0000 0.38400  0.16000  0.49490  Biso   1.000  F
  F157     1.0000 0.88400  0.34000  0.99490  Biso   1.000  F
  F158     1.0000 0.38400  0.84000  0.99490  Biso   1.000  F
  F159     1.0000 0.11600  0.34000  0.50510  Biso   1.000  F
  F160     1.0000 0.61600  0.84000  0.50510  Biso   1.000  F
  F161     1.0000 0.03770  0.60200  0.93260  Biso   1.000  F
  F162     1.0000 0.53770  0.10200  0.93260  Biso   1.000  F
  F163     1.0000 0.96230  0.60200  0.56740  Biso   1.000  F
  F164     1.0000 0.46230  0.10200  0.56740  Biso   1.000  F
  F165     1.0000 0.96230  0.39800  0.06740  Biso   1.000  F
  F166     1.0000 0.46230  0.89800  0.06740  Biso   1.000  F
  F167     1.0000 0.03770  0.39800  0.43260  Biso   1.000  F
  F168     1.0000 0.53770  0.89800  0.43260  Biso   1.000  F
  F169     1.0000 0.13606  0.62710  0.06310  Biso   1.000  F
  F170     1.0000 0.63606  0.12710  0.06310  Biso   1.000  F
  F171     1.0000 0.86394  0.62710  0.43690  Biso   1.000  F
  F172     1.0000 0.36394  0.12710  0.43690  Biso   1.000  F
  F173     1.0000 0.86394  0.37290  0.93690  Biso   1.000  F
  F174     1.0000 0.36394  0.87290  0.93690  Biso   1.000  F
  F175     1.0000 0.13606  0.37290  0.56310  Biso   1.000  F
  F176     1.0000 0.63606  0.87290  0.56310  Biso   1.000  F
  F177     1.0000 0.08120  0.65520  0.96220  Biso   1.000  F
  F178     1.0000 0.58120  0.15520  0.96220  Biso   1.000  F
  F179     1.0000 0.91880  0.65520  0.53780  Biso   1.000  F
  F180     1.0000 0.41880  0.15520  0.53780  Biso   1.000  F
  F181     1.0000 0.91880  0.34480  0.03780  Biso   1.000  F
  F182     1.0000 0.41880  0.84480  0.03780  Biso   1.000  F
  F183     1.0000 0.08120  0.34480  0.46220  Biso   1.000  F
  F184     1.0000 0.58120  0.84480  0.46220  Biso   1.000  F
  F185     1.0000 0.07030  0.49230  0.00920  Biso   1.000  F
  F186     1.0000 0.57030  0.99230  0.00920  Biso   1.000  F
  F187     1.0000 0.92970  0.49230  0.49080  Biso   1.000  F
  F188     1.0000 0.42970  0.99230  0.49080  Biso   1.000  F
  F189     1.0000 0.92970  0.50770  0.99080  Biso   1.000  F
  F190     1.0000 0.42970  0.00770  0.99080  Biso   1.000  F
  F191     1.0000 0.07030  0.50770  0.50920  Biso   1.000  F
  F192     1.0000 0.57030  0.00770  0.50920  Biso   1.000  F
  O25      1.0000 0.04099  0.84267  0.99613  Biso   1.000  O
  O26      1.0000 0.54099  0.34267  0.99613  Biso   1.000  O
  O27      1.0000 0.95901  0.84267  0.50387  Biso   1.000  O
  O28      1.0000 0.45901  0.34267  0.50387  Biso   1.000  O
  O29      1.0000 0.95901  0.15733  0.00387  Biso   1.000  O
  O30      1.0000 0.45901  0.65733  0.00387  Biso   1.000  O
  O31      1.0000 0.04099  0.15733  0.49613  Biso   1.000  O
  O32      1.0000 0.54099  0.65733  0.49613  Biso   1.000  O
  O33      1.0000 0.07017  0.13413  0.05499  Biso   1.000  O
  O34      1.0000 0.57017  0.63413  0.05499  Biso   1.000  O
  O35      1.0000 0.92983  0.13413  0.44501  Biso   1.000  O
  O36      1.0000 0.42983  0.63413  0.44501  Biso   1.000  O
  O37      1.0000 0.92983  0.86587  0.94501  Biso   1.000  O
  O38      1.0000 0.42983  0.36587  0.94501  Biso   1.000  O
  O39      1.0000 0.07017  0.86587  0.55499  Biso   1.000  O
  O40      1.0000 0.57017  0.36587  0.55499  Biso   1.000  O
  N1       1.0000 0.11334  0.10103  0.11019  Biso   1.000  N
  N2       1.0000 0.61334  0.60103  0.11019  Biso   1.000  N
  N3       1.0000 0.88666  0.10103  0.38981  Biso   1.000  N
  N4       1.0000 0.38666  0.60103  0.38981  Biso   1.000  N
  N5       1.0000 0.88666  0.89897  0.88981  Biso   1.000  N
  N6       1.0000 0.38666  0.39897  0.88981  Biso   1.000  N
  N7       1.0000 0.11334  0.89897  0.61019  Biso   1.000  N
  N8       1.0000 0.61334  0.39897  0.61019  Biso   1.000  N
  C81      1.0000 0.12571  0.16340  0.17230  Biso   1.000  C
  C82      1.0000 0.62571  0.66340  0.17230  Biso   1.000  C
  C83      1.0000 0.87429  0.16340  0.32770  Biso   1.000  C
  C84      1.0000 0.37429  0.66340  0.32770  Biso   1.000  C
  C85      1.0000 0.87429  0.83660  0.82770  Biso   1.000  C
  C86      1.0000 0.37429  0.33660  0.82770  Biso   1.000  C
  C87      1.0000 0.12571  0.83660  0.67230  Biso   1.000  C
  C88      1.0000 0.62571  0.33660  0.67230  Biso   1.000  C
  C89      1.0000 0.14266  0.31530  0.17295  Biso   1.000  C
  C90      1.0000 0.64266  0.81530  0.17295  Biso   1.000  C
  C91      1.0000 0.85734  0.31530  0.32705  Biso   1.000  C
  C92      1.0000 0.35734  0.81530  0.32705  Biso   1.000  C
  C93      1.0000 0.85734  0.68470  0.82705  Biso   1.000  C
  C94      1.0000 0.35734  0.18470  0.82705  Biso   1.000  C
  C95      1.0000 0.14266  0.68470  0.67295  Biso   1.000  C
  C96      1.0000 0.64266  0.18470  0.67295  Biso   1.000  C
  H17      1.0000 0.11240  0.35500  0.13380  Biso   1.000  H
  H18      1.0000 0.61240  0.85500  0.13380  Biso   1.000  H
  H19      1.0000 0.88760  0.35500  0.36620  Biso   1.000  H
  H20      1.0000 0.38760  0.85500  0.36620  Biso   1.000  H
  H21      1.0000 0.88760  0.64500  0.86620  Biso   1.000  H
  H22      1.0000 0.38760  0.14500  0.86620  Biso   1.000  H
  H23      1.0000 0.11240  0.64500  0.63380  Biso   1.000  H
  H24      1.0000 0.61240  0.14500  0.63380  Biso   1.000  H
  H25      1.0000 0.16790  0.31800  0.17040  Biso   1.000  H
  H26      1.0000 0.66790  0.81800  0.17040  Biso   1.000  H
  H27      1.0000 0.83210  0.31800  0.32960  Biso   1.000  H
  H28      1.0000 0.33210  0.81800  0.32960  Biso   1.000  H
  H29      1.0000 0.83210  0.68200  0.82960  Biso   1.000  H
  H30      1.0000 0.33210  0.18200  0.82960  Biso   1.000  H
  H31      1.0000 0.16790  0.68200  0.67040  Biso   1.000  H
  H32      1.0000 0.66790  0.18200  0.67040  Biso   1.000  H
  H33      1.0000 0.14590  0.35600  0.20570  Biso   1.000  H
  H34      1.0000 0.64590  0.85600  0.20570  Biso   1.000  H
  H35      1.0000 0.85410  0.35600  0.29430  Biso   1.000  H
  H36      1.0000 0.35410  0.85600  0.29430  Biso   1.000  H
  H37      1.0000 0.85410  0.64400  0.79430  Biso   1.000  H
  H38      1.0000 0.35410  0.14400  0.79430  Biso   1.000  H
  H39      1.0000 0.14590  0.64400  0.70570  Biso   1.000  H
  H40      1.0000 0.64590  0.14400  0.70570  Biso   1.000  H
  C97      1.0000 0.07658  0.15970  0.17512  Biso   1.000  C
  C98      1.0000 0.57658  0.65970  0.17512  Biso   1.000  C
  C99      1.0000 0.92342  0.15970  0.32488  Biso   1.000  C
  C100     1.0000 0.42342  0.65970  0.32488  Biso   1.000  C
  C101     1.0000 0.92342  0.84030  0.82488  Biso   1.000  C
  C102     1.0000 0.42342  0.34030  0.82488  Biso   1.000  C
  C103     1.0000 0.07658  0.84030  0.67512  Biso   1.000  C
  C104     1.0000 0.57658  0.34030  0.67512  Biso   1.000  C
  H41      1.0000 0.04770  0.22500  0.14410  Biso   1.000  H
  H42      1.0000 0.54770  0.72500  0.14410  Biso   1.000  H
  H43      1.0000 0.95230  0.22500  0.35590  Biso   1.000  H
  H44      1.0000 0.45230  0.72500  0.35590  Biso   1.000  H
  H45      1.0000 0.95230  0.77500  0.85590  Biso   1.000  H
  H46      1.0000 0.45230  0.27500  0.85590  Biso   1.000  H
  H47      1.0000 0.04770  0.77500  0.64410  Biso   1.000  H
  H48      1.0000 0.54770  0.27500  0.64410  Biso   1.000  H
  H49      1.0000 0.08530  0.19300  0.21590  Biso   1.000  H
  H50      1.0000 0.58530  0.69300  0.21590  Biso   1.000  H
  H51      1.0000 0.91470  0.19300  0.28410  Biso   1.000  H
  H52      1.0000 0.41470  0.69300  0.28410  Biso   1.000  H
  H53      1.0000 0.91470  0.80700  0.78410  Biso   1.000  H
  H54      1.0000 0.41470  0.30700  0.78410  Biso   1.000  H
  H55      1.0000 0.08530  0.80700  0.71590  Biso   1.000  H
  H56      1.0000 0.58530  0.30700  0.71590  Biso   1.000  H
  H57      1.0000 0.06350  0.07400  0.16930  Biso   1.000  H
  H58      1.0000 0.56350  0.57400  0.16930  Biso   1.000  H
  H59      1.0000 0.93650  0.07400  0.33070  Biso   1.000  H
  H60      1.0000 0.43650  0.57400  0.33070  Biso   1.000  H
  H61      1.0000 0.93650  0.92600  0.83070  Biso   1.000  H
  H62      1.0000 0.43650  0.42600  0.83070  Biso   1.000  H
  H63      1.0000 0.06350  0.92600  0.66930  Biso   1.000  H
  H64      1.0000 0.56350  0.42600  0.66930  Biso   1.000  H
  C105     1.0000 0.17228  0.06540  0.22076  Biso   1.000  C
  C106     1.0000 0.67228  0.56540  0.22076  Biso   1.000  C
  C107     1.0000 0.82772  0.06540  0.27924  Biso   1.000  C
  C108     1.0000 0.32772  0.56540  0.27924  Biso   1.000  C
  C109     1.0000 0.82772  0.93460  0.77924  Biso   1.000  C
  C110     1.0000 0.32772  0.43460  0.77924  Biso   1.000  C
  C111     1.0000 0.17228  0.93460  0.72076  Biso   1.000  C
  C112     1.0000 0.67228  0.43460  0.72076  Biso   1.000  C
  C113     1.0000 0.15416  0.92870  0.23487  Biso   1.000  C
  C114     1.0000 0.65416  0.42870  0.23487  Biso   1.000  C
  C115     1.0000 0.84584  0.92870  0.26513  Biso   1.000  C
  C116     1.0000 0.34584  0.42870  0.26513  Biso   1.000  C
  C117     1.0000 0.84584  0.07130  0.76513  Biso   1.000  C
  C118     1.0000 0.34584  0.57130  0.76513  Biso   1.000  C
  C119     1.0000 0.15416  0.07130  0.73487  Biso   1.000  C
  C120     1.0000 0.65416  0.57130  0.73487  Biso   1.000  C
  H65      1.0000 0.18300  0.86160  0.25370  Biso   1.000  H
  H66      1.0000 0.68300  0.36160  0.25370  Biso   1.000  H
  H67      1.0000 0.81700  0.86160  0.24630  Biso   1.000  H
  H68      1.0000 0.31700  0.36160  0.24630  Biso   1.000  H
  H69      1.0000 0.81700  0.13840  0.74630  Biso   1.000  H
  H70      1.0000 0.31700  0.63840  0.74630  Biso   1.000  H
  H71      1.0000 0.18300  0.13840  0.75370  Biso   1.000  H
  H72      1.0000 0.68300  0.63840  0.75370  Biso   1.000  H
  H73      1.0000 0.12430  0.89080  0.19540  Biso   1.000  H
  H74      1.0000 0.62430  0.39080  0.19540  Biso   1.000  H
  H75      1.0000 0.87570  0.89080  0.30460  Biso   1.000  H
  H76      1.0000 0.37570  0.39080  0.30460  Biso   1.000  H
  H77      1.0000 0.87570  0.10920  0.80460  Biso   1.000  H
  H78      1.0000 0.37570  0.60920  0.80460  Biso   1.000  H
  H79      1.0000 0.12430  0.10920  0.69540  Biso   1.000  H
  H80      1.0000 0.62430  0.60920  0.69540  Biso   1.000  H
  H81      1.0000 0.14380  0.94710  0.26430  Biso   1.000  H
  H82      1.0000 0.64380  0.44710  0.26430  Biso   1.000  H
  H83      1.0000 0.85620  0.94710  0.23570  Biso   1.000  H
  H84      1.0000 0.35620  0.44710  0.23570  Biso   1.000  H
  H85      1.0000 0.85620  0.05290  0.73570  Biso   1.000  H
  H86      1.0000 0.35620  0.55290  0.73570  Biso   1.000  H
  H87      1.0000 0.14380  0.05290  0.76430  Biso   1.000  H
  H88      1.0000 0.64380  0.55290  0.76430  Biso   1.000  H
  C121     1.0000 0.21599  0.13540  0.28292  Biso   1.000  C
  C122     1.0000 0.71599  0.63540  0.28292  Biso   1.000  C
  C123     1.0000 0.78401  0.13540  0.21708  Biso   1.000  C
  C124     1.0000 0.28401  0.63540  0.21708  Biso   1.000  C
  C125     1.0000 0.78401  0.86460  0.71708  Biso   1.000  C
  C126     1.0000 0.28401  0.36460  0.71708  Biso   1.000  C
  C127     1.0000 0.21599  0.86460  0.78292  Biso   1.000  C
  C128     1.0000 0.71599  0.36460  0.78292  Biso   1.000  C
  H89      1.0000 0.24220  0.06600  0.31050  Biso   1.000  H
  H90      1.0000 0.74220  0.56600  0.31050  Biso   1.000  H
  H91      1.0000 0.75780  0.06600  0.18950  Biso   1.000  H
  H92      1.0000 0.25780  0.56600  0.18950  Biso   1.000  H
  H93      1.0000 0.75780  0.93400  0.68950  Biso   1.000  H
  H94      1.0000 0.25780  0.43400  0.68950  Biso   1.000  H
  H95      1.0000 0.24220  0.93400  0.81050  Biso   1.000  H
  H96      1.0000 0.74220  0.43400  0.81050  Biso   1.000  H
  H97      1.0000 0.20070  0.17630  0.30440  Biso   1.000  H
  H98      1.0000 0.70070  0.67630  0.30440  Biso   1.000  H
  H99      1.0000 0.79930  0.17630  0.19560  Biso   1.000  H
  H100     1.0000 0.29930  0.67630  0.19560  Biso   1.000  H
  H101     1.0000 0.79930  0.82370  0.69560  Biso   1.000  H
  H102     1.0000 0.29930  0.32370  0.69560  Biso   1.000  H
  H103     1.0000 0.20070  0.82370  0.80440  Biso   1.000  H
  H104     1.0000 0.70070  0.32370  0.80440  Biso   1.000  H
  H105     1.0000 0.23270  0.20810  0.27320  Biso   1.000  H
  H106     1.0000 0.73270  0.70810  0.27320  Biso   1.000  H
  H107     1.0000 0.76730  0.20810  0.22680  Biso   1.000  H
  H108     1.0000 0.26730  0.70810  0.22680  Biso   1.000  H
  H109     1.0000 0.76730  0.79190  0.72680  Biso   1.000  H
  H110     1.0000 0.26730  0.29190  0.72680  Biso   1.000  H
  H111     1.0000 0.23270  0.79190  0.77320  Biso   1.000  H
  H112     1.0000 0.73270  0.29190  0.77320  Biso   1.000  H
  N9       1.0000 0.19329  0.02460  0.18087  Biso   1.000  N
  N10      1.0000 0.69329  0.52460  0.18087  Biso   1.000  N
  N11      1.0000 0.80671  0.02460  0.31913  Biso   1.000  N
  N12      1.0000 0.30671  0.52460  0.31913  Biso   1.000  N
  N13      1.0000 0.80671  0.97540  0.81913  Biso   1.000  N
  N14      1.0000 0.30671  0.47540  0.81913  Biso   1.000  N
  N15      1.0000 0.19329  0.97540  0.68087  Biso   1.000  N
  N16      1.0000 0.69329  0.47540  0.68087  Biso   1.000  N
  O41      1.0000 0.23901  0.96970  0.20514  Biso   1.000  O
  O42      1.0000 0.73901  0.46970  0.20514  Biso   1.000  O
  O43      1.0000 0.76099  0.96970  0.29486  Biso   1.000  O
  O44      1.0000 0.26099  0.46970  0.29486  Biso   1.000  O
  O45      1.0000 0.76099  0.03030  0.79486  Biso   1.000  O
  O46      1.0000 0.26099  0.53030  0.79486  Biso   1.000  O
  O47      1.0000 0.23901  0.03030  0.70514  Biso   1.000  O
  O48      1.0000 0.73901  0.53030  0.70514  Biso   1.000  O
  C129     1.0000 0.15541  0.03610  0.11719  Biso   1.000  C
  C130     1.0000 0.65541  0.53610  0.11719  Biso   1.000  C
  C131     1.0000 0.84459  0.03610  0.38281  Biso   1.000  C
  C132     1.0000 0.34459  0.53610  0.38281  Biso   1.000  C
  C133     1.0000 0.84459  0.96390  0.88281  Biso   1.000  C
  C134     1.0000 0.34459  0.46390  0.88281  Biso   1.000  C
  C135     1.0000 0.15541  0.96390  0.61719  Biso   1.000  C
  C136     1.0000 0.65541  0.46390  0.61719  Biso   1.000  C
  C137     1.0000 0.16067  0.98880  0.06648  Biso   1.000  C
  C138     1.0000 0.66067  0.48880  0.06648  Biso   1.000  C
  C139     1.0000 0.83933  0.98880  0.43352  Biso   1.000  C
  C140     1.0000 0.33933  0.48880  0.43352  Biso   1.000  C
  C141     1.0000 0.83933  0.01120  0.93352  Biso   1.000  C
  C142     1.0000 0.33933  0.51120  0.93352  Biso   1.000  C
  C143     1.0000 0.16067  0.01120  0.56648  Biso   1.000  C
  C144     1.0000 0.66067  0.51120  0.56648  Biso   1.000  C
  C145     1.0000 0.20118  0.90640  0.07085  Biso   1.000  C
  C146     1.0000 0.70118  0.40640  0.07085  Biso   1.000  C
  C147     1.0000 0.79882  0.90640  0.42915  Biso   1.000  C
  C148     1.0000 0.29882  0.40640  0.42915  Biso   1.000  C
  C149     1.0000 0.79882  0.09360  0.92915  Biso   1.000  C
  C150     1.0000 0.29882  0.59360  0.92915  Biso   1.000  C
  C151     1.0000 0.20118  0.09360  0.57085  Biso   1.000  C
  C152     1.0000 0.70118  0.59360  0.57085  Biso   1.000  C
  H113     1.0000 0.23020  0.87070  0.10930  Biso   1.000  H
  H114     1.0000 0.73020  0.37070  0.10930  Biso   1.000  H
  H115     1.0000 0.76980  0.87070  0.39070  Biso   1.000  H
  H116     1.0000 0.26980  0.37070  0.39070  Biso   1.000  H
  H117     1.0000 0.76980  0.12930  0.89070  Biso   1.000  H
  H118     1.0000 0.26980  0.62930  0.89070  Biso   1.000  H
  H119     1.0000 0.23020  0.12930  0.60930  Biso   1.000  H
  H120     1.0000 0.73020  0.62930  0.60930  Biso   1.000  H
  N17      1.0000 0.19328  0.88544  0.01369  Biso   1.000  N
  N18      1.0000 0.69328  0.38544  0.01369  Biso   1.000  N
  N19      1.0000 0.80672  0.88544  0.48631  Biso   1.000  N
  N20      1.0000 0.30672  0.38544  0.48631  Biso   1.000  N
  N21      1.0000 0.80672  0.11456  0.98631  Biso   1.000  N
  N22      1.0000 0.30672  0.61456  0.98631  Biso   1.000  N
  N23      1.0000 0.19328  0.11456  0.51369  Biso   1.000  N
  N24      1.0000 0.69328  0.61456  0.51369  Biso   1.000  N
  N25      1.0000 0.14703  0.95640  0.97150  Biso   1.000  N
  N26      1.0000 0.64703  0.45640  0.97150  Biso   1.000  N
  N27      1.0000 0.85297  0.95640  0.52850  Biso   1.000  N
  N28      1.0000 0.35297  0.45640  0.52850  Biso   1.000  N
  N29      1.0000 0.85297  0.04360  0.02850  Biso   1.000  N
  N30      1.0000 0.35297  0.54360  0.02850  Biso   1.000  N
  N31      1.0000 0.14703  0.04360  0.47150  Biso   1.000  N
  N32      1.0000 0.64703  0.54360  0.47150  Biso   1.000  N
  C153     1.0000 0.12554  0.96330  0.90233  Biso   1.000  C
  C154     1.0000 0.62554  0.46330  0.90233  Biso   1.000  C
  C155     1.0000 0.87446  0.96330  0.59767  Biso   1.000  C
  C156     1.0000 0.37446  0.46330  0.59767  Biso   1.000  C
  C157     1.0000 0.87446  0.03670  0.09767  Biso   1.000  C
  C158     1.0000 0.37446  0.53670  0.09767  Biso   1.000  C
  C159     1.0000 0.12554  0.03670  0.40233  Biso   1.000  C
  C160     1.0000 0.62554  0.53670  0.40233  Biso   1.000  C
  H121     1.0000 0.14770  0.92200  0.89660  Biso   1.000  H
  H122     1.0000 0.64770  0.42200  0.89660  Biso   1.000  H
  H123     1.0000 0.85230  0.92200  0.60340  Biso   1.000  H
  H124     1.0000 0.35230  0.42200  0.60340  Biso   1.000  H
  H125     1.0000 0.85230  0.07800  0.10340  Biso   1.000  H
  H126     1.0000 0.35230  0.57800  0.10340  Biso   1.000  H
  H127     1.0000 0.14770  0.07800  0.39660  Biso   1.000  H
  H128     1.0000 0.64770  0.57800  0.39660  Biso   1.000  H
  H129     1.0000 0.10810  0.05800  0.87490  Biso   1.000  H
  H130     1.0000 0.60810  0.55800  0.87490  Biso   1.000  H
  H131     1.0000 0.89190  0.05800  0.62510  Biso   1.000  H
  H132     1.0000 0.39190  0.55800  0.62510  Biso   1.000  H
  H133     1.0000 0.89190  0.94200  0.12510  Biso   1.000  H
  H134     1.0000 0.39190  0.44200  0.12510  Biso   1.000  H
  H135     1.0000 0.10810  0.94200  0.37490  Biso   1.000  H
  H136     1.0000 0.60810  0.44200  0.37490  Biso   1.000  H
  C161     1.0000 0.07241  0.89840  0.86231  Biso   1.000  C
  C162     1.0000 0.57241  0.39840  0.86231  Biso   1.000  C
  C163     1.0000 0.92759  0.89840  0.63769  Biso   1.000  C
  C164     1.0000 0.42759  0.39840  0.63769  Biso   1.000  C
  C165     1.0000 0.92759  0.10160  0.13769  Biso   1.000  C
  C166     1.0000 0.42759  0.60160  0.13769  Biso   1.000  C
  C167     1.0000 0.07241  0.10160  0.36231  Biso   1.000  C
  C168     1.0000 0.57241  0.60160  0.36231  Biso   1.000  C
  H137     1.0000 0.06010  0.90520  0.81770  Biso   1.000  H
  H138     1.0000 0.56010  0.40520  0.81770  Biso   1.000  H
  H139     1.0000 0.93990  0.90520  0.68230  Biso   1.000  H
  H140     1.0000 0.43990  0.40520  0.68230  Biso   1.000  H
  H141     1.0000 0.93990  0.09480  0.18230  Biso   1.000  H
  H142     1.0000 0.43990  0.59480  0.18230  Biso   1.000  H
  H143     1.0000 0.06010  0.09480  0.31770  Biso   1.000  H
  H144     1.0000 0.56010  0.59480  0.31770  Biso   1.000  H
  H145     1.0000 0.04790  0.94690  0.86920  Biso   1.000  H
  H146     1.0000 0.54790  0.44690  0.86920  Biso   1.000  H
  H147     1.0000 0.95210  0.94690  0.63080  Biso   1.000  H
  H148     1.0000 0.45210  0.44690  0.63080  Biso   1.000  H
  H149     1.0000 0.95210  0.05310  0.13080  Biso   1.000  H
  H150     1.0000 0.45210  0.55310  0.13080  Biso   1.000  H
  H151     1.0000 0.04790  0.05310  0.36920  Biso   1.000  H
  H152     1.0000 0.54790  0.55310  0.36920  Biso   1.000  H
  H153     1.0000 0.07450  0.80070  0.87400  Biso   1.000  H
  H154     1.0000 0.57450  0.30070  0.87400  Biso   1.000  H
  H155     1.0000 0.92550  0.80070  0.62600  Biso   1.000  H
  H156     1.0000 0.42550  0.30070  0.62600  Biso   1.000  H
  H157     1.0000 0.92550  0.19930  0.12600  Biso   1.000  H
  H158     1.0000 0.42550  0.69930  0.12600  Biso   1.000  H
  H159     1.0000 0.07450  0.19930  0.37400  Biso   1.000  H
  H160     1.0000 0.57450  0.69930  0.37400  Biso   1.000  H
  C169     1.0000 0.12666  0.01830  0.00119  Biso   1.000  C
  C170     1.0000 0.62666  0.51830  0.00119  Biso   1.000  C
  C171     1.0000 0.87334  0.01830  0.49881  Biso   1.000  C
  C172     1.0000 0.37334  0.51830  0.49881  Biso   1.000  C
  C173     1.0000 0.87334  0.98170  0.99881  Biso   1.000  C
  C174     1.0000 0.37334  0.48170  0.99881  Biso   1.000  C
  C175     1.0000 0.12666  0.98170  0.50119  Biso   1.000  C
  C176     1.0000 0.62666  0.48170  0.50119  Biso   1.000  C
  H161     1.0000 0.09570  0.07700  0.97650  Biso   1.000  H
  H162     1.0000 0.59570  0.57700  0.97650  Biso   1.000  H
  H163     1.0000 0.90430  0.07700  0.52350  Biso   1.000  H
  H164     1.0000 0.40430  0.57700  0.52350  Biso   1.000  H
  H165     1.0000 0.90430  0.92300  0.02350  Biso   1.000  H
  H166     1.0000 0.40430  0.42300  0.02350  Biso   1.000  H
  H167     1.0000 0.09570  0.92300  0.47650  Biso   1.000  H
  H168     1.0000 0.59570  0.42300  0.47650  Biso   1.000  H
