data_image0
_cell_length_a       29.489
_cell_length_b       9.495
_cell_length_c       24.382
_cell_angle_alpha    90
_cell_angle_beta     121.28
_cell_angle_gamma    90

_symmetry_space_group_name_H-M    "P 1"
_symmetry_int_tables_number       1

loop_
  _symmetry_equiv_pos_as_xyz
  'x, y, z'

loop_
  _atom_site_label
  _atom_site_occupancy
  _atom_site_fract_x
  _atom_site_fract_y
  _atom_site_fract_z
  _atom_site_thermal_displace_type
  _atom_site_B_iso_or_equiv
  _atom_site_type_symbol
  Cu1      1.0000 0.00000  0.00000  0.50000  Biso   1.000  Cu
  Cu2      1.0000 0.50000  0.50000  0.50000  Biso   1.000  Cu
  Cu3      1.0000 0.00000  0.00000  0.00000  Biso   1.000  Cu
  Cu4      1.0000 0.50000  0.50000  0.00000  Biso   1.000  Cu
  O1       1.0000 0.00099  0.09150  0.42640  Biso   1.000  O
  O2       1.0000 0.50099  0.59150  0.42640  Biso   1.000  O
  O3       1.0000 0.00099  0.90850  0.92640  Biso   1.000  O
  O4       1.0000 0.50099  0.40850  0.92640  Biso   1.000  O
  O5       1.0000 0.99901  0.90850  0.57360  Biso   1.000  O
  O6       1.0000 0.49901  0.40850  0.57360  Biso   1.000  O
  O7       1.0000 0.99901  0.09150  0.07360  Biso   1.000  O
  O8       1.0000 0.49901  0.59150  0.07360  Biso   1.000  O
  C1       1.0000 0.00100  0.26440  0.35900  Biso   1.000  C
  C2       1.0000 0.50100  0.76440  0.35900  Biso   1.000  C
  C3       1.0000 0.00100  0.73560  0.85900  Biso   1.000  C
  C4       1.0000 0.50100  0.23560  0.85900  Biso   1.000  C
  C5       1.0000 0.99900  0.73560  0.64100  Biso   1.000  C
  C6       1.0000 0.49900  0.23560  0.64100  Biso   1.000  C
  C7       1.0000 0.99900  0.26440  0.14100  Biso   1.000  C
  C8       1.0000 0.49900  0.76440  0.14100  Biso   1.000  C
  F1       1.0000 0.98150  0.38630  0.33380  Biso   1.000  F
  F2       1.0000 0.48150  0.88630  0.33380  Biso   1.000  F
  F3       1.0000 0.98150  0.61370  0.83380  Biso   1.000  F
  F4       1.0000 0.48150  0.11370  0.83380  Biso   1.000  F
  F5       1.0000 0.01850  0.61370  0.66620  Biso   1.000  F
  F6       1.0000 0.51850  0.11370  0.66620  Biso   1.000  F
  F7       1.0000 0.01850  0.38630  0.16620  Biso   1.000  F
  F8       1.0000 0.51850  0.88630  0.16620  Biso   1.000  F
  F9       1.0000 0.98380  0.17370  0.31070  Biso   1.000  F
  F10      1.0000 0.48380  0.67370  0.31070  Biso   1.000  F
  F11      1.0000 0.98380  0.82630  0.81070  Biso   1.000  F
  F12      1.0000 0.48380  0.32630  0.81070  Biso   1.000  F
  F13      1.0000 0.01620  0.82630  0.68930  Biso   1.000  F
  F14      1.0000 0.51620  0.32630  0.68930  Biso   1.000  F
  F15      1.0000 0.01620  0.17370  0.18930  Biso   1.000  F
  F16      1.0000 0.51620  0.67370  0.18930  Biso   1.000  F
  F17      1.0000 0.05300  0.27230  0.38640  Biso   1.000  F
  F18      1.0000 0.55300  0.77230  0.38640  Biso   1.000  F
  F19      1.0000 0.05300  0.72770  0.88640  Biso   1.000  F
  F20      1.0000 0.55300  0.22770  0.88640  Biso   1.000  F
  F21      1.0000 0.94700  0.72770  0.61360  Biso   1.000  F
  F22      1.0000 0.44700  0.22770  0.61360  Biso   1.000  F
  F23      1.0000 0.94700  0.27230  0.11360  Biso   1.000  F
  F24      1.0000 0.44700  0.77230  0.11360  Biso   1.000  F
  C9       1.0000 0.98712  0.21470  0.40830  Biso   1.000  C
  C10      1.0000 0.48712  0.71470  0.40830  Biso   1.000  C
  C11      1.0000 0.98712  0.78530  0.90830  Biso   1.000  C
  C12      1.0000 0.48712  0.28530  0.90830  Biso   1.000  C
  C13      1.0000 0.01288  0.78530  0.59170  Biso   1.000  C
  C14      1.0000 0.51288  0.28530  0.59170  Biso   1.000  C
  C15      1.0000 0.01288  0.21470  0.09170  Biso   1.000  C
  C16      1.0000 0.51288  0.71470  0.09170  Biso   1.000  C
  C17      1.0000 0.96200  0.30790  0.42780  Biso   1.000  C
  C18      1.0000 0.46200  0.80790  0.42780  Biso   1.000  C
  C19      1.0000 0.96200  0.69210  0.92780  Biso   1.000  C
  C20      1.0000 0.46200  0.19210  0.92780  Biso   1.000  C
  C21      1.0000 0.03800  0.69210  0.57220  Biso   1.000  C
  C22      1.0000 0.53800  0.19210  0.57220  Biso   1.000  C
  C23      1.0000 0.03800  0.30790  0.07220  Biso   1.000  C
  C24      1.0000 0.53800  0.80790  0.07220  Biso   1.000  C
  H1       1.0000 0.95200  0.38800  0.41300  Biso   1.000  H
  H2       1.0000 0.45200  0.88800  0.41300  Biso   1.000  H
  H3       1.0000 0.95200  0.61200  0.91300  Biso   1.000  H
  H4       1.0000 0.45200  0.11200  0.91300  Biso   1.000  H
  H5       1.0000 0.04800  0.61200  0.58700  Biso   1.000  H
  H6       1.0000 0.54800  0.11200  0.58700  Biso   1.000  H
  H7       1.0000 0.04800  0.38800  0.08700  Biso   1.000  H
  H8       1.0000 0.54800  0.88800  0.08700  Biso   1.000  H
  C25      1.0000 0.95170  0.27220  0.47590  Biso   1.000  C
  C26      1.0000 0.45170  0.77220  0.47590  Biso   1.000  C
  C27      1.0000 0.95170  0.72780  0.97590  Biso   1.000  C
  C28      1.0000 0.45170  0.22780  0.97590  Biso   1.000  C
  C29      1.0000 0.04830  0.72780  0.52410  Biso   1.000  C
  C30      1.0000 0.54830  0.22780  0.52410  Biso   1.000  C
  C31      1.0000 0.04830  0.27220  0.02410  Biso   1.000  C
  C32      1.0000 0.54830  0.77220  0.02410  Biso   1.000  C
  C33      1.0000 0.92560  0.38340  0.49640  Biso   1.000  C
  C34      1.0000 0.42560  0.88340  0.49640  Biso   1.000  C
  C35      1.0000 0.92560  0.61660  0.99640  Biso   1.000  C
  C36      1.0000 0.42560  0.11660  0.99640  Biso   1.000  C
  C37      1.0000 0.07440  0.61660  0.50360  Biso   1.000  C
  C38      1.0000 0.57440  0.11660  0.50360  Biso   1.000  C
  C39      1.0000 0.07440  0.38340  0.00360  Biso   1.000  C
  C40      1.0000 0.57440  0.88340  0.00360  Biso   1.000  C
  F25      1.0000 0.92654  0.51070  0.47790  Biso   1.000  F
  F26      1.0000 0.42654  0.01070  0.47790  Biso   1.000  F
  F27      1.0000 0.92654  0.48930  0.97790  Biso   1.000  F
  F28      1.0000 0.42654  0.98930  0.97790  Biso   1.000  F
  F29      1.0000 0.07346  0.48930  0.52210  Biso   1.000  F
  F30      1.0000 0.57346  0.98930  0.52210  Biso   1.000  F
  F31      1.0000 0.07346  0.51070  0.02210  Biso   1.000  F
  F32      1.0000 0.57346  0.01070  0.02210  Biso   1.000  F
  F33      1.0000 0.95860  0.40230  0.56360  Biso   1.000  F
  F34      1.0000 0.45860  0.90230  0.56360  Biso   1.000  F
  F35      1.0000 0.95860  0.59770  0.06360  Biso   1.000  F
  F36      1.0000 0.45860  0.09770  0.06360  Biso   1.000  F
  F37      1.0000 0.04140  0.59770  0.43640  Biso   1.000  F
  F38      1.0000 0.54140  0.09770  0.43640  Biso   1.000  F
  F39      1.0000 0.04140  0.40230  0.93640  Biso   1.000  F
  F40      1.0000 0.54140  0.90230  0.93640  Biso   1.000  F
  F41      1.0000 0.88570  0.34720  0.49370  Biso   1.000  F
  F42      1.0000 0.38570  0.84720  0.49370  Biso   1.000  F
  F43      1.0000 0.88570  0.65280  0.99370  Biso   1.000  F
  F44      1.0000 0.38570  0.15280  0.99370  Biso   1.000  F
  F45      1.0000 0.11430  0.65280  0.50630  Biso   1.000  F
  F46      1.0000 0.61430  0.15280  0.50630  Biso   1.000  F
  F47      1.0000 0.11430  0.34720  0.00630  Biso   1.000  F
  F48      1.0000 0.61430  0.84720  0.00630  Biso   1.000  F
  O9       1.0000 0.96081  0.16070  0.50546  Biso   1.000  O
  O10      1.0000 0.46081  0.66070  0.50546  Biso   1.000  O
  O11      1.0000 0.96081  0.83930  0.00546  Biso   1.000  O
  O12      1.0000 0.46081  0.33930  0.00546  Biso   1.000  O
  O13      1.0000 0.03919  0.83930  0.49454  Biso   1.000  O
  O14      1.0000 0.53919  0.33930  0.49454  Biso   1.000  O
  O15      1.0000 0.03919  0.16070  0.99454  Biso   1.000  O
  O16      1.0000 0.53919  0.66070  0.99454  Biso   1.000  O
  Cu5      1.0000 0.75000  0.25000  0.50000  Biso   1.000  Cu
  Cu6      1.0000 0.25000  0.75000  0.50000  Biso   1.000  Cu
  Cu7      1.0000 0.75000  0.75000  0.00000  Biso   1.000  Cu
  Cu8      1.0000 0.25000  0.25000  0.00000  Biso   1.000  Cu
  O17      1.0000 0.76089  0.41580  0.45945  Biso   1.000  O
  O18      1.0000 0.26089  0.91580  0.45945  Biso   1.000  O
  O19      1.0000 0.76089  0.58420  0.95945  Biso   1.000  O
  O20      1.0000 0.26089  0.08420  0.95945  Biso   1.000  O
  O21      1.0000 0.23911  0.58420  0.54055  Biso   1.000  O
  O22      1.0000 0.73911  0.08420  0.54055  Biso   1.000  O
  O23      1.0000 0.23911  0.41580  0.04055  Biso   1.000  O
  O24      1.0000 0.73911  0.91580  0.04055  Biso   1.000  O
  C41      1.0000 0.77560  0.64650  0.44080  Biso   1.000  C
  C42      1.0000 0.27560  0.14650  0.44080  Biso   1.000  C
  C43      1.0000 0.77560  0.35350  0.94080  Biso   1.000  C
  C44      1.0000 0.27560  0.85350  0.94080  Biso   1.000  C
  C45      1.0000 0.22440  0.35350  0.55920  Biso   1.000  C
  C46      1.0000 0.72440  0.85350  0.55920  Biso   1.000  C
  C47      1.0000 0.22440  0.64650  0.05920  Biso   1.000  C
  C48      1.0000 0.72440  0.14650  0.05920  Biso   1.000  C
  F49      1.0000 0.78667  0.77290  0.46826  Biso   1.000  F
  F50      1.0000 0.28667  0.27290  0.46826  Biso   1.000  F
  F51      1.0000 0.78667  0.22710  0.96826  Biso   1.000  F
  F52      1.0000 0.28667  0.72710  0.96826  Biso   1.000  F
  F53      1.0000 0.21333  0.22710  0.53174  Biso   1.000  F
  F54      1.0000 0.71333  0.72710  0.53174  Biso   1.000  F
  F55      1.0000 0.21333  0.77290  0.03174  Biso   1.000  F
  F56      1.0000 0.71333  0.27290  0.03174  Biso   1.000  F
  F57      1.0000 0.80130  0.62760  0.41150  Biso   1.000  F
  F58      1.0000 0.30130  0.12760  0.41150  Biso   1.000  F
  F59      1.0000 0.80130  0.37240  0.91150  Biso   1.000  F
  F60      1.0000 0.30130  0.87240  0.91150  Biso   1.000  F
  F61      1.0000 0.19870  0.37240  0.58850  Biso   1.000  F
  F62      1.0000 0.69870  0.87240  0.58850  Biso   1.000  F
  F63      1.0000 0.19870  0.62760  0.08850  Biso   1.000  F
  F64      1.0000 0.69870  0.12760  0.08850  Biso   1.000  F
  F65      1.0000 0.72503  0.65490  0.39528  Biso   1.000  F
  F66      1.0000 0.22503  0.15490  0.39528  Biso   1.000  F
  F67      1.0000 0.72503  0.34510  0.89528  Biso   1.000  F
  F68      1.0000 0.22503  0.84510  0.89528  Biso   1.000  F
  F69      1.0000 0.27497  0.34510  0.60472  Biso   1.000  F
  F70      1.0000 0.77497  0.84510  0.60472  Biso   1.000  F
  F71      1.0000 0.27497  0.65490  0.10472  Biso   1.000  F
  F72      1.0000 0.77497  0.15490  0.10472  Biso   1.000  F
  C49      1.0000 0.78539  0.52650  0.48700  Biso   1.000  C
  C50      1.0000 0.28539  0.02650  0.48700  Biso   1.000  C
  C51      1.0000 0.78539  0.47350  0.98700  Biso   1.000  C
  C52      1.0000 0.28539  0.97350  0.98700  Biso   1.000  C
  C53      1.0000 0.21461  0.47350  0.51300  Biso   1.000  C
  C54      1.0000 0.71461  0.97350  0.51300  Biso   1.000  C
  C55      1.0000 0.21461  0.52650  0.01300  Biso   1.000  C
  C56      1.0000 0.71461  0.02650  0.01300  Biso   1.000  C
  C57      1.0000 0.81890  0.55230  0.55190  Biso   1.000  C
  C58      1.0000 0.31890  0.05230  0.55190  Biso   1.000  C
  C59      1.0000 0.81890  0.44770  0.05190  Biso   1.000  C
  C60      1.0000 0.31890  0.94770  0.05190  Biso   1.000  C
  C61      1.0000 0.18110  0.44770  0.44810  Biso   1.000  C
  C62      1.0000 0.68110  0.94770  0.44810  Biso   1.000  C
  C63      1.0000 0.18110  0.55230  0.94810  Biso   1.000  C
  C64      1.0000 0.68110  0.05230  0.94810  Biso   1.000  C
  H9       1.0000 0.82760  0.63200  0.55900  Biso   1.000  H
  H10      1.0000 0.32760  0.13200  0.55900  Biso   1.000  H
  H11      1.0000 0.82760  0.36800  0.05900  Biso   1.000  H
  H12      1.0000 0.32760  0.86800  0.05900  Biso   1.000  H
  H13      1.0000 0.17240  0.36800  0.44100  Biso   1.000  H
  H14      1.0000 0.67240  0.86800  0.44100  Biso   1.000  H
  H15      1.0000 0.17240  0.63200  0.94100  Biso   1.000  H
  H16      1.0000 0.67240  0.13200  0.94100  Biso   1.000  H
  C65      1.0000 0.83060  0.45740  0.60020  Biso   1.000  C
  C66      1.0000 0.33060  0.95740  0.60020  Biso   1.000  C
  C67      1.0000 0.83060  0.54260  0.10020  Biso   1.000  C
  C68      1.0000 0.33060  0.04260  0.10020  Biso   1.000  C
  C69      1.0000 0.16940  0.54260  0.39980  Biso   1.000  C
  C70      1.0000 0.66940  0.04260  0.39980  Biso   1.000  C
  C71      1.0000 0.16940  0.45740  0.89980  Biso   1.000  C
  C72      1.0000 0.66940  0.95740  0.89980  Biso   1.000  C
  C73      1.0000 0.86780  0.51120  0.66950  Biso   1.000  C
  C74      1.0000 0.36780  0.01120  0.66950  Biso   1.000  C
  C75      1.0000 0.86780  0.48880  0.16950  Biso   1.000  C
  C76      1.0000 0.36780  0.98880  0.16950  Biso   1.000  C
  C77      1.0000 0.13220  0.48880  0.33050  Biso   1.000  C
  C78      1.0000 0.63220  0.98880  0.33050  Biso   1.000  C
  C79      1.0000 0.13220  0.51120  0.83050  Biso   1.000  C
  C80      1.0000 0.63220  0.01120  0.83050  Biso   1.000  C
  F73      1.0000 0.88580  0.63510  0.67575  Biso   1.000  F
  F74      1.0000 0.38580  0.13510  0.67575  Biso   1.000  F
  F75      1.0000 0.88580  0.36490  0.17575  Biso   1.000  F
  F76      1.0000 0.38580  0.86490  0.17575  Biso   1.000  F
  F77      1.0000 0.11420  0.36490  0.32425  Biso   1.000  F
  F78      1.0000 0.61420  0.86490  0.32425  Biso   1.000  F
  F79      1.0000 0.11420  0.63510  0.82425  Biso   1.000  F
  F80      1.0000 0.61420  0.13510  0.82425  Biso   1.000  F
  F81      1.0000 0.90100  0.42400  0.70540  Biso   1.000  F
  F82      1.0000 0.40100  0.92400  0.70540  Biso   1.000  F
  F83      1.0000 0.90100  0.57600  0.20540  Biso   1.000  F
  F84      1.0000 0.40100  0.07600  0.20540  Biso   1.000  F
  F85      1.0000 0.09900  0.57600  0.29460  Biso   1.000  F
  F86      1.0000 0.59900  0.07600  0.29460  Biso   1.000  F
  F87      1.0000 0.09900  0.42400  0.79460  Biso   1.000  F
  F88      1.0000 0.59900  0.92400  0.79460  Biso   1.000  F
  F89      1.0000 0.83930  0.52660  0.69770  Biso   1.000  F
  F90      1.0000 0.33930  0.02660  0.69770  Biso   1.000  F
  F91      1.0000 0.83930  0.47340  0.19770  Biso   1.000  F
  F92      1.0000 0.33930  0.97340  0.19770  Biso   1.000  F
  F93      1.0000 0.16070  0.47340  0.30230  Biso   1.000  F
  F94      1.0000 0.66070  0.97340  0.30230  Biso   1.000  F
  F95      1.0000 0.16070  0.52660  0.80230  Biso   1.000  F
  F96      1.0000 0.66070  0.02660  0.80230  Biso   1.000  F
  O25      1.0000 0.81524  0.33500  0.59589  Biso   1.000  O
  O26      1.0000 0.31524  0.83500  0.59589  Biso   1.000  O
  O27      1.0000 0.81524  0.66500  0.09589  Biso   1.000  O
  O28      1.0000 0.31524  0.16500  0.09589  Biso   1.000  O
  O29      1.0000 0.18476  0.66500  0.40411  Biso   1.000  O
  O30      1.0000 0.68476  0.16500  0.40411  Biso   1.000  O
  O31      1.0000 0.18476  0.33500  0.90411  Biso   1.000  O
  O32      1.0000 0.68476  0.83500  0.90411  Biso   1.000  O
  O33      1.0000 0.76394  0.06180  0.29305  Biso   1.000  O
  O34      1.0000 0.26394  0.56180  0.29305  Biso   1.000  O
  O35      1.0000 0.76394  0.93820  0.79305  Biso   1.000  O
  O36      1.0000 0.26394  0.43820  0.79305  Biso   1.000  O
  O37      1.0000 0.23606  0.93820  0.70695  Biso   1.000  O
  O38      1.0000 0.73606  0.43820  0.70695  Biso   1.000  O
  O39      1.0000 0.23606  0.06180  0.20695  Biso   1.000  O
  O40      1.0000 0.73606  0.56180  0.20695  Biso   1.000  O
  N1       1.0000 0.80801  0.99780  0.31691  Biso   1.000  N
  N2       1.0000 0.30801  0.49780  0.31691  Biso   1.000  N
  N3       1.0000 0.80801  0.00220  0.81691  Biso   1.000  N
  N4       1.0000 0.30801  0.50220  0.81691  Biso   1.000  N
  N5       1.0000 0.19199  0.00220  0.68309  Biso   1.000  N
  N6       1.0000 0.69199  0.50220  0.68309  Biso   1.000  N
  N7       1.0000 0.19199  0.99780  0.18309  Biso   1.000  N
  N8       1.0000 0.69199  0.49780  0.18309  Biso   1.000  N
  C81      1.0000 0.83030  0.95040  0.27720  Biso   1.000  C
  C82      1.0000 0.33030  0.45040  0.27720  Biso   1.000  C
  C83      1.0000 0.83030  0.04960  0.77720  Biso   1.000  C
  C84      1.0000 0.33030  0.54960  0.77720  Biso   1.000  C
  C85      1.0000 0.16970  0.04960  0.72280  Biso   1.000  C
  C86      1.0000 0.66970  0.54960  0.72280  Biso   1.000  C
  C87      1.0000 0.16970  0.95040  0.22280  Biso   1.000  C
  C88      1.0000 0.66970  0.45040  0.22280  Biso   1.000  C
  C89      1.0000 0.78690  0.88350  0.21520  Biso   1.000  C
  C90      1.0000 0.28690  0.38350  0.21520  Biso   1.000  C
  C91      1.0000 0.78690  0.11650  0.71520  Biso   1.000  C
  C92      1.0000 0.28690  0.61650  0.71520  Biso   1.000  C
  C93      1.0000 0.21310  0.11650  0.78480  Biso   1.000  C
  C94      1.0000 0.71310  0.61650  0.78480  Biso   1.000  C
  C95      1.0000 0.21310  0.88350  0.28480  Biso   1.000  C
  C96      1.0000 0.71310  0.38350  0.28480  Biso   1.000  C
  H17      1.0000 0.76800  0.80200  0.22300  Biso   1.000  H
  H18      1.0000 0.26800  0.30200  0.22300  Biso   1.000  H
  H19      1.0000 0.76800  0.19800  0.72300  Biso   1.000  H
  H20      1.0000 0.26800  0.69800  0.72300  Biso   1.000  H
  H21      1.0000 0.23200  0.19800  0.77700  Biso   1.000  H
  H22      1.0000 0.73200  0.69800  0.77700  Biso   1.000  H
  H23      1.0000 0.23200  0.80200  0.27700  Biso   1.000  H
  H24      1.0000 0.73200  0.30200  0.27700  Biso   1.000  H
  H25      1.0000 0.76300  0.94600  0.19100  Biso   1.000  H
  H26      1.0000 0.26300  0.44600  0.19100  Biso   1.000  H
  H27      1.0000 0.76300  0.05400  0.69100  Biso   1.000  H
  H28      1.0000 0.26300  0.55400  0.69100  Biso   1.000  H
  H29      1.0000 0.23700  0.05400  0.80900  Biso   1.000  H
  H30      1.0000 0.73700  0.55400  0.80900  Biso   1.000  H
  H31      1.0000 0.23700  0.94600  0.30900  Biso   1.000  H
  H32      1.0000 0.73700  0.44600  0.30900  Biso   1.000  H
  H33      1.0000 0.80500  0.84500  0.19400  Biso   1.000  H
  H34      1.0000 0.30500  0.34500  0.19400  Biso   1.000  H
  H35      1.0000 0.80500  0.15500  0.69400  Biso   1.000  H
  H36      1.0000 0.30500  0.65500  0.69400  Biso   1.000  H
  H37      1.0000 0.19500  0.15500  0.80600  Biso   1.000  H
  H38      1.0000 0.69500  0.65500  0.80600  Biso   1.000  H
  H39      1.0000 0.19500  0.84500  0.30600  Biso   1.000  H
  H40      1.0000 0.69500  0.34500  0.30600  Biso   1.000  H
  C97      1.0000 0.85220  0.08120  0.26300  Biso   1.000  C
  C98      1.0000 0.35220  0.58120  0.26300  Biso   1.000  C
  C99      1.0000 0.85220  0.91880  0.76300  Biso   1.000  C
  C100     1.0000 0.35220  0.41880  0.76300  Biso   1.000  C
  C101     1.0000 0.14780  0.91880  0.73700  Biso   1.000  C
  C102     1.0000 0.64780  0.41880  0.73700  Biso   1.000  C
  C103     1.0000 0.14780  0.08120  0.23700  Biso   1.000  C
  C104     1.0000 0.64780  0.58120  0.23700  Biso   1.000  C
  H41      1.0000 0.82100  0.15700  0.24300  Biso   1.000  H
  H42      1.0000 0.32100  0.65700  0.24300  Biso   1.000  H
  H43      1.0000 0.82100  0.84300  0.74300  Biso   1.000  H
  H44      1.0000 0.32100  0.34300  0.74300  Biso   1.000  H
  H45      1.0000 0.17900  0.84300  0.75700  Biso   1.000  H
  H46      1.0000 0.67900  0.34300  0.75700  Biso   1.000  H
  H47      1.0000 0.17900  0.15700  0.25700  Biso   1.000  H
  H48      1.0000 0.67900  0.65700  0.25700  Biso   1.000  H
  H49      1.0000 0.88200  0.12400  0.30600  Biso   1.000  H
  H50      1.0000 0.38200  0.62400  0.30600  Biso   1.000  H
  H51      1.0000 0.88200  0.87600  0.80600  Biso   1.000  H
  H52      1.0000 0.38200  0.37600  0.80600  Biso   1.000  H
  H53      1.0000 0.11800  0.87600  0.69400  Biso   1.000  H
  H54      1.0000 0.61800  0.37600  0.69400  Biso   1.000  H
  H55      1.0000 0.11800  0.12400  0.19400  Biso   1.000  H
  H56      1.0000 0.61800  0.62400  0.19400  Biso   1.000  H
  H57      1.0000 0.86600  0.04600  0.24000  Biso   1.000  H
  H58      1.0000 0.36600  0.54600  0.24000  Biso   1.000  H
  H59      1.0000 0.86600  0.95400  0.74000  Biso   1.000  H
  H60      1.0000 0.36600  0.45400  0.74000  Biso   1.000  H
  H61      1.0000 0.13400  0.95400  0.76000  Biso   1.000  H
  H62      1.0000 0.63400  0.45400  0.76000  Biso   1.000  H
  H63      1.0000 0.13400  0.04600  0.26000  Biso   1.000  H
  H64      1.0000 0.63400  0.54600  0.26000  Biso   1.000  H
  C105     1.0000 0.87340  0.84590  0.32460  Biso   1.000  C
  C106     1.0000 0.37340  0.34590  0.32460  Biso   1.000  C
  C107     1.0000 0.87340  0.15410  0.82460  Biso   1.000  C
  C108     1.0000 0.37340  0.65410  0.82460  Biso   1.000  C
  C109     1.0000 0.12660  0.15410  0.67540  Biso   1.000  C
  C110     1.0000 0.62660  0.65410  0.67540  Biso   1.000  C
  C111     1.0000 0.12660  0.84590  0.17540  Biso   1.000  C
  C112     1.0000 0.62660  0.34590  0.17540  Biso   1.000  C
  C113     1.0000 0.92440  0.84170  0.32240  Biso   1.000  C
  C114     1.0000 0.42440  0.34170  0.32240  Biso   1.000  C
  C115     1.0000 0.92440  0.15830  0.82240  Biso   1.000  C
  C116     1.0000 0.42440  0.65830  0.82240  Biso   1.000  C
  C117     1.0000 0.07560  0.15830  0.67760  Biso   1.000  C
  C118     1.0000 0.57560  0.65830  0.67760  Biso   1.000  C
  C119     1.0000 0.07560  0.84170  0.17760  Biso   1.000  C
  C120     1.0000 0.57560  0.34170  0.17760  Biso   1.000  C
  H65      1.0000 0.94200  0.93300  0.32900  Biso   1.000  H
  H66      1.0000 0.44200  0.43300  0.32900  Biso   1.000  H
  H67      1.0000 0.94200  0.06700  0.82900  Biso   1.000  H
  H68      1.0000 0.44200  0.56700  0.82900  Biso   1.000  H
  H69      1.0000 0.05800  0.06700  0.67100  Biso   1.000  H
  H70      1.0000 0.55800  0.56700  0.67100  Biso   1.000  H
  H71      1.0000 0.05800  0.93300  0.17100  Biso   1.000  H
  H72      1.0000 0.55800  0.43300  0.17100  Biso   1.000  H
  H73      1.0000 0.95300  0.78700  0.35100  Biso   1.000  H
  H74      1.0000 0.45300  0.28700  0.35100  Biso   1.000  H
  H75      1.0000 0.95300  0.21300  0.85100  Biso   1.000  H
  H76      1.0000 0.45300  0.71300  0.85100  Biso   1.000  H
  H77      1.0000 0.04700  0.21300  0.64900  Biso   1.000  H
  H78      1.0000 0.54700  0.71300  0.64900  Biso   1.000  H
  H79      1.0000 0.04700  0.78700  0.14900  Biso   1.000  H
  H80      1.0000 0.54700  0.28700  0.14900  Biso   1.000  H
  H81      1.0000 0.91500  0.80200  0.28400  Biso   1.000  H
  H82      1.0000 0.41500  0.30200  0.28400  Biso   1.000  H
  H83      1.0000 0.91500  0.19800  0.78400  Biso   1.000  H
  H84      1.0000 0.41500  0.69800  0.78400  Biso   1.000  H
  H85      1.0000 0.08500  0.19800  0.71600  Biso   1.000  H
  H86      1.0000 0.58500  0.69800  0.71600  Biso   1.000  H
  H87      1.0000 0.08500  0.80200  0.21600  Biso   1.000  H
  H88      1.0000 0.58500  0.30200  0.21600  Biso   1.000  H
  C121     1.0000 0.85300  0.69800  0.32250  Biso   1.000  C
  C122     1.0000 0.35300  0.19800  0.32250  Biso   1.000  C
  C123     1.0000 0.85300  0.30200  0.82250  Biso   1.000  C
  C124     1.0000 0.35300  0.80200  0.82250  Biso   1.000  C
  C125     1.0000 0.14700  0.30200  0.67750  Biso   1.000  C
  C126     1.0000 0.64700  0.80200  0.67750  Biso   1.000  C
  C127     1.0000 0.14700  0.69800  0.17750  Biso   1.000  C
  C128     1.0000 0.64700  0.19800  0.17750  Biso   1.000  C
  H89      1.0000 0.81700  0.69300  0.32800  Biso   1.000  H
  H90      1.0000 0.31700  0.19300  0.32800  Biso   1.000  H
  H91      1.0000 0.81700  0.30700  0.82800  Biso   1.000  H
  H92      1.0000 0.31700  0.80700  0.82800  Biso   1.000  H
  H93      1.0000 0.18300  0.30700  0.67200  Biso   1.000  H
  H94      1.0000 0.68300  0.80700  0.67200  Biso   1.000  H
  H95      1.0000 0.18300  0.69300  0.17200  Biso   1.000  H
  H96      1.0000 0.68300  0.19300  0.17200  Biso   1.000  H
  H97      1.0000 0.84700  0.65500  0.28700  Biso   1.000  H
  H98      1.0000 0.34700  0.15500  0.28700  Biso   1.000  H
  H99      1.0000 0.84700  0.34500  0.78700  Biso   1.000  H
  H100     1.0000 0.34700  0.84500  0.78700  Biso   1.000  H
  H101     1.0000 0.15300  0.34500  0.71300  Biso   1.000  H
  H102     1.0000 0.65300  0.84500  0.71300  Biso   1.000  H
  H103     1.0000 0.15300  0.65500  0.21300  Biso   1.000  H
  H104     1.0000 0.65300  0.15500  0.21300  Biso   1.000  H
  H105     1.0000 0.87700  0.65900  0.35300  Biso   1.000  H
  H106     1.0000 0.37700  0.15900  0.35300  Biso   1.000  H
  H107     1.0000 0.87700  0.34100  0.85300  Biso   1.000  H
  H108     1.0000 0.37700  0.84100  0.85300  Biso   1.000  H
  H109     1.0000 0.12300  0.34100  0.64700  Biso   1.000  H
  H110     1.0000 0.62300  0.84100  0.64700  Biso   1.000  H
  H111     1.0000 0.12300  0.65900  0.14700  Biso   1.000  H
  H112     1.0000 0.62300  0.15900  0.14700  Biso   1.000  H
  N9       1.0000 0.88468  0.90800  0.38727  Biso   1.000  N
  N10      1.0000 0.38468  0.40800  0.38727  Biso   1.000  N
  N11      1.0000 0.88468  0.09200  0.88727  Biso   1.000  N
  N12      1.0000 0.38468  0.59200  0.88727  Biso   1.000  N
  N13      1.0000 0.11532  0.09200  0.61273  Biso   1.000  N
  N14      1.0000 0.61532  0.59200  0.61273  Biso   1.000  N
  N15      1.0000 0.11532  0.90800  0.11273  Biso   1.000  N
  N16      1.0000 0.61532  0.40800  0.11273  Biso   1.000  N
  O41      1.0000 0.92556  0.87050  0.44189  Biso   1.000  O
  O42      1.0000 0.42556  0.37050  0.44189  Biso   1.000  O
  O43      1.0000 0.92556  0.12950  0.94189  Biso   1.000  O
  O44      1.0000 0.42556  0.62950  0.94189  Biso   1.000  O
  O45      1.0000 0.07444  0.12950  0.55811  Biso   1.000  O
  O46      1.0000 0.57444  0.62950  0.55811  Biso   1.000  O
  O47      1.0000 0.07444  0.87050  0.05811  Biso   1.000  O
  O48      1.0000 0.57444  0.37050  0.05811  Biso   1.000  O
  C129     1.0000 0.84355  0.98180  0.38060  Biso   1.000  C
  C130     1.0000 0.34355  0.48180  0.38060  Biso   1.000  C
  C131     1.0000 0.84355  0.01820  0.88060  Biso   1.000  C
  C132     1.0000 0.34355  0.51820  0.88060  Biso   1.000  C
  C133     1.0000 0.15645  0.01820  0.61940  Biso   1.000  C
  C134     1.0000 0.65645  0.51820  0.61940  Biso   1.000  C
  C135     1.0000 0.15645  0.98180  0.11940  Biso   1.000  C
  C136     1.0000 0.65645  0.48180  0.11940  Biso   1.000  C
  C137     1.0000 0.83650  0.03120  0.43120  Biso   1.000  C
  C138     1.0000 0.33650  0.53120  0.43120  Biso   1.000  C
  C139     1.0000 0.83650  0.96880  0.93120  Biso   1.000  C
  C140     1.0000 0.33650  0.46880  0.93120  Biso   1.000  C
  C141     1.0000 0.16350  0.96880  0.56880  Biso   1.000  C
  C142     1.0000 0.66350  0.46880  0.56880  Biso   1.000  C
  C143     1.0000 0.16350  0.03120  0.06880  Biso   1.000  C
  C144     1.0000 0.66350  0.53120  0.06880  Biso   1.000  C
  C145     1.0000 0.86804  0.99720  0.49580  Biso   1.000  C
  C146     1.0000 0.36804  0.49720  0.49580  Biso   1.000  C
  C147     1.0000 0.86804  0.00280  0.99580  Biso   1.000  C
  C148     1.0000 0.36804  0.50280  0.99580  Biso   1.000  C
  C149     1.0000 0.13196  0.00280  0.50420  Biso   1.000  C
  C150     1.0000 0.63196  0.50280  0.50420  Biso   1.000  C
  C151     1.0000 0.13196  0.99720  0.00420  Biso   1.000  C
  C152     1.0000 0.63196  0.49720  0.00420  Biso   1.000  C
  H113     1.0000 0.89600  0.94200  0.51600  Biso   1.000  H
  H114     1.0000 0.39600  0.44200  0.51600  Biso   1.000  H
  H115     1.0000 0.89600  0.05800  0.01600  Biso   1.000  H
  H116     1.0000 0.39600  0.55800  0.01600  Biso   1.000  H
  H117     1.0000 0.10400  0.05800  0.48400  Biso   1.000  H
  H118     1.0000 0.60400  0.55800  0.48400  Biso   1.000  H
  H119     1.0000 0.10400  0.94200  0.98400  Biso   1.000  H
  H120     1.0000 0.60400  0.44200  0.98400  Biso   1.000  H
  N17      1.0000 0.84658  0.05860  0.52634  Biso   1.000  N
  N18      1.0000 0.34658  0.55860  0.52634  Biso   1.000  N
  N19      1.0000 0.84658  0.94140  0.02634  Biso   1.000  N
  N20      1.0000 0.34658  0.44140  0.02634  Biso   1.000  N
  N21      1.0000 0.15342  0.94140  0.47366  Biso   1.000  N
  N22      1.0000 0.65342  0.44140  0.47366  Biso   1.000  N
  N23      1.0000 0.15342  0.05860  0.97366  Biso   1.000  N
  N24      1.0000 0.65342  0.55860  0.97366  Biso   1.000  N
  C153     1.0000 0.86680  0.04870  0.59550  Biso   1.000  C
  C154     1.0000 0.36680  0.54870  0.59550  Biso   1.000  C
  C155     1.0000 0.86680  0.95130  0.09550  Biso   1.000  C
  C156     1.0000 0.36680  0.45130  0.09550  Biso   1.000  C
  C157     1.0000 0.13320  0.95130  0.40450  Biso   1.000  C
  C158     1.0000 0.63320  0.45130  0.40450  Biso   1.000  C
  C159     1.0000 0.13320  0.04870  0.90450  Biso   1.000  C
  C160     1.0000 0.63320  0.54870  0.90450  Biso   1.000  C
  H121     1.0000 0.87000  0.94800  0.60800  Biso   1.000  H
  H122     1.0000 0.37000  0.44800  0.60800  Biso   1.000  H
  H123     1.0000 0.87000  0.05200  0.10800  Biso   1.000  H
  H124     1.0000 0.37000  0.55200  0.10800  Biso   1.000  H
  H125     1.0000 0.13000  0.05200  0.39200  Biso   1.000  H
  H126     1.0000 0.63000  0.55200  0.39200  Biso   1.000  H
  H127     1.0000 0.13000  0.94800  0.89200  Biso   1.000  H
  H128     1.0000 0.63000  0.44800  0.89200  Biso   1.000  H
  H129     1.0000 0.83900  0.09600  0.60400  Biso   1.000  H
  H130     1.0000 0.33900  0.59600  0.60400  Biso   1.000  H
  H131     1.0000 0.83900  0.90400  0.10400  Biso   1.000  H
  H132     1.0000 0.33900  0.40400  0.10400  Biso   1.000  H
  H133     1.0000 0.16100  0.90400  0.39600  Biso   1.000  H
  H134     1.0000 0.66100  0.40400  0.39600  Biso   1.000  H
  H135     1.0000 0.16100  0.09600  0.89600  Biso   1.000  H
  H136     1.0000 0.66100  0.59600  0.89600  Biso   1.000  H
  C161     1.0000 0.92020  0.11820  0.63480  Biso   1.000  C
  C162     1.0000 0.42020  0.61820  0.63480  Biso   1.000  C
  C163     1.0000 0.92020  0.88180  0.13480  Biso   1.000  C
  C164     1.0000 0.42020  0.38180  0.13480  Biso   1.000  C
  C165     1.0000 0.07980  0.88180  0.36520  Biso   1.000  C
  C166     1.0000 0.57980  0.38180  0.36520  Biso   1.000  C
  C167     1.0000 0.07980  0.11820  0.86520  Biso   1.000  C
  C168     1.0000 0.57980  0.61820  0.86520  Biso   1.000  C
  H137     1.0000 0.93180  0.11240  0.67950  Biso   1.000  H
  H138     1.0000 0.43180  0.61240  0.67950  Biso   1.000  H
  H139     1.0000 0.93180  0.88760  0.17950  Biso   1.000  H
  H140     1.0000 0.43180  0.38760  0.17950  Biso   1.000  H
  H141     1.0000 0.06820  0.88760  0.32050  Biso   1.000  H
  H142     1.0000 0.56820  0.38760  0.32050  Biso   1.000  H
  H143     1.0000 0.06820  0.11240  0.82050  Biso   1.000  H
  H144     1.0000 0.56820  0.61240  0.82050  Biso   1.000  H
  H145     1.0000 0.91760  0.21530  0.62250  Biso   1.000  H
  H146     1.0000 0.41760  0.71530  0.62250  Biso   1.000  H
  H147     1.0000 0.91760  0.78470  0.12250  Biso   1.000  H
  H148     1.0000 0.41760  0.28470  0.12250  Biso   1.000  H
  H149     1.0000 0.08240  0.78470  0.37750  Biso   1.000  H
  H150     1.0000 0.58240  0.28470  0.37750  Biso   1.000  H
  H151     1.0000 0.08240  0.21530  0.87750  Biso   1.000  H
  H152     1.0000 0.58240  0.71530  0.87750  Biso   1.000  H
  H153     1.0000 0.94550  0.07130  0.62740  Biso   1.000  H
  H154     1.0000 0.44550  0.57130  0.62740  Biso   1.000  H
  H155     1.0000 0.94550  0.92870  0.12740  Biso   1.000  H
  H156     1.0000 0.44550  0.42870  0.12740  Biso   1.000  H
  H157     1.0000 0.05450  0.92870  0.37260  Biso   1.000  H
  H158     1.0000 0.55450  0.42870  0.37260  Biso   1.000  H
  H159     1.0000 0.05450  0.07130  0.87260  Biso   1.000  H
  H160     1.0000 0.55450  0.57130  0.87260  Biso   1.000  H
  N25      1.0000 0.80218  0.13360  0.48472  Biso   1.000  N
  N26      1.0000 0.30218  0.63360  0.48472  Biso   1.000  N
  N27      1.0000 0.80218  0.86640  0.98472  Biso   1.000  N
  N28      1.0000 0.30218  0.36640  0.98472  Biso   1.000  N
  N29      1.0000 0.19782  0.86640  0.51528  Biso   1.000  N
  N30      1.0000 0.69782  0.36640  0.51528  Biso   1.000  N
  N31      1.0000 0.19782  0.13360  0.01528  Biso   1.000  N
  N32      1.0000 0.69782  0.63360  0.01528  Biso   1.000  N
  C169     1.0000 0.79616  0.11650  0.42730  Biso   1.000  C
  C170     1.0000 0.29616  0.61650  0.42730  Biso   1.000  C
  C171     1.0000 0.79616  0.88350  0.92730  Biso   1.000  C
  C172     1.0000 0.29616  0.38350  0.92730  Biso   1.000  C
  C173     1.0000 0.20384  0.88350  0.57270  Biso   1.000  C
  C174     1.0000 0.70384  0.38350  0.57270  Biso   1.000  C
  C175     1.0000 0.20384  0.11650  0.07270  Biso   1.000  C
  C176     1.0000 0.70384  0.61650  0.07270  Biso   1.000  C
  H161     1.0000 0.76000  0.14900  0.39000  Biso   1.000  H
  H162     1.0000 0.26000  0.64900  0.39000  Biso   1.000  H
  H163     1.0000 0.76000  0.85100  0.89000  Biso   1.000  H
  H164     1.0000 0.26000  0.35100  0.89000  Biso   1.000  H
  H165     1.0000 0.24000  0.85100  0.61000  Biso   1.000  H
  H166     1.0000 0.74000  0.35100  0.61000  Biso   1.000  H
  H167     1.0000 0.24000  0.14900  0.11000  Biso   1.000  H
  H168     1.0000 0.74000  0.64900  0.11000  Biso   1.000  H
