data_image0
_cell_length_a       29.66
_cell_length_b       9.4899
_cell_length_c       24.52
_cell_angle_alpha    90
_cell_angle_beta     121.91
_cell_angle_gamma    90

_symmetry_space_group_name_H-M    "P 1"
_symmetry_int_tables_number       1

loop_
  _symmetry_equiv_pos_as_xyz
  'x, y, z'

loop_
  _atom_site_label
  _atom_site_occupancy
  _atom_site_fract_x
  _atom_site_fract_y
  _atom_site_fract_z
  _atom_site_thermal_displace_type
  _atom_site_B_iso_or_equiv
  _atom_site_type_symbol
  Cu1      1.0000 0.25000  0.75000  0.00000  Biso   1.000  Cu
  Cu2      1.0000 0.75000  0.25000  0.00000  Biso   1.000  Cu
  Cu3      1.0000 0.75000  0.75000  0.50000  Biso   1.000  Cu
  Cu4      1.0000 0.25000  0.25000  0.50000  Biso   1.000  Cu
  O1       1.0000 0.31334  0.83260  0.09281  Biso   1.000  O
  O2       1.0000 0.81334  0.33260  0.09281  Biso   1.000  O
  O3       1.0000 0.68666  0.83260  0.40719  Biso   1.000  O
  O4       1.0000 0.18666  0.33260  0.40719  Biso   1.000  O
  O5       1.0000 0.68666  0.16740  0.90719  Biso   1.000  O
  O6       1.0000 0.18666  0.66740  0.90719  Biso   1.000  O
  O7       1.0000 0.31334  0.16740  0.59281  Biso   1.000  O
  O8       1.0000 0.81334  0.66740  0.59281  Biso   1.000  O
  C1       1.0000 0.36798  0.00350  0.16822  Biso   1.000  C
  C2       1.0000 0.86798  0.50350  0.16822  Biso   1.000  C
  C3       1.0000 0.63202  0.00350  0.33178  Biso   1.000  C
  C4       1.0000 0.13202  0.50350  0.33178  Biso   1.000  C
  C5       1.0000 0.63202  0.99650  0.83178  Biso   1.000  C
  C6       1.0000 0.13202  0.49650  0.83178  Biso   1.000  C
  C7       1.0000 0.36798  0.99650  0.66822  Biso   1.000  C
  C8       1.0000 0.86798  0.49650  0.66822  Biso   1.000  C
  F1       1.0000 0.39660  0.90560  0.20430  Biso   1.000  F
  F2       1.0000 0.89660  0.40560  0.20430  Biso   1.000  F
  F3       1.0000 0.60340  0.90560  0.29570  Biso   1.000  F
  F4       1.0000 0.10340  0.40560  0.29570  Biso   1.000  F
  F5       1.0000 0.60340  0.09440  0.79570  Biso   1.000  F
  F6       1.0000 0.10340  0.59440  0.79570  Biso   1.000  F
  F7       1.0000 0.39660  0.09440  0.70430  Biso   1.000  F
  F8       1.0000 0.89660  0.59440  0.70430  Biso   1.000  F
  F9       1.0000 0.33690  0.03880  0.19190  Biso   1.000  F
  F10      1.0000 0.83690  0.53880  0.19190  Biso   1.000  F
  F11      1.0000 0.66310  0.03880  0.30810  Biso   1.000  F
  F12      1.0000 0.16310  0.53880  0.30810  Biso   1.000  F
  F13      1.0000 0.66310  0.96120  0.80810  Biso   1.000  F
  F14      1.0000 0.16310  0.46120  0.80810  Biso   1.000  F
  F15      1.0000 0.33690  0.96120  0.69190  Biso   1.000  F
  F16      1.0000 0.83690  0.46120  0.69190  Biso   1.000  F
  F17      1.0000 0.39480  0.10860  0.17460  Biso   1.000  F
  F18      1.0000 0.89480  0.60860  0.17460  Biso   1.000  F
  F19      1.0000 0.60520  0.10860  0.32540  Biso   1.000  F
  F20      1.0000 0.10520  0.60860  0.32540  Biso   1.000  F
  F21      1.0000 0.60520  0.89140  0.82540  Biso   1.000  F
  F22      1.0000 0.10520  0.39140  0.82540  Biso   1.000  F
  F23      1.0000 0.39480  0.89140  0.67460  Biso   1.000  F
  F24      1.0000 0.89480  0.39140  0.67460  Biso   1.000  F
  F25      1.0000 0.36060  0.95430  0.20670  Biso   1.000  F
  F26      1.0000 0.86060  0.45430  0.20670  Biso   1.000  F
  F27      1.0000 0.63940  0.95430  0.29330  Biso   1.000  F
  F28      1.0000 0.13940  0.45430  0.29330  Biso   1.000  F
  F29      1.0000 0.63940  0.04570  0.79330  Biso   1.000  F
  F30      1.0000 0.13940  0.54570  0.79330  Biso   1.000  F
  F31      1.0000 0.36060  0.04570  0.70670  Biso   1.000  F
  F32      1.0000 0.86060  0.54570  0.70670  Biso   1.000  F
  F33      1.0000 0.37920  0.13500  0.17530  Biso   1.000  F
  F34      1.0000 0.87920  0.63500  0.17530  Biso   1.000  F
  F35      1.0000 0.62080  0.13500  0.32470  Biso   1.000  F
  F36      1.0000 0.12080  0.63500  0.32470  Biso   1.000  F
  F37      1.0000 0.62080  0.86500  0.82470  Biso   1.000  F
  F38      1.0000 0.12080  0.36500  0.82470  Biso   1.000  F
  F39      1.0000 0.37920  0.86500  0.67530  Biso   1.000  F
  F40      1.0000 0.87920  0.36500  0.67530  Biso   1.000  F
  F41      1.0000 0.41740  0.95490  0.18610  Biso   1.000  F
  F42      1.0000 0.91740  0.45490  0.18610  Biso   1.000  F
  F43      1.0000 0.58260  0.95490  0.31390  Biso   1.000  F
  F44      1.0000 0.08260  0.45490  0.31390  Biso   1.000  F
  F45      1.0000 0.58260  0.04510  0.81390  Biso   1.000  F
  F46      1.0000 0.08260  0.54510  0.81390  Biso   1.000  F
  F47      1.0000 0.41740  0.04510  0.68610  Biso   1.000  F
  F48      1.0000 0.91740  0.54510  0.68610  Biso   1.000  F
  C9       1.0000 0.33024  0.95410  0.09836  Biso   1.000  C
  C10      1.0000 0.83024  0.45410  0.09836  Biso   1.000  C
  C11      1.0000 0.66976  0.95410  0.40164  Biso   1.000  C
  C12      1.0000 0.16976  0.45410  0.40164  Biso   1.000  C
  C13      1.0000 0.66976  0.04590  0.90164  Biso   1.000  C
  C14      1.0000 0.16976  0.54590  0.90164  Biso   1.000  C
  C15      1.0000 0.33024  0.04590  0.59836  Biso   1.000  C
  C16      1.0000 0.83024  0.54590  0.59836  Biso   1.000  C
  C17      1.0000 0.31857  0.05150  0.05017  Biso   1.000  C
  C18      1.0000 0.81857  0.55150  0.05017  Biso   1.000  C
  C19      1.0000 0.68143  0.05150  0.44983  Biso   1.000  C
  C20      1.0000 0.18143  0.55150  0.44983  Biso   1.000  C
  C21      1.0000 0.68143  0.94850  0.94983  Biso   1.000  C
  C22      1.0000 0.18143  0.44850  0.94983  Biso   1.000  C
  C23      1.0000 0.31857  0.94850  0.55017  Biso   1.000  C
  C24      1.0000 0.81857  0.44850  0.55017  Biso   1.000  C
  H1       1.0000 0.33190  0.13900  0.05840  Biso   1.000  H
  H2       1.0000 0.83190  0.63900  0.05840  Biso   1.000  H
  H3       1.0000 0.66810  0.13900  0.44160  Biso   1.000  H
  H4       1.0000 0.16810  0.63900  0.44160  Biso   1.000  H
  H5       1.0000 0.66810  0.86100  0.94160  Biso   1.000  H
  H6       1.0000 0.16810  0.36100  0.94160  Biso   1.000  H
  H7       1.0000 0.33190  0.86100  0.55840  Biso   1.000  H
  H8       1.0000 0.83190  0.36100  0.55840  Biso   1.000  H
  C25      1.0000 0.28480  0.02530  0.98586  Biso   1.000  C
  C26      1.0000 0.78480  0.52530  0.98586  Biso   1.000  C
  C27      1.0000 0.71520  0.02530  0.51414  Biso   1.000  C
  C28      1.0000 0.21520  0.52530  0.51414  Biso   1.000  C
  C29      1.0000 0.71520  0.97470  0.01414  Biso   1.000  C
  C30      1.0000 0.21520  0.47470  0.01414  Biso   1.000  C
  C31      1.0000 0.28480  0.97470  0.48586  Biso   1.000  C
  C32      1.0000 0.78480  0.47470  0.48586  Biso   1.000  C
  C33      1.0000 0.27492  0.14600  0.93977  Biso   1.000  C
  C34      1.0000 0.77492  0.64600  0.93977  Biso   1.000  C
  C35      1.0000 0.72508  0.14600  0.56023  Biso   1.000  C
  C36      1.0000 0.22508  0.64600  0.56023  Biso   1.000  C
  C37      1.0000 0.72508  0.85400  0.06023  Biso   1.000  C
  C38      1.0000 0.22508  0.35400  0.06023  Biso   1.000  C
  C39      1.0000 0.27492  0.85400  0.43977  Biso   1.000  C
  C40      1.0000 0.77492  0.35400  0.43977  Biso   1.000  C
  F49      1.0000 0.22060  0.15660  0.89330  Biso   1.000  F
  F50      1.0000 0.72060  0.65660  0.89330  Biso   1.000  F
  F51      1.0000 0.77940  0.15660  0.60670  Biso   1.000  F
  F52      1.0000 0.27940  0.65660  0.60670  Biso   1.000  F
  F53      1.0000 0.77940  0.84340  0.10670  Biso   1.000  F
  F54      1.0000 0.27940  0.34340  0.10670  Biso   1.000  F
  F55      1.0000 0.22060  0.84340  0.39330  Biso   1.000  F
  F56      1.0000 0.72060  0.34340  0.39330  Biso   1.000  F
  F57      1.0000 0.28280  0.27530  0.96720  Biso   1.000  F
  F58      1.0000 0.78280  0.77530  0.96720  Biso   1.000  F
  F59      1.0000 0.71720  0.27530  0.53280  Biso   1.000  F
  F60      1.0000 0.21720  0.77530  0.53280  Biso   1.000  F
  F61      1.0000 0.71720  0.72470  0.03280  Biso   1.000  F
  F62      1.0000 0.21720  0.22470  0.03280  Biso   1.000  F
  F63      1.0000 0.28280  0.72470  0.46720  Biso   1.000  F
  F64      1.0000 0.78280  0.22470  0.46720  Biso   1.000  F
  F65      1.0000 0.30810  0.14500  0.92220  Biso   1.000  F
  F66      1.0000 0.80810  0.64500  0.92220  Biso   1.000  F
  F67      1.0000 0.69190  0.14500  0.57780  Biso   1.000  F
  F68      1.0000 0.19190  0.64500  0.57780  Biso   1.000  F
  F69      1.0000 0.69190  0.85500  0.07780  Biso   1.000  F
  F70      1.0000 0.19190  0.35500  0.07780  Biso   1.000  F
  F71      1.0000 0.30810  0.85500  0.42220  Biso   1.000  F
  F72      1.0000 0.80810  0.35500  0.42220  Biso   1.000  F
  F73      1.0000 0.23160  0.15270  0.89500  Biso   1.000  F
  F74      1.0000 0.73160  0.65270  0.89500  Biso   1.000  F
  F75      1.0000 0.76840  0.15270  0.60500  Biso   1.000  F
  F76      1.0000 0.26840  0.65270  0.60500  Biso   1.000  F
  F77      1.0000 0.76840  0.84730  0.10500  Biso   1.000  F
  F78      1.0000 0.26840  0.34730  0.10500  Biso   1.000  F
  F79      1.0000 0.23160  0.84730  0.39500  Biso   1.000  F
  F80      1.0000 0.73160  0.34730  0.39500  Biso   1.000  F
  F81      1.0000 0.29330  0.26040  0.96630  Biso   1.000  F
  F82      1.0000 0.79330  0.76040  0.96630  Biso   1.000  F
  F83      1.0000 0.70670  0.26040  0.53370  Biso   1.000  F
  F84      1.0000 0.20670  0.76040  0.53370  Biso   1.000  F
  F85      1.0000 0.70670  0.73960  0.03370  Biso   1.000  F
  F86      1.0000 0.20670  0.23960  0.03370  Biso   1.000  F
  F87      1.0000 0.29330  0.73960  0.46630  Biso   1.000  F
  F88      1.0000 0.79330  0.23960  0.46630  Biso   1.000  F
  F89      1.0000 0.29790  0.11500  0.90620  Biso   1.000  F
  F90      1.0000 0.79790  0.61500  0.90620  Biso   1.000  F
  F91      1.0000 0.70210  0.11500  0.59380  Biso   1.000  F
  F92      1.0000 0.20210  0.61500  0.59380  Biso   1.000  F
  F93      1.0000 0.70210  0.88500  0.09380  Biso   1.000  F
  F94      1.0000 0.20210  0.38500  0.09380  Biso   1.000  F
  F95      1.0000 0.29790  0.88500  0.40620  Biso   1.000  F
  F96      1.0000 0.79790  0.38500  0.40620  Biso   1.000  F
  O9       1.0000 0.25966  0.91478  0.95795  Biso   1.000  O
  O10      1.0000 0.75966  0.41478  0.95795  Biso   1.000  O
  O11      1.0000 0.74034  0.91478  0.54205  Biso   1.000  O
  O12      1.0000 0.24034  0.41478  0.54205  Biso   1.000  O
  O13      1.0000 0.74034  0.08522  0.04205  Biso   1.000  O
  O14      1.0000 0.24034  0.58522  0.04205  Biso   1.000  O
  O15      1.0000 0.25966  0.08522  0.45795  Biso   1.000  O
  O16      1.0000 0.75966  0.58522  0.45795  Biso   1.000  O
  Cu5      1.0000 0.00000  0.00000  0.00000  Biso   1.000  Cu
  Cu6      1.0000 0.50000  0.50000  0.00000  Biso   1.000  Cu
  Cu7      1.0000 0.00000  0.00000  0.50000  Biso   1.000  Cu
  Cu8      1.0000 0.50000  0.50000  0.50000  Biso   1.000  Cu
  O17      1.0000 0.00040  0.90624  0.07429  Biso   1.000  O
  O18      1.0000 0.50040  0.40624  0.07429  Biso   1.000  O
  O19      1.0000 0.99960  0.90624  0.42571  Biso   1.000  O
  O20      1.0000 0.49960  0.40624  0.42571  Biso   1.000  O
  O21      1.0000 0.99960  0.09376  0.92571  Biso   1.000  O
  O22      1.0000 0.49960  0.59376  0.92571  Biso   1.000  O
  O23      1.0000 0.00040  0.09376  0.57429  Biso   1.000  O
  O24      1.0000 0.50040  0.59376  0.57429  Biso   1.000  O
  C41      1.0000 0.00163  0.73280  0.14128  Biso   1.000  C
  C42      1.0000 0.50163  0.23280  0.14128  Biso   1.000  C
  C43      1.0000 0.99837  0.73280  0.35872  Biso   1.000  C
  C44      1.0000 0.49837  0.23280  0.35872  Biso   1.000  C
  C45      1.0000 0.99837  0.26720  0.85872  Biso   1.000  C
  C46      1.0000 0.49837  0.76720  0.85872  Biso   1.000  C
  C47      1.0000 0.00163  0.26720  0.64128  Biso   1.000  C
  C48      1.0000 0.50163  0.76720  0.64128  Biso   1.000  C
  F97      1.0000 0.01850  0.83240  0.18900  Biso   1.000  F
  F98      1.0000 0.51850  0.33240  0.18900  Biso   1.000  F
  F99      1.0000 0.98150  0.83240  0.31100  Biso   1.000  F
  F100     1.0000 0.48150  0.33240  0.31100  Biso   1.000  F
  F101     1.0000 0.98150  0.16760  0.81100  Biso   1.000  F
  F102     1.0000 0.48150  0.66760  0.81100  Biso   1.000  F
  F103     1.0000 0.01850  0.16760  0.68900  Biso   1.000  F
  F104     1.0000 0.51850  0.66760  0.68900  Biso   1.000  F
  F105     1.0000 0.01970  0.59600  0.15620  Biso   1.000  F
  F106     1.0000 0.51970  0.09600  0.15620  Biso   1.000  F
  F107     1.0000 0.98030  0.59600  0.34380  Biso   1.000  F
  F108     1.0000 0.48030  0.09600  0.34380  Biso   1.000  F
  F109     1.0000 0.98030  0.40400  0.84380  Biso   1.000  F
  F110     1.0000 0.48030  0.90400  0.84380  Biso   1.000  F
  F111     1.0000 0.01970  0.40400  0.65620  Biso   1.000  F
  F112     1.0000 0.51970  0.90400  0.65620  Biso   1.000  F
  F113     1.0000 0.94740  0.73600  0.11390  Biso   1.000  F
  F114     1.0000 0.44740  0.23600  0.11390  Biso   1.000  F
  F115     1.0000 0.05260  0.73600  0.38610  Biso   1.000  F
  F116     1.0000 0.55260  0.23600  0.38610  Biso   1.000  F
  F117     1.0000 0.05260  0.26400  0.88610  Biso   1.000  F
  F118     1.0000 0.55260  0.76400  0.88610  Biso   1.000  F
  F119     1.0000 0.94740  0.26400  0.61390  Biso   1.000  F
  F120     1.0000 0.44740  0.76400  0.61390  Biso   1.000  F
  F121     1.0000 0.02230  0.79860  0.19190  Biso   1.000  F
  F122     1.0000 0.52230  0.29860  0.19190  Biso   1.000  F
  F123     1.0000 0.97770  0.79860  0.30810  Biso   1.000  F
  F124     1.0000 0.47770  0.29860  0.30810  Biso   1.000  F
  F125     1.0000 0.97770  0.20140  0.80810  Biso   1.000  F
  F126     1.0000 0.47770  0.70140  0.80810  Biso   1.000  F
  F127     1.0000 0.02230  0.20140  0.69190  Biso   1.000  F
  F128     1.0000 0.52230  0.70140  0.69190  Biso   1.000  F
  F129     1.0000 0.02150  0.61390  0.17040  Biso   1.000  F
  F130     1.0000 0.52150  0.11390  0.17040  Biso   1.000  F
  F131     1.0000 0.97850  0.61390  0.32960  Biso   1.000  F
  F132     1.0000 0.47850  0.11390  0.32960  Biso   1.000  F
  F133     1.0000 0.97850  0.38610  0.82960  Biso   1.000  F
  F134     1.0000 0.47850  0.88610  0.82960  Biso   1.000  F
  F135     1.0000 0.02150  0.38610  0.67040  Biso   1.000  F
  F136     1.0000 0.52150  0.88610  0.67040  Biso   1.000  F
  F137     1.0000 0.95500  0.70200  0.11640  Biso   1.000  F
  F138     1.0000 0.45500  0.20200  0.11640  Biso   1.000  F
  F139     1.0000 0.04500  0.70200  0.38360  Biso   1.000  F
  F140     1.0000 0.54500  0.20200  0.38360  Biso   1.000  F
  F141     1.0000 0.04500  0.29800  0.88360  Biso   1.000  F
  F142     1.0000 0.54500  0.79800  0.88360  Biso   1.000  F
  F143     1.0000 0.95500  0.29800  0.61640  Biso   1.000  F
  F144     1.0000 0.45500  0.79800  0.61640  Biso   1.000  F
  C49      1.0000 0.01464  0.78330  0.09219  Biso   1.000  C
  C50      1.0000 0.51464  0.28330  0.09219  Biso   1.000  C
  C51      1.0000 0.98536  0.78330  0.40781  Biso   1.000  C
  C52      1.0000 0.48536  0.28330  0.40781  Biso   1.000  C
  C53      1.0000 0.98536  0.21670  0.90781  Biso   1.000  C
  C54      1.0000 0.48536  0.71670  0.90781  Biso   1.000  C
  C55      1.0000 0.01464  0.21670  0.59219  Biso   1.000  C
  C56      1.0000 0.51464  0.71670  0.59219  Biso   1.000  C
  C57      1.0000 0.03920  0.69170  0.07186  Biso   1.000  C
  C58      1.0000 0.53920  0.19170  0.07186  Biso   1.000  C
  C59      1.0000 0.96080  0.69170  0.42814  Biso   1.000  C
  C60      1.0000 0.46080  0.19170  0.42814  Biso   1.000  C
  C61      1.0000 0.96080  0.30830  0.92814  Biso   1.000  C
  C62      1.0000 0.46080  0.80830  0.92814  Biso   1.000  C
  C63      1.0000 0.03920  0.30830  0.57186  Biso   1.000  C
  C64      1.0000 0.53920  0.80830  0.57186  Biso   1.000  C
  H9       1.0000 0.05020  0.61000  0.08860  Biso   1.000  H
  H10      1.0000 0.55020  0.11000  0.08860  Biso   1.000  H
  H11      1.0000 0.94980  0.61000  0.41140  Biso   1.000  H
  H12      1.0000 0.44980  0.11000  0.41140  Biso   1.000  H
  H13      1.0000 0.94980  0.39000  0.91140  Biso   1.000  H
  H14      1.0000 0.44980  0.89000  0.91140  Biso   1.000  H
  H15      1.0000 0.05020  0.39000  0.58860  Biso   1.000  H
  H16      1.0000 0.55020  0.89000  0.58860  Biso   1.000  H
  C65      1.0000 0.04936  0.72710  0.02466  Biso   1.000  C
  C66      1.0000 0.54936  0.22710  0.02466  Biso   1.000  C
  C67      1.0000 0.95064  0.72710  0.47534  Biso   1.000  C
  C68      1.0000 0.45064  0.22710  0.47534  Biso   1.000  C
  C69      1.0000 0.95064  0.27290  0.97534  Biso   1.000  C
  C70      1.0000 0.45064  0.77290  0.97534  Biso   1.000  C
  C71      1.0000 0.04936  0.27290  0.52466  Biso   1.000  C
  C72      1.0000 0.54936  0.77290  0.52466  Biso   1.000  C
  C73      1.0000 0.07408  0.61850  0.00260  Biso   1.000  C
  C74      1.0000 0.57408  0.11850  0.00260  Biso   1.000  C
  C75      1.0000 0.92592  0.61850  0.49740  Biso   1.000  C
  C76      1.0000 0.42592  0.11850  0.49740  Biso   1.000  C
  C77      1.0000 0.92592  0.38150  0.99740  Biso   1.000  C
  C78      1.0000 0.42592  0.88150  0.99740  Biso   1.000  C
  C79      1.0000 0.07408  0.38150  0.50260  Biso   1.000  C
  C80      1.0000 0.57408  0.88150  0.50260  Biso   1.000  C
  F145     1.0000 0.07610  0.49240  0.02580  Biso   1.000  F
  F146     1.0000 0.57610  0.99240  0.02580  Biso   1.000  F
  F147     1.0000 0.92390  0.49240  0.47420  Biso   1.000  F
  F148     1.0000 0.42390  0.99240  0.47420  Biso   1.000  F
  F149     1.0000 0.92390  0.50760  0.97420  Biso   1.000  F
  F150     1.0000 0.42390  0.00760  0.97420  Biso   1.000  F
  F151     1.0000 0.07610  0.50760  0.52580  Biso   1.000  F
  F152     1.0000 0.57610  0.00760  0.52580  Biso   1.000  F
  F153     1.0000 0.11260  0.65900  0.00110  Biso   1.000  F
  F154     1.0000 0.61260  0.15900  0.00110  Biso   1.000  F
  F155     1.0000 0.88740  0.65900  0.49890  Biso   1.000  F
  F156     1.0000 0.38740  0.15900  0.49890  Biso   1.000  F
  F157     1.0000 0.88740  0.34100  0.99890  Biso   1.000  F
  F158     1.0000 0.38740  0.84100  0.99890  Biso   1.000  F
  F159     1.0000 0.11260  0.34100  0.50110  Biso   1.000  F
  F160     1.0000 0.61260  0.84100  0.50110  Biso   1.000  F
  F161     1.0000 0.03650  0.59460  0.93400  Biso   1.000  F
  F162     1.0000 0.53650  0.09460  0.93400  Biso   1.000  F
  F163     1.0000 0.96350  0.59460  0.56600  Biso   1.000  F
  F164     1.0000 0.46350  0.09460  0.56600  Biso   1.000  F
  F165     1.0000 0.96350  0.40540  0.06600  Biso   1.000  F
  F166     1.0000 0.46350  0.90540  0.06600  Biso   1.000  F
  F167     1.0000 0.03650  0.40540  0.43400  Biso   1.000  F
  F168     1.0000 0.53650  0.90540  0.43400  Biso   1.000  F
  F169     1.0000 0.13330  0.62530  0.06180  Biso   1.000  F
  F170     1.0000 0.63330  0.12530  0.06180  Biso   1.000  F
  F171     1.0000 0.86670  0.62530  0.43820  Biso   1.000  F
  F172     1.0000 0.36670  0.12530  0.43820  Biso   1.000  F
  F173     1.0000 0.86670  0.37470  0.93820  Biso   1.000  F
  F174     1.0000 0.36670  0.87470  0.93820  Biso   1.000  F
  F175     1.0000 0.13330  0.37470  0.56180  Biso   1.000  F
  F176     1.0000 0.63330  0.87470  0.56180  Biso   1.000  F
  F177     1.0000 0.07920  0.64290  0.96140  Biso   1.000  F
  F178     1.0000 0.57920  0.14290  0.96140  Biso   1.000  F
  F179     1.0000 0.92080  0.64290  0.53860  Biso   1.000  F
  F180     1.0000 0.42080  0.14290  0.53860  Biso   1.000  F
  F181     1.0000 0.92080  0.35710  0.03860  Biso   1.000  F
  F182     1.0000 0.42080  0.85710  0.03860  Biso   1.000  F
  F183     1.0000 0.07920  0.35710  0.46140  Biso   1.000  F
  F184     1.0000 0.57920  0.85710  0.46140  Biso   1.000  F
  F185     1.0000 0.06990  0.49150  0.01300  Biso   1.000  F
  F186     1.0000 0.56990  0.99150  0.01300  Biso   1.000  F
  F187     1.0000 0.93010  0.49150  0.48700  Biso   1.000  F
  F188     1.0000 0.43010  0.99150  0.48700  Biso   1.000  F
  F189     1.0000 0.93010  0.50850  0.98700  Biso   1.000  F
  F190     1.0000 0.43010  0.00850  0.98700  Biso   1.000  F
  F191     1.0000 0.06990  0.50850  0.51300  Biso   1.000  F
  F192     1.0000 0.56990  0.00850  0.51300  Biso   1.000  F
  O25      1.0000 0.03962  0.84055  0.99476  Biso   1.000  O
  O26      1.0000 0.53962  0.34055  0.99476  Biso   1.000  O
  O27      1.0000 0.96038  0.84055  0.50524  Biso   1.000  O
  O28      1.0000 0.46038  0.34055  0.50524  Biso   1.000  O
  O29      1.0000 0.96038  0.15945  0.00524  Biso   1.000  O
  O30      1.0000 0.46038  0.65945  0.00524  Biso   1.000  O
  O31      1.0000 0.03962  0.15945  0.49476  Biso   1.000  O
  O32      1.0000 0.53962  0.65945  0.49476  Biso   1.000  O
  O33      1.0000 0.07351  0.13065  0.05717  Biso   1.000  O
  O34      1.0000 0.57351  0.63065  0.05717  Biso   1.000  O
  O35      1.0000 0.92649  0.13065  0.44283  Biso   1.000  O
  O36      1.0000 0.42649  0.63065  0.44283  Biso   1.000  O
  O37      1.0000 0.92649  0.86935  0.94283  Biso   1.000  O
  O38      1.0000 0.42649  0.36935  0.94283  Biso   1.000  O
  O39      1.0000 0.07351  0.86935  0.55717  Biso   1.000  O
  O40      1.0000 0.57351  0.36935  0.55717  Biso   1.000  O
  N1       1.0000 0.11492  0.09440  0.11180  Biso   1.000  N
  N2       1.0000 0.61492  0.59440  0.11180  Biso   1.000  N
  N3       1.0000 0.88508  0.09440  0.38820  Biso   1.000  N
  N4       1.0000 0.38508  0.59440  0.38820  Biso   1.000  N
  N5       1.0000 0.88508  0.90560  0.88820  Biso   1.000  N
  N6       1.0000 0.38508  0.40560  0.88820  Biso   1.000  N
  N7       1.0000 0.11492  0.90560  0.61180  Biso   1.000  N
  N8       1.0000 0.61492  0.40560  0.61180  Biso   1.000  N
  C81      1.0000 0.12605  0.15650  0.17401  Biso   1.000  C
  C82      1.0000 0.62605  0.65650  0.17401  Biso   1.000  C
  C83      1.0000 0.87395  0.15650  0.32599  Biso   1.000  C
  C84      1.0000 0.37395  0.65650  0.32599  Biso   1.000  C
  C85      1.0000 0.87395  0.84350  0.82599  Biso   1.000  C
  C86      1.0000 0.37395  0.34350  0.82599  Biso   1.000  C
  C87      1.0000 0.12605  0.84350  0.67401  Biso   1.000  C
  C88      1.0000 0.62605  0.34350  0.67401  Biso   1.000  C
  C89      1.0000 0.14557  0.30620  0.17557  Biso   1.000  C
  C90      1.0000 0.64557  0.80620  0.17557  Biso   1.000  C
  C91      1.0000 0.85443  0.30620  0.32443  Biso   1.000  C
  C92      1.0000 0.35443  0.80620  0.32443  Biso   1.000  C
  C93      1.0000 0.85443  0.69380  0.82443  Biso   1.000  C
  C94      1.0000 0.35443  0.19380  0.82443  Biso   1.000  C
  C95      1.0000 0.14557  0.69380  0.67557  Biso   1.000  C
  C96      1.0000 0.64557  0.19380  0.67557  Biso   1.000  C
  H17      1.0000 0.11640  0.35200  0.13930  Biso   1.000  H
  H18      1.0000 0.61640  0.85200  0.13930  Biso   1.000  H
  H19      1.0000 0.88360  0.35200  0.36070  Biso   1.000  H
  H20      1.0000 0.38360  0.85200  0.36070  Biso   1.000  H
  H21      1.0000 0.88360  0.64800  0.86070  Biso   1.000  H
  H22      1.0000 0.38360  0.14800  0.86070  Biso   1.000  H
  H23      1.0000 0.11640  0.64800  0.63930  Biso   1.000  H
  H24      1.0000 0.61640  0.14800  0.63930  Biso   1.000  H
  H25      1.0000 0.17510  0.31100  0.17150  Biso   1.000  H
  H26      1.0000 0.67510  0.81100  0.17150  Biso   1.000  H
  H27      1.0000 0.82490  0.31100  0.32850  Biso   1.000  H
  H28      1.0000 0.32490  0.81100  0.32850  Biso   1.000  H
  H29      1.0000 0.82490  0.68900  0.82850  Biso   1.000  H
  H30      1.0000 0.32490  0.18900  0.82850  Biso   1.000  H
  H31      1.0000 0.17510  0.68900  0.67150  Biso   1.000  H
  H32      1.0000 0.67510  0.18900  0.67150  Biso   1.000  H
  H33      1.0000 0.14530  0.34700  0.20840  Biso   1.000  H
  H34      1.0000 0.64530  0.84700  0.20840  Biso   1.000  H
  H35      1.0000 0.85470  0.34700  0.29160  Biso   1.000  H
  H36      1.0000 0.35470  0.84700  0.29160  Biso   1.000  H
  H37      1.0000 0.85470  0.65300  0.79160  Biso   1.000  H
  H38      1.0000 0.35470  0.15300  0.79160  Biso   1.000  H
  H39      1.0000 0.14530  0.65300  0.70840  Biso   1.000  H
  H40      1.0000 0.64530  0.15300  0.70840  Biso   1.000  H
  C97      1.0000 0.07608  0.15920  0.17645  Biso   1.000  C
  C98      1.0000 0.57608  0.65920  0.17645  Biso   1.000  C
  C99      1.0000 0.92392  0.15920  0.32355  Biso   1.000  C
  C100     1.0000 0.42392  0.65920  0.32355  Biso   1.000  C
  C101     1.0000 0.92392  0.84080  0.82355  Biso   1.000  C
  C102     1.0000 0.42392  0.34080  0.82355  Biso   1.000  C
  C103     1.0000 0.07608  0.84080  0.67645  Biso   1.000  C
  C104     1.0000 0.57608  0.34080  0.67645  Biso   1.000  C
  H41      1.0000 0.04330  0.23200  0.13800  Biso   1.000  H
  H42      1.0000 0.54330  0.73200  0.13800  Biso   1.000  H
  H43      1.0000 0.95670  0.23200  0.36200  Biso   1.000  H
  H44      1.0000 0.45670  0.73200  0.36200  Biso   1.000  H
  H45      1.0000 0.95670  0.76800  0.86200  Biso   1.000  H
  H46      1.0000 0.45670  0.26800  0.86200  Biso   1.000  H
  H47      1.0000 0.04330  0.76800  0.63800  Biso   1.000  H
  H48      1.0000 0.54330  0.26800  0.63800  Biso   1.000  H
  H49      1.0000 0.08170  0.19100  0.21730  Biso   1.000  H
  H50      1.0000 0.58170  0.69100  0.21730  Biso   1.000  H
  H51      1.0000 0.91830  0.19100  0.28270  Biso   1.000  H
  H52      1.0000 0.41830  0.69100  0.28270  Biso   1.000  H
  H53      1.0000 0.91830  0.80900  0.78270  Biso   1.000  H
  H54      1.0000 0.41830  0.30900  0.78270  Biso   1.000  H
  H55      1.0000 0.08170  0.80900  0.71730  Biso   1.000  H
  H56      1.0000 0.58170  0.30900  0.71730  Biso   1.000  H
  H57      1.0000 0.06020  0.08000  0.17150  Biso   1.000  H
  H58      1.0000 0.56020  0.58000  0.17150  Biso   1.000  H
  H59      1.0000 0.93980  0.08000  0.32850  Biso   1.000  H
  H60      1.0000 0.43980  0.58000  0.32850  Biso   1.000  H
  H61      1.0000 0.93980  0.92000  0.82850  Biso   1.000  H
  H62      1.0000 0.43980  0.42000  0.82850  Biso   1.000  H
  H63      1.0000 0.06020  0.92000  0.67150  Biso   1.000  H
  H64      1.0000 0.56020  0.42000  0.67150  Biso   1.000  H
  C105     1.0000 0.17016  0.05560  0.22180  Biso   1.000  C
  C106     1.0000 0.67016  0.55560  0.22180  Biso   1.000  C
  C107     1.0000 0.82984  0.05560  0.27820  Biso   1.000  C
  C108     1.0000 0.32984  0.55560  0.27820  Biso   1.000  C
  C109     1.0000 0.82984  0.94440  0.77820  Biso   1.000  C
  C110     1.0000 0.32984  0.44440  0.77820  Biso   1.000  C
  C111     1.0000 0.17016  0.94440  0.72180  Biso   1.000  C
  C112     1.0000 0.67016  0.44440  0.72180  Biso   1.000  C
  C113     1.0000 0.14942  0.92270  0.23638  Biso   1.000  C
  C114     1.0000 0.64942  0.42270  0.23638  Biso   1.000  C
  C115     1.0000 0.85058  0.92270  0.26362  Biso   1.000  C
  C116     1.0000 0.35058  0.42270  0.26362  Biso   1.000  C
  C117     1.0000 0.85058  0.07730  0.76362  Biso   1.000  C
  C118     1.0000 0.35058  0.57730  0.76362  Biso   1.000  C
  C119     1.0000 0.14942  0.07730  0.73638  Biso   1.000  C
  C120     1.0000 0.64942  0.57730  0.73638  Biso   1.000  C
  H65      1.0000 0.17710  0.85320  0.25530  Biso   1.000  H
  H66      1.0000 0.67710  0.35320  0.25530  Biso   1.000  H
  H67      1.0000 0.82290  0.85320  0.24470  Biso   1.000  H
  H68      1.0000 0.32290  0.35320  0.24470  Biso   1.000  H
  H69      1.0000 0.82290  0.14680  0.74470  Biso   1.000  H
  H70      1.0000 0.32290  0.64680  0.74470  Biso   1.000  H
  H71      1.0000 0.17710  0.14680  0.75530  Biso   1.000  H
  H72      1.0000 0.67710  0.64680  0.75530  Biso   1.000  H
  H73      1.0000 0.11970  0.88630  0.19730  Biso   1.000  H
  H74      1.0000 0.61970  0.38630  0.19730  Biso   1.000  H
  H75      1.0000 0.88030  0.88630  0.30270  Biso   1.000  H
  H76      1.0000 0.38030  0.38630  0.30270  Biso   1.000  H
  H77      1.0000 0.88030  0.11370  0.80270  Biso   1.000  H
  H78      1.0000 0.38030  0.61370  0.80270  Biso   1.000  H
  H79      1.0000 0.11970  0.11370  0.69730  Biso   1.000  H
  H80      1.0000 0.61970  0.61370  0.69730  Biso   1.000  H
  H81      1.0000 0.13840  0.94510  0.26580  Biso   1.000  H
  H82      1.0000 0.63840  0.44510  0.26580  Biso   1.000  H
  H83      1.0000 0.86160  0.94510  0.23420  Biso   1.000  H
  H84      1.0000 0.36160  0.44510  0.23420  Biso   1.000  H
  H85      1.0000 0.86160  0.05490  0.73420  Biso   1.000  H
  H86      1.0000 0.36160  0.55490  0.73420  Biso   1.000  H
  H87      1.0000 0.13840  0.05490  0.76580  Biso   1.000  H
  H88      1.0000 0.63840  0.55490  0.76580  Biso   1.000  H
  C121     1.0000 0.21392  0.12340  0.28387  Biso   1.000  C
  C122     1.0000 0.71392  0.62340  0.28387  Biso   1.000  C
  C123     1.0000 0.78608  0.12340  0.21613  Biso   1.000  C
  C124     1.0000 0.28608  0.62340  0.21613  Biso   1.000  C
  C125     1.0000 0.78608  0.87660  0.71613  Biso   1.000  C
  C126     1.0000 0.28608  0.37660  0.71613  Biso   1.000  C
  C127     1.0000 0.21392  0.87660  0.78387  Biso   1.000  C
  C128     1.0000 0.71392  0.37660  0.78387  Biso   1.000  C
  H89      1.0000 0.23940  0.05300  0.31040  Biso   1.000  H
  H90      1.0000 0.73940  0.55300  0.31040  Biso   1.000  H
  H91      1.0000 0.76060  0.05300  0.18960  Biso   1.000  H
  H92      1.0000 0.26060  0.55300  0.18960  Biso   1.000  H
  H93      1.0000 0.76060  0.94700  0.68960  Biso   1.000  H
  H94      1.0000 0.26060  0.44700  0.68960  Biso   1.000  H
  H95      1.0000 0.23940  0.94700  0.81040  Biso   1.000  H
  H96      1.0000 0.73940  0.44700  0.81040  Biso   1.000  H
  H97      1.0000 0.19870  0.16440  0.30630  Biso   1.000  H
  H98      1.0000 0.69870  0.66440  0.30630  Biso   1.000  H
  H99      1.0000 0.80130  0.16440  0.19370  Biso   1.000  H
  H100     1.0000 0.30130  0.66440  0.19370  Biso   1.000  H
  H101     1.0000 0.80130  0.83560  0.69370  Biso   1.000  H
  H102     1.0000 0.30130  0.33560  0.69370  Biso   1.000  H
  H103     1.0000 0.19870  0.83560  0.80630  Biso   1.000  H
  H104     1.0000 0.69870  0.33560  0.80630  Biso   1.000  H
  H105     1.0000 0.23120  0.19540  0.27390  Biso   1.000  H
  H106     1.0000 0.73120  0.69540  0.27390  Biso   1.000  H
  H107     1.0000 0.76880  0.19540  0.22610  Biso   1.000  H
  H108     1.0000 0.26880  0.69540  0.22610  Biso   1.000  H
  H109     1.0000 0.76880  0.80460  0.72610  Biso   1.000  H
  H110     1.0000 0.26880  0.30460  0.72610  Biso   1.000  H
  H111     1.0000 0.23120  0.80460  0.77390  Biso   1.000  H
  H112     1.0000 0.73120  0.30460  0.77390  Biso   1.000  H
  N9       1.0000 0.19244  0.00890  0.18222  Biso   1.000  N
  N10      1.0000 0.69244  0.50890  0.18222  Biso   1.000  N
  N11      1.0000 0.80756  0.00890  0.31778  Biso   1.000  N
  N12      1.0000 0.30756  0.50890  0.31778  Biso   1.000  N
  N13      1.0000 0.80756  0.99110  0.81778  Biso   1.000  N
  N14      1.0000 0.30756  0.49110  0.81778  Biso   1.000  N
  N15      1.0000 0.19244  0.99110  0.68222  Biso   1.000  N
  N16      1.0000 0.69244  0.49110  0.68222  Biso   1.000  N
  O41      1.0000 0.23693  0.94770  0.20612  Biso   1.000  O
  O42      1.0000 0.73693  0.44770  0.20612  Biso   1.000  O
  O43      1.0000 0.76307  0.94770  0.29388  Biso   1.000  O
  O44      1.0000 0.26307  0.44770  0.29388  Biso   1.000  O
  O45      1.0000 0.76307  0.05230  0.79388  Biso   1.000  O
  O46      1.0000 0.26307  0.55230  0.79388  Biso   1.000  O
  O47      1.0000 0.23693  0.05230  0.70612  Biso   1.000  O
  O48      1.0000 0.73693  0.55230  0.70612  Biso   1.000  O
  C129     1.0000 0.15645  0.02350  0.11876  Biso   1.000  C
  C130     1.0000 0.65645  0.52350  0.11876  Biso   1.000  C
  C131     1.0000 0.84355  0.02350  0.38124  Biso   1.000  C
  C132     1.0000 0.34355  0.52350  0.38124  Biso   1.000  C
  C133     1.0000 0.84355  0.97650  0.88124  Biso   1.000  C
  C134     1.0000 0.34355  0.47650  0.88124  Biso   1.000  C
  C135     1.0000 0.15645  0.97650  0.61876  Biso   1.000  C
  C136     1.0000 0.65645  0.47650  0.61876  Biso   1.000  C
  C137     1.0000 0.16279  0.97450  0.06784  Biso   1.000  C
  C138     1.0000 0.66279  0.47450  0.06784  Biso   1.000  C
  C139     1.0000 0.83721  0.97450  0.43216  Biso   1.000  C
  C140     1.0000 0.33721  0.47450  0.43216  Biso   1.000  C
  C141     1.0000 0.83721  0.02550  0.93216  Biso   1.000  C
  C142     1.0000 0.33721  0.52550  0.93216  Biso   1.000  C
  C143     1.0000 0.16279  0.02550  0.56784  Biso   1.000  C
  C144     1.0000 0.66279  0.52550  0.56784  Biso   1.000  C
  C145     1.0000 0.20310  0.88980  0.07202  Biso   1.000  C
  C146     1.0000 0.70310  0.38980  0.07202  Biso   1.000  C
  C147     1.0000 0.79690  0.88980  0.42798  Biso   1.000  C
  C148     1.0000 0.29690  0.38980  0.42798  Biso   1.000  C
  C149     1.0000 0.79690  0.11020  0.92798  Biso   1.000  C
  C150     1.0000 0.29690  0.61020  0.92798  Biso   1.000  C
  C151     1.0000 0.20310  0.11020  0.57202  Biso   1.000  C
  C152     1.0000 0.70310  0.61020  0.57202  Biso   1.000  C
  H113     1.0000 0.23080  0.85180  0.11000  Biso   1.000  H
  H114     1.0000 0.73080  0.35180  0.11000  Biso   1.000  H
  H115     1.0000 0.76920  0.85180  0.39000  Biso   1.000  H
  H116     1.0000 0.26920  0.35180  0.39000  Biso   1.000  H
  H117     1.0000 0.76920  0.14820  0.89000  Biso   1.000  H
  H118     1.0000 0.26920  0.64820  0.89000  Biso   1.000  H
  H119     1.0000 0.23080  0.14820  0.61000  Biso   1.000  H
  H120     1.0000 0.73080  0.64820  0.61000  Biso   1.000  H
  N17      1.0000 0.19673  0.87081  0.01484  Biso   1.000  N
  N18      1.0000 0.69673  0.37081  0.01484  Biso   1.000  N
  N19      1.0000 0.80327  0.87081  0.48516  Biso   1.000  N
  N20      1.0000 0.30327  0.37081  0.48516  Biso   1.000  N
  N21      1.0000 0.80327  0.12919  0.98516  Biso   1.000  N
  N22      1.0000 0.30327  0.62919  0.98516  Biso   1.000  N
  N23      1.0000 0.19673  0.12919  0.51484  Biso   1.000  N
  N24      1.0000 0.69673  0.62919  0.51484  Biso   1.000  N
  N25      1.0000 0.15199  0.94496  0.97310  Biso   1.000  N
  N26      1.0000 0.65199  0.44496  0.97310  Biso   1.000  N
  N27      1.0000 0.84801  0.94496  0.52690  Biso   1.000  N
  N28      1.0000 0.34801  0.44496  0.52690  Biso   1.000  N
  N29      1.0000 0.84801  0.05504  0.02690  Biso   1.000  N
  N30      1.0000 0.34801  0.55504  0.02690  Biso   1.000  N
  N31      1.0000 0.15199  0.05504  0.47310  Biso   1.000  N
  N32      1.0000 0.65199  0.55504  0.47310  Biso   1.000  N
  C153     1.0000 0.13156  0.95400  0.90418  Biso   1.000  C
  C154     1.0000 0.63156  0.45400  0.90418  Biso   1.000  C
  C155     1.0000 0.86844  0.95400  0.59582  Biso   1.000  C
  C156     1.0000 0.36844  0.45400  0.59582  Biso   1.000  C
  C157     1.0000 0.86844  0.04600  0.09582  Biso   1.000  C
  C158     1.0000 0.36844  0.54600  0.09582  Biso   1.000  C
  C159     1.0000 0.13156  0.04600  0.40418  Biso   1.000  C
  C160     1.0000 0.63156  0.54600  0.40418  Biso   1.000  C
  H121     1.0000 0.15570  0.91300  0.89560  Biso   1.000  H
  H122     1.0000 0.65570  0.41300  0.89560  Biso   1.000  H
  H123     1.0000 0.84430  0.91300  0.60440  Biso   1.000  H
  H124     1.0000 0.34430  0.41300  0.60440  Biso   1.000  H
  H125     1.0000 0.84430  0.08700  0.10440  Biso   1.000  H
  H126     1.0000 0.34430  0.58700  0.10440  Biso   1.000  H
  H127     1.0000 0.15570  0.08700  0.39560  Biso   1.000  H
  H128     1.0000 0.65570  0.58700  0.39560  Biso   1.000  H
  H129     1.0000 0.12420  0.04500  0.88920  Biso   1.000  H
  H130     1.0000 0.62420  0.54500  0.88920  Biso   1.000  H
  H131     1.0000 0.87580  0.04500  0.61080  Biso   1.000  H
  H132     1.0000 0.37580  0.54500  0.61080  Biso   1.000  H
  H133     1.0000 0.87580  0.95500  0.11080  Biso   1.000  H
  H134     1.0000 0.37580  0.45500  0.11080  Biso   1.000  H
  H135     1.0000 0.12420  0.95500  0.38920  Biso   1.000  H
  H136     1.0000 0.62420  0.45500  0.38920  Biso   1.000  H
  C161     1.0000 0.07793  0.88490  0.86456  Biso   1.000  C
  C162     1.0000 0.57793  0.38490  0.86456  Biso   1.000  C
  C163     1.0000 0.92207  0.88490  0.63544  Biso   1.000  C
  C164     1.0000 0.42207  0.38490  0.63544  Biso   1.000  C
  C165     1.0000 0.92207  0.11510  0.13544  Biso   1.000  C
  C166     1.0000 0.42207  0.61510  0.13544  Biso   1.000  C
  C167     1.0000 0.07793  0.11510  0.36456  Biso   1.000  C
  C168     1.0000 0.57793  0.61510  0.36456  Biso   1.000  C
  H137     1.0000 0.06590  0.89230  0.81980  Biso   1.000  H
  H138     1.0000 0.56590  0.39230  0.81980  Biso   1.000  H
  H139     1.0000 0.93410  0.89230  0.68020  Biso   1.000  H
  H140     1.0000 0.43410  0.39230  0.68020  Biso   1.000  H
  H141     1.0000 0.93410  0.10770  0.18020  Biso   1.000  H
  H142     1.0000 0.43410  0.60770  0.18020  Biso   1.000  H
  H143     1.0000 0.06590  0.10770  0.31980  Biso   1.000  H
  H144     1.0000 0.56590  0.60770  0.31980  Biso   1.000  H
  H145     1.0000 0.05310  0.93110  0.87240  Biso   1.000  H
  H146     1.0000 0.55310  0.43110  0.87240  Biso   1.000  H
  H147     1.0000 0.94690  0.93110  0.62760  Biso   1.000  H
  H148     1.0000 0.44690  0.43110  0.62760  Biso   1.000  H
  H149     1.0000 0.94690  0.06890  0.12760  Biso   1.000  H
  H150     1.0000 0.44690  0.56890  0.12760  Biso   1.000  H
  H151     1.0000 0.05310  0.06890  0.37240  Biso   1.000  H
  H152     1.0000 0.55310  0.56890  0.37240  Biso   1.000  H
  H153     1.0000 0.08070  0.78730  0.87620  Biso   1.000  H
  H154     1.0000 0.58070  0.28730  0.87620  Biso   1.000  H
  H155     1.0000 0.91930  0.78730  0.62380  Biso   1.000  H
  H156     1.0000 0.41930  0.28730  0.62380  Biso   1.000  H
  H157     1.0000 0.91930  0.21270  0.12380  Biso   1.000  H
  H158     1.0000 0.41930  0.71270  0.12380  Biso   1.000  H
  H159     1.0000 0.08070  0.21270  0.37620  Biso   1.000  H
  H160     1.0000 0.58070  0.71270  0.37620  Biso   1.000  H
  C169     1.0000 0.13089  0.00660  0.00319  Biso   1.000  C
  C170     1.0000 0.63089  0.50660  0.00319  Biso   1.000  C
  C171     1.0000 0.86911  0.00660  0.49681  Biso   1.000  C
  C172     1.0000 0.36911  0.50660  0.49681  Biso   1.000  C
  C173     1.0000 0.86911  0.99340  0.99681  Biso   1.000  C
  C174     1.0000 0.36911  0.49340  0.99681  Biso   1.000  C
  C175     1.0000 0.13089  0.99340  0.50319  Biso   1.000  C
  C176     1.0000 0.63089  0.49340  0.50319  Biso   1.000  C
  H161     1.0000 0.10120  0.06900  0.98290  Biso   1.000  H
  H162     1.0000 0.60120  0.56900  0.98290  Biso   1.000  H
  H163     1.0000 0.89880  0.06900  0.51710  Biso   1.000  H
  H164     1.0000 0.39880  0.56900  0.51710  Biso   1.000  H
  H165     1.0000 0.89880  0.93100  0.01710  Biso   1.000  H
  H166     1.0000 0.39880  0.43100  0.01710  Biso   1.000  H
  H167     1.0000 0.10120  0.93100  0.48290  Biso   1.000  H
  H168     1.0000 0.60120  0.43100  0.48290  Biso   1.000  H
