data_image0
_cell_length_a       29.552
_cell_length_b       9.5122
_cell_length_c       24.428
_cell_angle_alpha    90
_cell_angle_beta     121.48
_cell_angle_gamma    90

_symmetry_space_group_name_H-M    "P 1"
_symmetry_int_tables_number       1

loop_
  _symmetry_equiv_pos_as_xyz
  'x, y, z'

loop_
  _atom_site_label
  _atom_site_occupancy
  _atom_site_fract_x
  _atom_site_fract_y
  _atom_site_fract_z
  _atom_site_thermal_displace_type
  _atom_site_B_iso_or_equiv
  _atom_site_type_symbol
  Cu1      1.0000 0.25000  0.75000  0.00000  Biso   1.000  Cu
  Cu2      1.0000 0.75000  0.25000  0.00000  Biso   1.000  Cu
  Cu3      1.0000 0.75000  0.75000  0.50000  Biso   1.000  Cu
  Cu4      1.0000 0.25000  0.25000  0.50000  Biso   1.000  Cu
  O1       1.0000 0.31452  0.83428  0.09482  Biso   1.000  O
  O2       1.0000 0.81452  0.33428  0.09482  Biso   1.000  O
  O3       1.0000 0.68548  0.83428  0.40518  Biso   1.000  O
  O4       1.0000 0.18548  0.33428  0.40518  Biso   1.000  O
  O5       1.0000 0.68548  0.16572  0.90518  Biso   1.000  O
  O6       1.0000 0.18548  0.66572  0.90518  Biso   1.000  O
  O7       1.0000 0.31452  0.16572  0.59482  Biso   1.000  O
  O8       1.0000 0.81452  0.66572  0.59482  Biso   1.000  O
  C1       1.0000 0.36780  0.00780  0.16916  Biso   1.000  C
  C2       1.0000 0.86780  0.50780  0.16916  Biso   1.000  C
  C3       1.0000 0.63220  0.00780  0.33084  Biso   1.000  C
  C4       1.0000 0.13220  0.50780  0.33084  Biso   1.000  C
  C5       1.0000 0.63220  0.99220  0.83084  Biso   1.000  C
  C6       1.0000 0.13220  0.49220  0.83084  Biso   1.000  C
  C7       1.0000 0.36780  0.99220  0.66916  Biso   1.000  C
  C8       1.0000 0.86780  0.49220  0.66916  Biso   1.000  C
  F1       1.0000 0.39710  0.91410  0.20650  Biso   1.000  F
  F2       1.0000 0.89710  0.41410  0.20650  Biso   1.000  F
  F3       1.0000 0.60290  0.91410  0.29350  Biso   1.000  F
  F4       1.0000 0.10290  0.41410  0.29350  Biso   1.000  F
  F5       1.0000 0.60290  0.08590  0.79350  Biso   1.000  F
  F6       1.0000 0.10290  0.58590  0.79350  Biso   1.000  F
  F7       1.0000 0.39710  0.08590  0.70650  Biso   1.000  F
  F8       1.0000 0.89710  0.58590  0.70650  Biso   1.000  F
  F9       1.0000 0.33610  0.04190  0.19340  Biso   1.000  F
  F10      1.0000 0.83610  0.54190  0.19340  Biso   1.000  F
  F11      1.0000 0.66390  0.04190  0.30660  Biso   1.000  F
  F12      1.0000 0.16390  0.54190  0.30660  Biso   1.000  F
  F13      1.0000 0.66390  0.95810  0.80660  Biso   1.000  F
  F14      1.0000 0.16390  0.45810  0.80660  Biso   1.000  F
  F15      1.0000 0.33610  0.95810  0.69340  Biso   1.000  F
  F16      1.0000 0.83610  0.45810  0.69340  Biso   1.000  F
  F17      1.0000 0.39360  0.11580  0.17500  Biso   1.000  F
  F18      1.0000 0.89360  0.61580  0.17500  Biso   1.000  F
  F19      1.0000 0.60640  0.11580  0.32500  Biso   1.000  F
  F20      1.0000 0.10640  0.61580  0.32500  Biso   1.000  F
  F21      1.0000 0.60640  0.88420  0.82500  Biso   1.000  F
  F22      1.0000 0.10640  0.38420  0.82500  Biso   1.000  F
  F23      1.0000 0.39360  0.88420  0.67500  Biso   1.000  F
  F24      1.0000 0.89360  0.38420  0.67500  Biso   1.000  F
  F25      1.0000 0.36050  0.95960  0.20790  Biso   1.000  F
  F26      1.0000 0.86050  0.45960  0.20790  Biso   1.000  F
  F27      1.0000 0.63950  0.95960  0.29210  Biso   1.000  F
  F28      1.0000 0.13950  0.45960  0.29210  Biso   1.000  F
  F29      1.0000 0.63950  0.04040  0.79210  Biso   1.000  F
  F30      1.0000 0.13950  0.54040  0.79210  Biso   1.000  F
  F31      1.0000 0.36050  0.04040  0.70790  Biso   1.000  F
  F32      1.0000 0.86050  0.54040  0.70790  Biso   1.000  F
  F33      1.0000 0.37940  0.13880  0.17580  Biso   1.000  F
  F34      1.0000 0.87940  0.63880  0.17580  Biso   1.000  F
  F35      1.0000 0.62060  0.13880  0.32420  Biso   1.000  F
  F36      1.0000 0.12060  0.63880  0.32420  Biso   1.000  F
  F37      1.0000 0.62060  0.86120  0.82420  Biso   1.000  F
  F38      1.0000 0.12060  0.36120  0.82420  Biso   1.000  F
  F39      1.0000 0.37940  0.86120  0.67580  Biso   1.000  F
  F40      1.0000 0.87940  0.36120  0.67580  Biso   1.000  F
  F41      1.0000 0.41850  0.95660  0.18650  Biso   1.000  F
  F42      1.0000 0.91850  0.45660  0.18650  Biso   1.000  F
  F43      1.0000 0.58150  0.95660  0.31350  Biso   1.000  F
  F44      1.0000 0.08150  0.45660  0.31350  Biso   1.000  F
  F45      1.0000 0.58150  0.04340  0.81350  Biso   1.000  F
  F46      1.0000 0.08150  0.54340  0.81350  Biso   1.000  F
  F47      1.0000 0.41850  0.04340  0.68650  Biso   1.000  F
  F48      1.0000 0.91850  0.54340  0.68650  Biso   1.000  F
  C9       1.0000 0.33064  0.95590  0.09970  Biso   1.000  C
  C10      1.0000 0.83064  0.45590  0.09970  Biso   1.000  C
  C11      1.0000 0.66936  0.95590  0.40030  Biso   1.000  C
  C12      1.0000 0.16936  0.45590  0.40030  Biso   1.000  C
  C13      1.0000 0.66936  0.04410  0.90030  Biso   1.000  C
  C14      1.0000 0.16936  0.54410  0.90030  Biso   1.000  C
  C15      1.0000 0.33064  0.04410  0.59970  Biso   1.000  C
  C16      1.0000 0.83064  0.54410  0.59970  Biso   1.000  C
  C17      1.0000 0.31877  0.05310  0.05111  Biso   1.000  C
  C18      1.0000 0.81877  0.55310  0.05111  Biso   1.000  C
  C19      1.0000 0.68123  0.05310  0.44889  Biso   1.000  C
  C20      1.0000 0.18123  0.55310  0.44889  Biso   1.000  C
  C21      1.0000 0.68123  0.94690  0.94889  Biso   1.000  C
  C22      1.0000 0.18123  0.44690  0.94889  Biso   1.000  C
  C23      1.0000 0.31877  0.94690  0.55111  Biso   1.000  C
  C24      1.0000 0.81877  0.44690  0.55111  Biso   1.000  C
  H1       1.0000 0.33400  0.13900  0.06020  Biso   1.000  H
  H2       1.0000 0.83400  0.63900  0.06020  Biso   1.000  H
  H3       1.0000 0.66600  0.13900  0.43980  Biso   1.000  H
  H4       1.0000 0.16600  0.63900  0.43980  Biso   1.000  H
  H5       1.0000 0.66600  0.86100  0.93980  Biso   1.000  H
  H6       1.0000 0.16600  0.36100  0.93980  Biso   1.000  H
  H7       1.0000 0.33400  0.86100  0.56020  Biso   1.000  H
  H8       1.0000 0.83400  0.36100  0.56020  Biso   1.000  H
  C25      1.0000 0.28511  0.02580  0.98664  Biso   1.000  C
  C26      1.0000 0.78511  0.52580  0.98664  Biso   1.000  C
  C27      1.0000 0.71489  0.02580  0.51336  Biso   1.000  C
  C28      1.0000 0.21489  0.52580  0.51336  Biso   1.000  C
  C29      1.0000 0.71489  0.97420  0.01336  Biso   1.000  C
  C30      1.0000 0.21489  0.47420  0.01336  Biso   1.000  C
  C31      1.0000 0.28511  0.97420  0.48664  Biso   1.000  C
  C32      1.0000 0.78511  0.47420  0.48664  Biso   1.000  C
  C33      1.0000 0.27542  0.14640  0.94039  Biso   1.000  C
  C34      1.0000 0.77542  0.64640  0.94039  Biso   1.000  C
  C35      1.0000 0.72458  0.14640  0.55961  Biso   1.000  C
  C36      1.0000 0.22458  0.64640  0.55961  Biso   1.000  C
  C37      1.0000 0.72458  0.85360  0.05961  Biso   1.000  C
  C38      1.0000 0.22458  0.35360  0.05961  Biso   1.000  C
  C39      1.0000 0.27542  0.85360  0.44039  Biso   1.000  C
  C40      1.0000 0.77542  0.35360  0.44039  Biso   1.000  C
  F49      1.0000 0.22150  0.15660  0.89390  Biso   1.000  F
  F50      1.0000 0.72150  0.65660  0.89390  Biso   1.000  F
  F51      1.0000 0.77850  0.15660  0.60610  Biso   1.000  F
  F52      1.0000 0.27850  0.65660  0.60610  Biso   1.000  F
  F53      1.0000 0.77850  0.84340  0.10610  Biso   1.000  F
  F54      1.0000 0.27850  0.34340  0.10610  Biso   1.000  F
  F55      1.0000 0.22150  0.84340  0.39390  Biso   1.000  F
  F56      1.0000 0.72150  0.34340  0.39390  Biso   1.000  F
  F57      1.0000 0.28340  0.27490  0.96820  Biso   1.000  F
  F58      1.0000 0.78340  0.77490  0.96820  Biso   1.000  F
  F59      1.0000 0.71660  0.27490  0.53180  Biso   1.000  F
  F60      1.0000 0.21660  0.77490  0.53180  Biso   1.000  F
  F61      1.0000 0.71660  0.72510  0.03180  Biso   1.000  F
  F62      1.0000 0.21660  0.22510  0.03180  Biso   1.000  F
  F63      1.0000 0.28340  0.72510  0.46820  Biso   1.000  F
  F64      1.0000 0.78340  0.22510  0.46820  Biso   1.000  F
  F65      1.0000 0.30680  0.14450  0.92040  Biso   1.000  F
  F66      1.0000 0.80680  0.64450  0.92040  Biso   1.000  F
  F67      1.0000 0.69320  0.14450  0.57960  Biso   1.000  F
  F68      1.0000 0.19320  0.64450  0.57960  Biso   1.000  F
  F69      1.0000 0.69320  0.85550  0.07960  Biso   1.000  F
  F70      1.0000 0.19320  0.35550  0.07960  Biso   1.000  F
  F71      1.0000 0.30680  0.85550  0.42040  Biso   1.000  F
  F72      1.0000 0.80680  0.35550  0.42040  Biso   1.000  F
  F73      1.0000 0.23090  0.15320  0.89680  Biso   1.000  F
  F74      1.0000 0.73090  0.65320  0.89680  Biso   1.000  F
  F75      1.0000 0.76910  0.15320  0.60320  Biso   1.000  F
  F76      1.0000 0.26910  0.65320  0.60320  Biso   1.000  F
  F77      1.0000 0.76910  0.84680  0.10320  Biso   1.000  F
  F78      1.0000 0.26910  0.34680  0.10320  Biso   1.000  F
  F79      1.0000 0.23090  0.84680  0.39680  Biso   1.000  F
  F80      1.0000 0.73090  0.34680  0.39680  Biso   1.000  F
  F81      1.0000 0.29370  0.26320  0.96670  Biso   1.000  F
  F82      1.0000 0.79370  0.76320  0.96670  Biso   1.000  F
  F83      1.0000 0.70630  0.26320  0.53330  Biso   1.000  F
  F84      1.0000 0.20630  0.76320  0.53330  Biso   1.000  F
  F85      1.0000 0.70630  0.73680  0.03330  Biso   1.000  F
  F86      1.0000 0.20630  0.23680  0.03330  Biso   1.000  F
  F87      1.0000 0.29370  0.73680  0.46670  Biso   1.000  F
  F88      1.0000 0.79370  0.23680  0.46670  Biso   1.000  F
  F89      1.0000 0.29980  0.11330  0.90730  Biso   1.000  F
  F90      1.0000 0.79980  0.61330  0.90730  Biso   1.000  F
  F91      1.0000 0.70020  0.11330  0.59270  Biso   1.000  F
  F92      1.0000 0.20020  0.61330  0.59270  Biso   1.000  F
  F93      1.0000 0.70020  0.88670  0.09270  Biso   1.000  F
  F94      1.0000 0.20020  0.38670  0.09270  Biso   1.000  F
  F95      1.0000 0.29980  0.88670  0.40730  Biso   1.000  F
  F96      1.0000 0.79980  0.38670  0.40730  Biso   1.000  F
  O9       1.0000 0.26044  0.91529  0.95894  Biso   1.000  O
  O10      1.0000 0.76044  0.41529  0.95894  Biso   1.000  O
  O11      1.0000 0.73956  0.91529  0.54106  Biso   1.000  O
  O12      1.0000 0.23956  0.41529  0.54106  Biso   1.000  O
  O13      1.0000 0.73956  0.08471  0.04106  Biso   1.000  O
  O14      1.0000 0.23956  0.58471  0.04106  Biso   1.000  O
  O15      1.0000 0.26044  0.08471  0.45894  Biso   1.000  O
  O16      1.0000 0.76044  0.58471  0.45894  Biso   1.000  O
  Cu5      1.0000 0.00000  0.00000  0.00000  Biso   1.000  Cu
  Cu6      1.0000 0.50000  0.50000  0.00000  Biso   1.000  Cu
  Cu7      1.0000 0.00000  0.00000  0.50000  Biso   1.000  Cu
  Cu8      1.0000 0.50000  0.50000  0.50000  Biso   1.000  Cu
  O17      1.0000 0.99940  0.90806  0.07371  Biso   1.000  O
  O18      1.0000 0.49940  0.40806  0.07371  Biso   1.000  O
  O19      1.0000 0.00060  0.90806  0.42629  Biso   1.000  O
  O20      1.0000 0.50060  0.40806  0.42629  Biso   1.000  O
  O21      1.0000 0.00060  0.09194  0.92629  Biso   1.000  O
  O22      1.0000 0.50060  0.59194  0.92629  Biso   1.000  O
  O23      1.0000 0.99940  0.09194  0.57371  Biso   1.000  O
  O24      1.0000 0.49940  0.59194  0.57371  Biso   1.000  O
  C41      1.0000 0.00004  0.73560  0.14099  Biso   1.000  C
  C42      1.0000 0.50004  0.23560  0.14099  Biso   1.000  C
  C43      1.0000 0.99996  0.73560  0.35901  Biso   1.000  C
  C44      1.0000 0.49996  0.23560  0.35901  Biso   1.000  C
  C45      1.0000 0.99996  0.26440  0.85901  Biso   1.000  C
  C46      1.0000 0.49996  0.76440  0.85901  Biso   1.000  C
  C47      1.0000 0.00004  0.26440  0.64099  Biso   1.000  C
  C48      1.0000 0.50004  0.76440  0.64099  Biso   1.000  C
  F97      1.0000 0.01710  0.83440  0.18880  Biso   1.000  F
  F98      1.0000 0.51710  0.33440  0.18880  Biso   1.000  F
  F99      1.0000 0.98290  0.83440  0.31120  Biso   1.000  F
  F100     1.0000 0.48290  0.33440  0.31120  Biso   1.000  F
  F101     1.0000 0.98290  0.16560  0.81120  Biso   1.000  F
  F102     1.0000 0.48290  0.66560  0.81120  Biso   1.000  F
  F103     1.0000 0.01710  0.16560  0.68880  Biso   1.000  F
  F104     1.0000 0.51710  0.66560  0.68880  Biso   1.000  F
  F105     1.0000 0.01830  0.60200  0.15790  Biso   1.000  F
  F106     1.0000 0.51830  0.10200  0.15790  Biso   1.000  F
  F107     1.0000 0.98170  0.60200  0.34210  Biso   1.000  F
  F108     1.0000 0.48170  0.10200  0.34210  Biso   1.000  F
  F109     1.0000 0.98170  0.39800  0.84210  Biso   1.000  F
  F110     1.0000 0.48170  0.89800  0.84210  Biso   1.000  F
  F111     1.0000 0.01830  0.39800  0.65790  Biso   1.000  F
  F112     1.0000 0.51830  0.89800  0.65790  Biso   1.000  F
  F113     1.0000 0.94600  0.73800  0.11320  Biso   1.000  F
  F114     1.0000 0.44600  0.23800  0.11320  Biso   1.000  F
  F115     1.0000 0.05400  0.73800  0.38680  Biso   1.000  F
  F116     1.0000 0.55400  0.23800  0.38680  Biso   1.000  F
  F117     1.0000 0.05400  0.26200  0.88680  Biso   1.000  F
  F118     1.0000 0.55400  0.76200  0.88680  Biso   1.000  F
  F119     1.0000 0.94600  0.26200  0.61320  Biso   1.000  F
  F120     1.0000 0.44600  0.76200  0.61320  Biso   1.000  F
  F121     1.0000 0.01960  0.80370  0.19150  Biso   1.000  F
  F122     1.0000 0.51960  0.30370  0.19150  Biso   1.000  F
  F123     1.0000 0.98040  0.80370  0.30850  Biso   1.000  F
  F124     1.0000 0.48040  0.30370  0.30850  Biso   1.000  F
  F125     1.0000 0.98040  0.19630  0.80850  Biso   1.000  F
  F126     1.0000 0.48040  0.69630  0.80850  Biso   1.000  F
  F127     1.0000 0.01960  0.19630  0.69150  Biso   1.000  F
  F128     1.0000 0.51960  0.69630  0.69150  Biso   1.000  F
  F129     1.0000 0.02000  0.61670  0.17090  Biso   1.000  F
  F130     1.0000 0.52000  0.11670  0.17090  Biso   1.000  F
  F131     1.0000 0.98000  0.61670  0.32910  Biso   1.000  F
  F132     1.0000 0.48000  0.11670  0.32910  Biso   1.000  F
  F133     1.0000 0.98000  0.38330  0.82910  Biso   1.000  F
  F134     1.0000 0.48000  0.88330  0.82910  Biso   1.000  F
  F135     1.0000 0.02000  0.38330  0.67090  Biso   1.000  F
  F136     1.0000 0.52000  0.88330  0.67090  Biso   1.000  F
  F137     1.0000 0.95180  0.70800  0.11560  Biso   1.000  F
  F138     1.0000 0.45180  0.20800  0.11560  Biso   1.000  F
  F139     1.0000 0.04820  0.70800  0.38440  Biso   1.000  F
  F140     1.0000 0.54820  0.20800  0.38440  Biso   1.000  F
  F141     1.0000 0.04820  0.29200  0.88440  Biso   1.000  F
  F142     1.0000 0.54820  0.79200  0.88440  Biso   1.000  F
  F143     1.0000 0.95180  0.29200  0.61560  Biso   1.000  F
  F144     1.0000 0.45180  0.79200  0.61560  Biso   1.000  F
  C49      1.0000 0.01354  0.78520  0.09189  Biso   1.000  C
  C50      1.0000 0.51354  0.28520  0.09189  Biso   1.000  C
  C51      1.0000 0.98646  0.78520  0.40811  Biso   1.000  C
  C52      1.0000 0.48646  0.28520  0.40811  Biso   1.000  C
  C53      1.0000 0.98646  0.21480  0.90811  Biso   1.000  C
  C54      1.0000 0.48646  0.71480  0.90811  Biso   1.000  C
  C55      1.0000 0.01354  0.21480  0.59189  Biso   1.000  C
  C56      1.0000 0.51354  0.71480  0.59189  Biso   1.000  C
  C57      1.0000 0.03839  0.69260  0.07197  Biso   1.000  C
  C58      1.0000 0.53839  0.19260  0.07197  Biso   1.000  C
  C59      1.0000 0.96161  0.69260  0.42803  Biso   1.000  C
  C60      1.0000 0.46161  0.19260  0.42803  Biso   1.000  C
  C61      1.0000 0.96161  0.30740  0.92803  Biso   1.000  C
  C62      1.0000 0.46161  0.80740  0.92803  Biso   1.000  C
  C63      1.0000 0.03839  0.30740  0.57197  Biso   1.000  C
  C64      1.0000 0.53839  0.80740  0.57197  Biso   1.000  C
  H9       1.0000 0.04780  0.61000  0.08930  Biso   1.000  H
  H10      1.0000 0.54780  0.11000  0.08930  Biso   1.000  H
  H11      1.0000 0.95220  0.61000  0.41070  Biso   1.000  H
  H12      1.0000 0.45220  0.11000  0.41070  Biso   1.000  H
  H13      1.0000 0.95220  0.39000  0.91070  Biso   1.000  H
  H14      1.0000 0.45220  0.89000  0.91070  Biso   1.000  H
  H15      1.0000 0.04780  0.39000  0.58930  Biso   1.000  H
  H16      1.0000 0.54780  0.89000  0.58930  Biso   1.000  H
  C65      1.0000 0.04870  0.72710  0.02440  Biso   1.000  C
  C66      1.0000 0.54870  0.22710  0.02440  Biso   1.000  C
  C67      1.0000 0.95130  0.72710  0.47560  Biso   1.000  C
  C68      1.0000 0.45130  0.22710  0.47560  Biso   1.000  C
  C69      1.0000 0.95130  0.27290  0.97560  Biso   1.000  C
  C70      1.0000 0.45130  0.77290  0.97560  Biso   1.000  C
  C71      1.0000 0.04870  0.27290  0.52440  Biso   1.000  C
  C72      1.0000 0.54870  0.77290  0.52440  Biso   1.000  C
  C73      1.0000 0.07367  0.61670  0.00270  Biso   1.000  C
  C74      1.0000 0.57367  0.11670  0.00270  Biso   1.000  C
  C75      1.0000 0.92633  0.61670  0.49730  Biso   1.000  C
  C76      1.0000 0.42633  0.11670  0.49730  Biso   1.000  C
  C77      1.0000 0.92633  0.38330  0.99730  Biso   1.000  C
  C78      1.0000 0.42633  0.88330  0.99730  Biso   1.000  C
  C79      1.0000 0.07367  0.38330  0.50270  Biso   1.000  C
  C80      1.0000 0.57367  0.88330  0.50270  Biso   1.000  C
  F145     1.0000 0.07610  0.49300  0.02650  Biso   1.000  F
  F146     1.0000 0.57610  0.99300  0.02650  Biso   1.000  F
  F147     1.0000 0.92390  0.49300  0.47350  Biso   1.000  F
  F148     1.0000 0.42390  0.99300  0.47350  Biso   1.000  F
  F149     1.0000 0.92390  0.50700  0.97350  Biso   1.000  F
  F150     1.0000 0.42390  0.00700  0.97350  Biso   1.000  F
  F151     1.0000 0.07610  0.50700  0.52650  Biso   1.000  F
  F152     1.0000 0.57610  0.00700  0.52650  Biso   1.000  F
  F153     1.0000 0.11250  0.65720  0.00090  Biso   1.000  F
  F154     1.0000 0.61250  0.15720  0.00090  Biso   1.000  F
  F155     1.0000 0.88750  0.65720  0.49910  Biso   1.000  F
  F156     1.0000 0.38750  0.15720  0.49910  Biso   1.000  F
  F157     1.0000 0.88750  0.34280  0.99910  Biso   1.000  F
  F158     1.0000 0.38750  0.84280  0.99910  Biso   1.000  F
  F159     1.0000 0.11250  0.34280  0.50090  Biso   1.000  F
  F160     1.0000 0.61250  0.84280  0.50090  Biso   1.000  F
  F161     1.0000 0.03679  0.59320  0.93500  Biso   1.000  F
  F162     1.0000 0.53679  0.09320  0.93500  Biso   1.000  F
  F163     1.0000 0.96321  0.59320  0.56500  Biso   1.000  F
  F164     1.0000 0.46321  0.09320  0.56500  Biso   1.000  F
  F165     1.0000 0.96321  0.40680  0.06500  Biso   1.000  F
  F166     1.0000 0.46321  0.90680  0.06500  Biso   1.000  F
  F167     1.0000 0.03679  0.40680  0.43500  Biso   1.000  F
  F168     1.0000 0.53679  0.90680  0.43500  Biso   1.000  F
  F169     1.0000 0.13220  0.62680  0.05780  Biso   1.000  F
  F170     1.0000 0.63220  0.12680  0.05780  Biso   1.000  F
  F171     1.0000 0.86780  0.62680  0.44220  Biso   1.000  F
  F172     1.0000 0.36780  0.12680  0.44220  Biso   1.000  F
  F173     1.0000 0.86780  0.37320  0.94220  Biso   1.000  F
  F174     1.0000 0.36780  0.87320  0.94220  Biso   1.000  F
  F175     1.0000 0.13220  0.37320  0.55780  Biso   1.000  F
  F176     1.0000 0.63220  0.87320  0.55780  Biso   1.000  F
  F177     1.0000 0.07820  0.64030  0.96150  Biso   1.000  F
  F178     1.0000 0.57820  0.14030  0.96150  Biso   1.000  F
  F179     1.0000 0.92180  0.64030  0.53850  Biso   1.000  F
  F180     1.0000 0.42180  0.14030  0.53850  Biso   1.000  F
  F181     1.0000 0.92180  0.35970  0.03850  Biso   1.000  F
  F182     1.0000 0.42180  0.85970  0.03850  Biso   1.000  F
  F183     1.0000 0.07820  0.35970  0.46150  Biso   1.000  F
  F184     1.0000 0.57820  0.85970  0.46150  Biso   1.000  F
  F185     1.0000 0.07020  0.48960  0.01510  Biso   1.000  F
  F186     1.0000 0.57020  0.98960  0.01510  Biso   1.000  F
  F187     1.0000 0.92980  0.48960  0.48490  Biso   1.000  F
  F188     1.0000 0.42980  0.98960  0.48490  Biso   1.000  F
  F189     1.0000 0.92980  0.51040  0.98490  Biso   1.000  F
  F190     1.0000 0.42980  0.01040  0.98490  Biso   1.000  F
  F191     1.0000 0.07020  0.51040  0.51510  Biso   1.000  F
  F192     1.0000 0.57020  0.01040  0.51510  Biso   1.000  F
  O25      1.0000 0.03936  0.84015  0.99455  Biso   1.000  O
  O26      1.0000 0.53936  0.34015  0.99455  Biso   1.000  O
  O27      1.0000 0.96064  0.84015  0.50545  Biso   1.000  O
  O28      1.0000 0.46064  0.34015  0.50545  Biso   1.000  O
  O29      1.0000 0.96064  0.15985  0.00545  Biso   1.000  O
  O30      1.0000 0.46064  0.65985  0.00545  Biso   1.000  O
  O31      1.0000 0.03936  0.15985  0.49455  Biso   1.000  O
  O32      1.0000 0.53936  0.65985  0.49455  Biso   1.000  O
  O33      1.0000 0.07431  0.13003  0.05774  Biso   1.000  O
  O34      1.0000 0.57431  0.63003  0.05774  Biso   1.000  O
  O35      1.0000 0.92569  0.13003  0.44226  Biso   1.000  O
  O36      1.0000 0.42569  0.63003  0.44226  Biso   1.000  O
  O37      1.0000 0.92569  0.86997  0.94226  Biso   1.000  O
  O38      1.0000 0.42569  0.36997  0.94226  Biso   1.000  O
  O39      1.0000 0.07431  0.86997  0.55774  Biso   1.000  O
  O40      1.0000 0.57431  0.36997  0.55774  Biso   1.000  O
  N1       1.0000 0.11536  0.09266  0.11237  Biso   1.000  N
  N2       1.0000 0.61536  0.59266  0.11237  Biso   1.000  N
  N3       1.0000 0.88464  0.09266  0.38763  Biso   1.000  N
  N4       1.0000 0.38464  0.59266  0.38763  Biso   1.000  N
  N5       1.0000 0.88464  0.90734  0.88763  Biso   1.000  N
  N6       1.0000 0.38464  0.40734  0.88763  Biso   1.000  N
  N7       1.0000 0.11536  0.90734  0.61237  Biso   1.000  N
  N8       1.0000 0.61536  0.40734  0.61237  Biso   1.000  N
  C81      1.0000 0.12631  0.15490  0.17476  Biso   1.000  C
  C82      1.0000 0.62631  0.65490  0.17476  Biso   1.000  C
  C83      1.0000 0.87369  0.15490  0.32524  Biso   1.000  C
  C84      1.0000 0.37369  0.65490  0.32524  Biso   1.000  C
  C85      1.0000 0.87369  0.84510  0.82524  Biso   1.000  C
  C86      1.0000 0.37369  0.34510  0.82524  Biso   1.000  C
  C87      1.0000 0.12631  0.84510  0.67476  Biso   1.000  C
  C88      1.0000 0.62631  0.34510  0.67476  Biso   1.000  C
  C89      1.0000 0.14680  0.30370  0.17678  Biso   1.000  C
  C90      1.0000 0.64680  0.80370  0.17678  Biso   1.000  C
  C91      1.0000 0.85320  0.30370  0.32322  Biso   1.000  C
  C92      1.0000 0.35320  0.80370  0.32322  Biso   1.000  C
  C93      1.0000 0.85320  0.69630  0.82322  Biso   1.000  C
  C94      1.0000 0.35320  0.19630  0.82322  Biso   1.000  C
  C95      1.0000 0.14680  0.69630  0.67678  Biso   1.000  C
  C96      1.0000 0.64680  0.19630  0.67678  Biso   1.000  C
  H17      1.0000 0.11800  0.34900  0.14170  Biso   1.000  H
  H18      1.0000 0.61800  0.84900  0.14170  Biso   1.000  H
  H19      1.0000 0.88200  0.34900  0.35830  Biso   1.000  H
  H20      1.0000 0.38200  0.84900  0.35830  Biso   1.000  H
  H21      1.0000 0.88200  0.65100  0.85830  Biso   1.000  H
  H22      1.0000 0.38200  0.15100  0.85830  Biso   1.000  H
  H23      1.0000 0.11800  0.65100  0.64170  Biso   1.000  H
  H24      1.0000 0.61800  0.15100  0.64170  Biso   1.000  H
  H25      1.0000 0.17720  0.30400  0.17260  Biso   1.000  H
  H26      1.0000 0.67720  0.80400  0.17260  Biso   1.000  H
  H27      1.0000 0.82280  0.30400  0.32740  Biso   1.000  H
  H28      1.0000 0.32280  0.80400  0.32740  Biso   1.000  H
  H29      1.0000 0.82280  0.69600  0.82740  Biso   1.000  H
  H30      1.0000 0.32280  0.19600  0.82740  Biso   1.000  H
  H31      1.0000 0.17720  0.69600  0.67260  Biso   1.000  H
  H32      1.0000 0.67720  0.19600  0.67260  Biso   1.000  H
  H33      1.0000 0.15030  0.34700  0.21280  Biso   1.000  H
  H34      1.0000 0.65030  0.84700  0.21280  Biso   1.000  H
  H35      1.0000 0.84970  0.34700  0.28720  Biso   1.000  H
  H36      1.0000 0.34970  0.84700  0.28720  Biso   1.000  H
  H37      1.0000 0.84970  0.65300  0.78720  Biso   1.000  H
  H38      1.0000 0.34970  0.15300  0.78720  Biso   1.000  H
  H39      1.0000 0.15030  0.65300  0.71280  Biso   1.000  H
  H40      1.0000 0.65030  0.15300  0.71280  Biso   1.000  H
  C97      1.0000 0.07600  0.15880  0.17716  Biso   1.000  C
  C98      1.0000 0.57600  0.65880  0.17716  Biso   1.000  C
  C99      1.0000 0.92400  0.15880  0.32284  Biso   1.000  C
  C100     1.0000 0.42400  0.65880  0.32284  Biso   1.000  C
  C101     1.0000 0.92400  0.84120  0.82284  Biso   1.000  C
  C102     1.0000 0.42400  0.34120  0.82284  Biso   1.000  C
  C103     1.0000 0.07600  0.84120  0.67716  Biso   1.000  C
  C104     1.0000 0.57600  0.34120  0.67716  Biso   1.000  C
  H41      1.0000 0.04660  0.23400  0.14140  Biso   1.000  H
  H42      1.0000 0.54660  0.73400  0.14140  Biso   1.000  H
  H43      1.0000 0.95340  0.23400  0.35860  Biso   1.000  H
  H44      1.0000 0.45340  0.73400  0.35860  Biso   1.000  H
  H45      1.0000 0.95340  0.76600  0.85860  Biso   1.000  H
  H46      1.0000 0.45340  0.26600  0.85860  Biso   1.000  H
  H47      1.0000 0.04660  0.76600  0.64140  Biso   1.000  H
  H48      1.0000 0.54660  0.26600  0.64140  Biso   1.000  H
  H49      1.0000 0.08190  0.19800  0.21660  Biso   1.000  H
  H50      1.0000 0.58190  0.69800  0.21660  Biso   1.000  H
  H51      1.0000 0.91810  0.19800  0.28340  Biso   1.000  H
  H52      1.0000 0.41810  0.69800  0.28340  Biso   1.000  H
  H53      1.0000 0.91810  0.80200  0.78340  Biso   1.000  H
  H54      1.0000 0.41810  0.30200  0.78340  Biso   1.000  H
  H55      1.0000 0.08190  0.80200  0.71660  Biso   1.000  H
  H56      1.0000 0.58190  0.30200  0.71660  Biso   1.000  H
  H57      1.0000 0.05910  0.07800  0.17120  Biso   1.000  H
  H58      1.0000 0.55910  0.57800  0.17120  Biso   1.000  H
  H59      1.0000 0.94090  0.07800  0.32880  Biso   1.000  H
  H60      1.0000 0.44090  0.57800  0.32880  Biso   1.000  H
  H61      1.0000 0.94090  0.92200  0.82880  Biso   1.000  H
  H62      1.0000 0.44090  0.42200  0.82880  Biso   1.000  H
  H63      1.0000 0.05910  0.92200  0.67120  Biso   1.000  H
  H64      1.0000 0.55910  0.42200  0.67120  Biso   1.000  H
  C105     1.0000 0.16992  0.05250  0.22253  Biso   1.000  C
  C106     1.0000 0.66992  0.55250  0.22253  Biso   1.000  C
  C107     1.0000 0.83008  0.05250  0.27747  Biso   1.000  C
  C108     1.0000 0.33008  0.55250  0.27747  Biso   1.000  C
  C109     1.0000 0.83008  0.94750  0.77747  Biso   1.000  C
  C110     1.0000 0.33008  0.44750  0.77747  Biso   1.000  C
  C111     1.0000 0.16992  0.94750  0.72253  Biso   1.000  C
  C112     1.0000 0.66992  0.44750  0.72253  Biso   1.000  C
  C113     1.0000 0.14828  0.92080  0.23677  Biso   1.000  C
  C114     1.0000 0.64828  0.42080  0.23677  Biso   1.000  C
  C115     1.0000 0.85172  0.92080  0.26323  Biso   1.000  C
  C116     1.0000 0.35172  0.42080  0.26323  Biso   1.000  C
  C117     1.0000 0.85172  0.07920  0.76323  Biso   1.000  C
  C118     1.0000 0.35172  0.57920  0.76323  Biso   1.000  C
  C119     1.0000 0.14828  0.07920  0.73677  Biso   1.000  C
  C120     1.0000 0.64828  0.57920  0.73677  Biso   1.000  C
  H65      1.0000 0.17690  0.85800  0.25880  Biso   1.000  H
  H66      1.0000 0.67690  0.35800  0.25880  Biso   1.000  H
  H67      1.0000 0.82310  0.85800  0.24120  Biso   1.000  H
  H68      1.0000 0.32310  0.35800  0.24120  Biso   1.000  H
  H69      1.0000 0.82310  0.14200  0.74120  Biso   1.000  H
  H70      1.0000 0.32310  0.64200  0.74120  Biso   1.000  H
  H71      1.0000 0.17690  0.14200  0.75880  Biso   1.000  H
  H72      1.0000 0.67690  0.64200  0.75880  Biso   1.000  H
  H73      1.0000 0.12080  0.88000  0.19760  Biso   1.000  H
  H74      1.0000 0.62080  0.38000  0.19760  Biso   1.000  H
  H75      1.0000 0.87920  0.88000  0.30240  Biso   1.000  H
  H76      1.0000 0.37920  0.38000  0.30240  Biso   1.000  H
  H77      1.0000 0.87920  0.12000  0.80240  Biso   1.000  H
  H78      1.0000 0.37920  0.62000  0.80240  Biso   1.000  H
  H79      1.0000 0.12080  0.12000  0.69760  Biso   1.000  H
  H80      1.0000 0.62080  0.62000  0.69760  Biso   1.000  H
  H81      1.0000 0.13290  0.94600  0.26340  Biso   1.000  H
  H82      1.0000 0.63290  0.44600  0.26340  Biso   1.000  H
  H83      1.0000 0.86710  0.94600  0.23660  Biso   1.000  H
  H84      1.0000 0.36710  0.44600  0.23660  Biso   1.000  H
  H85      1.0000 0.86710  0.05400  0.73660  Biso   1.000  H
  H86      1.0000 0.36710  0.55400  0.73660  Biso   1.000  H
  H87      1.0000 0.13290  0.05400  0.76340  Biso   1.000  H
  H88      1.0000 0.63290  0.55400  0.76340  Biso   1.000  H
  C121     1.0000 0.21333  0.11980  0.28438  Biso   1.000  C
  C122     1.0000 0.71333  0.61980  0.28438  Biso   1.000  C
  C123     1.0000 0.78667  0.11980  0.21562  Biso   1.000  C
  C124     1.0000 0.28667  0.61980  0.21562  Biso   1.000  C
  C125     1.0000 0.78667  0.88020  0.71562  Biso   1.000  C
  C126     1.0000 0.28667  0.38020  0.71562  Biso   1.000  C
  C127     1.0000 0.21333  0.88020  0.78438  Biso   1.000  C
  C128     1.0000 0.71333  0.38020  0.78438  Biso   1.000  C
  H89      1.0000 0.23790  0.05100  0.30820  Biso   1.000  H
  H90      1.0000 0.73790  0.55100  0.30820  Biso   1.000  H
  H91      1.0000 0.76210  0.05100  0.19180  Biso   1.000  H
  H92      1.0000 0.26210  0.55100  0.19180  Biso   1.000  H
  H93      1.0000 0.76210  0.94900  0.69180  Biso   1.000  H
  H94      1.0000 0.26210  0.44900  0.69180  Biso   1.000  H
  H95      1.0000 0.23790  0.94900  0.80820  Biso   1.000  H
  H96      1.0000 0.73790  0.44900  0.80820  Biso   1.000  H
  H97      1.0000 0.19660  0.15100  0.30720  Biso   1.000  H
  H98      1.0000 0.69660  0.65100  0.30720  Biso   1.000  H
  H99      1.0000 0.80340  0.15100  0.19280  Biso   1.000  H
  H100     1.0000 0.30340  0.65100  0.19280  Biso   1.000  H
  H101     1.0000 0.80340  0.84900  0.69280  Biso   1.000  H
  H102     1.0000 0.30340  0.34900  0.69280  Biso   1.000  H
  H103     1.0000 0.19660  0.84900  0.80720  Biso   1.000  H
  H104     1.0000 0.69660  0.34900  0.80720  Biso   1.000  H
  H105     1.0000 0.22960  0.19900  0.27530  Biso   1.000  H
  H106     1.0000 0.72960  0.69900  0.27530  Biso   1.000  H
  H107     1.0000 0.77040  0.19900  0.22470  Biso   1.000  H
  H108     1.0000 0.27040  0.69900  0.22470  Biso   1.000  H
  H109     1.0000 0.77040  0.80100  0.72470  Biso   1.000  H
  H110     1.0000 0.27040  0.30100  0.72470  Biso   1.000  H
  H111     1.0000 0.22960  0.80100  0.77530  Biso   1.000  H
  H112     1.0000 0.72960  0.30100  0.77530  Biso   1.000  H
  N9       1.0000 0.19225  0.00475  0.18269  Biso   1.000  N
  N10      1.0000 0.69225  0.50475  0.18269  Biso   1.000  N
  N11      1.0000 0.80775  0.00475  0.31731  Biso   1.000  N
  N12      1.0000 0.30775  0.50475  0.31731  Biso   1.000  N
  N13      1.0000 0.80775  0.99525  0.81731  Biso   1.000  N
  N14      1.0000 0.30775  0.49525  0.81731  Biso   1.000  N
  N15      1.0000 0.19225  0.99525  0.68269  Biso   1.000  N
  N16      1.0000 0.69225  0.49525  0.68269  Biso   1.000  N
  O41      1.0000 0.23647  0.94210  0.20663  Biso   1.000  O
  O42      1.0000 0.73647  0.44210  0.20663  Biso   1.000  O
  O43      1.0000 0.76353  0.94210  0.29337  Biso   1.000  O
  O44      1.0000 0.26353  0.44210  0.29337  Biso   1.000  O
  O45      1.0000 0.76353  0.05790  0.79337  Biso   1.000  O
  O46      1.0000 0.26353  0.55790  0.79337  Biso   1.000  O
  O47      1.0000 0.23647  0.05790  0.70663  Biso   1.000  O
  O48      1.0000 0.73647  0.55790  0.70663  Biso   1.000  O
  C129     1.0000 0.15676  0.02010  0.11935  Biso   1.000  C
  C130     1.0000 0.65676  0.52010  0.11935  Biso   1.000  C
  C131     1.0000 0.84324  0.02010  0.38065  Biso   1.000  C
  C132     1.0000 0.34324  0.52010  0.38065  Biso   1.000  C
  C133     1.0000 0.84324  0.97990  0.88065  Biso   1.000  C
  C134     1.0000 0.34324  0.47990  0.88065  Biso   1.000  C
  C135     1.0000 0.15676  0.97990  0.61935  Biso   1.000  C
  C136     1.0000 0.65676  0.47990  0.61935  Biso   1.000  C
  C137     1.0000 0.16340  0.97116  0.06845  Biso   1.000  C
  C138     1.0000 0.66340  0.47116  0.06845  Biso   1.000  C
  C139     1.0000 0.83660  0.97116  0.43155  Biso   1.000  C
  C140     1.0000 0.33660  0.47116  0.43155  Biso   1.000  C
  C141     1.0000 0.83660  0.02884  0.93155  Biso   1.000  C
  C142     1.0000 0.33660  0.52884  0.93155  Biso   1.000  C
  C143     1.0000 0.16340  0.02884  0.56845  Biso   1.000  C
  C144     1.0000 0.66340  0.52884  0.56845  Biso   1.000  C
  C145     1.0000 0.20360  0.88620  0.07239  Biso   1.000  C
  C146     1.0000 0.70360  0.38620  0.07239  Biso   1.000  C
  C147     1.0000 0.79640  0.88620  0.42761  Biso   1.000  C
  C148     1.0000 0.29640  0.38620  0.42761  Biso   1.000  C
  C149     1.0000 0.79640  0.11380  0.92761  Biso   1.000  C
  C150     1.0000 0.29640  0.61380  0.92761  Biso   1.000  C
  C151     1.0000 0.20360  0.11380  0.57239  Biso   1.000  C
  C152     1.0000 0.70360  0.61380  0.57239  Biso   1.000  C
  H113     1.0000 0.23270  0.84400  0.11010  Biso   1.000  H
  H114     1.0000 0.73270  0.34400  0.11010  Biso   1.000  H
  H115     1.0000 0.76730  0.84400  0.38990  Biso   1.000  H
  H116     1.0000 0.26730  0.34400  0.38990  Biso   1.000  H
  H117     1.0000 0.76730  0.15600  0.88990  Biso   1.000  H
  H118     1.0000 0.26730  0.65600  0.88990  Biso   1.000  H
  H119     1.0000 0.23270  0.15600  0.61010  Biso   1.000  H
  H120     1.0000 0.73270  0.65600  0.61010  Biso   1.000  H
  N17      1.0000 0.19758  0.86786  0.01513  Biso   1.000  N
  N18      1.0000 0.69758  0.36786  0.01513  Biso   1.000  N
  N19      1.0000 0.80242  0.86786  0.48487  Biso   1.000  N
  N20      1.0000 0.30242  0.36786  0.48487  Biso   1.000  N
  N21      1.0000 0.80242  0.13214  0.98487  Biso   1.000  N
  N22      1.0000 0.30242  0.63214  0.98487  Biso   1.000  N
  N23      1.0000 0.19758  0.13214  0.51513  Biso   1.000  N
  N24      1.0000 0.69758  0.63214  0.51513  Biso   1.000  N
  N25      1.0000 0.15301  0.94227  0.97341  Biso   1.000  N
  N26      1.0000 0.65301  0.44227  0.97341  Biso   1.000  N
  N27      1.0000 0.84699  0.94227  0.52659  Biso   1.000  N
  N28      1.0000 0.34699  0.44227  0.52659  Biso   1.000  N
  N29      1.0000 0.84699  0.05773  0.02659  Biso   1.000  N
  N30      1.0000 0.34699  0.55773  0.02659  Biso   1.000  N
  N31      1.0000 0.15301  0.05773  0.47341  Biso   1.000  N
  N32      1.0000 0.65301  0.55773  0.47341  Biso   1.000  N
  C153     1.0000 0.13279  0.95170  0.90451  Biso   1.000  C
  C154     1.0000 0.63279  0.45170  0.90451  Biso   1.000  C
  C155     1.0000 0.86721  0.95170  0.59549  Biso   1.000  C
  C156     1.0000 0.36721  0.45170  0.59549  Biso   1.000  C
  C157     1.0000 0.86721  0.04830  0.09549  Biso   1.000  C
  C158     1.0000 0.36721  0.54830  0.09549  Biso   1.000  C
  C159     1.0000 0.13279  0.04830  0.40451  Biso   1.000  C
  C160     1.0000 0.63279  0.54830  0.40451  Biso   1.000  C
  H121     1.0000 0.15730  0.90700  0.89530  Biso   1.000  H
  H122     1.0000 0.65730  0.40700  0.89530  Biso   1.000  H
  H123     1.0000 0.84270  0.90700  0.60470  Biso   1.000  H
  H124     1.0000 0.34270  0.40700  0.60470  Biso   1.000  H
  H125     1.0000 0.84270  0.09300  0.10470  Biso   1.000  H
  H126     1.0000 0.34270  0.59300  0.10470  Biso   1.000  H
  H127     1.0000 0.15730  0.09300  0.39530  Biso   1.000  H
  H128     1.0000 0.65730  0.59300  0.39530  Biso   1.000  H
  H129     1.0000 0.12800  0.04500  0.89360  Biso   1.000  H
  H130     1.0000 0.62800  0.54500  0.89360  Biso   1.000  H
  H131     1.0000 0.87200  0.04500  0.60640  Biso   1.000  H
  H132     1.0000 0.37200  0.54500  0.60640  Biso   1.000  H
  H133     1.0000 0.87200  0.95500  0.10640  Biso   1.000  H
  H134     1.0000 0.37200  0.45500  0.10640  Biso   1.000  H
  H135     1.0000 0.12800  0.95500  0.39360  Biso   1.000  H
  H136     1.0000 0.62800  0.45500  0.39360  Biso   1.000  H
  C161     1.0000 0.07933  0.88160  0.86508  Biso   1.000  C
  C162     1.0000 0.57933  0.38160  0.86508  Biso   1.000  C
  C163     1.0000 0.92067  0.88160  0.63492  Biso   1.000  C
  C164     1.0000 0.42067  0.38160  0.63492  Biso   1.000  C
  C165     1.0000 0.92067  0.11840  0.13492  Biso   1.000  C
  C166     1.0000 0.42067  0.61840  0.13492  Biso   1.000  C
  C167     1.0000 0.07933  0.11840  0.36508  Biso   1.000  C
  C168     1.0000 0.57933  0.61840  0.36508  Biso   1.000  C
  H137     1.0000 0.06620  0.89500  0.81960  Biso   1.000  H
  H138     1.0000 0.56620  0.39500  0.81960  Biso   1.000  H
  H139     1.0000 0.93380  0.89500  0.68040  Biso   1.000  H
  H140     1.0000 0.43380  0.39500  0.68040  Biso   1.000  H
  H141     1.0000 0.93380  0.10500  0.18040  Biso   1.000  H
  H142     1.0000 0.43380  0.60500  0.18040  Biso   1.000  H
  H143     1.0000 0.06620  0.10500  0.31960  Biso   1.000  H
  H144     1.0000 0.56620  0.60500  0.31960  Biso   1.000  H
  H145     1.0000 0.05280  0.92100  0.87200  Biso   1.000  H
  H146     1.0000 0.55280  0.42100  0.87200  Biso   1.000  H
  H147     1.0000 0.94720  0.92100  0.62800  Biso   1.000  H
  H148     1.0000 0.44720  0.42100  0.62800  Biso   1.000  H
  H149     1.0000 0.94720  0.07900  0.12800  Biso   1.000  H
  H150     1.0000 0.44720  0.57900  0.12800  Biso   1.000  H
  H151     1.0000 0.05280  0.07900  0.37200  Biso   1.000  H
  H152     1.0000 0.55280  0.57900  0.37200  Biso   1.000  H
  H153     1.0000 0.08220  0.77000  0.87500  Biso   1.000  H
  H154     1.0000 0.58220  0.27000  0.87500  Biso   1.000  H
  H155     1.0000 0.91780  0.77000  0.62500  Biso   1.000  H
  H156     1.0000 0.41780  0.27000  0.62500  Biso   1.000  H
  H157     1.0000 0.91780  0.23000  0.12500  Biso   1.000  H
  H158     1.0000 0.41780  0.73000  0.12500  Biso   1.000  H
  H159     1.0000 0.08220  0.23000  0.37500  Biso   1.000  H
  H160     1.0000 0.58220  0.73000  0.37500  Biso   1.000  H
  C169     1.0000 0.13175  0.00420  0.00386  Biso   1.000  C
  C170     1.0000 0.63175  0.50420  0.00386  Biso   1.000  C
  C171     1.0000 0.86825  0.00420  0.49614  Biso   1.000  C
  C172     1.0000 0.36825  0.50420  0.49614  Biso   1.000  C
  C173     1.0000 0.86825  0.99580  0.99614  Biso   1.000  C
  C174     1.0000 0.36825  0.49580  0.99614  Biso   1.000  C
  C175     1.0000 0.13175  0.99580  0.50386  Biso   1.000  C
  C176     1.0000 0.63175  0.49580  0.50386  Biso   1.000  C
  H161     1.0000 0.10250  0.06500  0.98280  Biso   1.000  H
  H162     1.0000 0.60250  0.56500  0.98280  Biso   1.000  H
  H163     1.0000 0.89750  0.06500  0.51720  Biso   1.000  H
  H164     1.0000 0.39750  0.56500  0.51720  Biso   1.000  H
  H165     1.0000 0.89750  0.93500  0.01720  Biso   1.000  H
  H166     1.0000 0.39750  0.43500  0.01720  Biso   1.000  H
  H167     1.0000 0.10250  0.93500  0.48280  Biso   1.000  H
  H168     1.0000 0.60250  0.43500  0.48280  Biso   1.000  H
