data_image0
_cell_length_a       29.968
_cell_length_b       9.654
_cell_length_c       25.006
_cell_angle_alpha    90
_cell_angle_beta     125.44
_cell_angle_gamma    90

_symmetry_space_group_name_H-M    "P 1"
_symmetry_int_tables_number       1

loop_
  _symmetry_equiv_pos_as_xyz
  'x, y, z'

loop_
  _atom_site_label
  _atom_site_occupancy
  _atom_site_fract_x
  _atom_site_fract_y
  _atom_site_fract_z
  _atom_site_thermal_displace_type
  _atom_site_B_iso_or_equiv
  _atom_site_type_symbol
  Cu1      1.0000 0.25000  0.25000  0.50000  Biso   1.000  Cu
  Cu2      1.0000 0.75000  0.75000  0.50000  Biso   1.000  Cu
  Cu3      1.0000 0.75000  0.25000  0.00000  Biso   1.000  Cu
  Cu4      1.0000 0.25000  0.75000  0.00000  Biso   1.000  Cu
  O1       1.0000 0.29203  0.09880  0.49689  Biso   1.000  O
  O2       1.0000 0.79203  0.59880  0.49689  Biso   1.000  O
  O3       1.0000 0.70797  0.09880  0.00311  Biso   1.000  O
  O4       1.0000 0.20797  0.59880  0.00311  Biso   1.000  O
  O5       1.0000 0.70797  0.90120  0.50311  Biso   1.000  O
  O6       1.0000 0.20797  0.40120  0.50311  Biso   1.000  O
  O7       1.0000 0.29203  0.90120  0.99689  Biso   1.000  O
  O8       1.0000 0.79203  0.40120  0.99689  Biso   1.000  O
  C1       1.0000 0.32263  0.87980  0.49430  Biso   1.000  C
  C2       1.0000 0.82263  0.37980  0.49430  Biso   1.000  C
  C3       1.0000 0.67737  0.87980  0.00570  Biso   1.000  C
  C4       1.0000 0.17737  0.37980  0.00570  Biso   1.000  C
  C5       1.0000 0.67737  0.12020  0.50570  Biso   1.000  C
  C6       1.0000 0.17737  0.62020  0.50570  Biso   1.000  C
  C7       1.0000 0.32263  0.12020  0.99430  Biso   1.000  C
  C8       1.0000 0.82263  0.62020  0.99430  Biso   1.000  C
  F1       1.0000 0.30848  0.74960  0.48465  Biso   1.000  F
  F2       1.0000 0.80848  0.24960  0.48465  Biso   1.000  F
  F3       1.0000 0.69152  0.74960  0.01535  Biso   1.000  F
  F4       1.0000 0.19152  0.24960  0.01535  Biso   1.000  F
  F5       1.0000 0.69152  0.25040  0.51535  Biso   1.000  F
  F6       1.0000 0.19152  0.75040  0.51535  Biso   1.000  F
  F7       1.0000 0.30848  0.25040  0.98465  Biso   1.000  F
  F8       1.0000 0.80848  0.75040  0.98465  Biso   1.000  F
  F9       1.0000 0.36022  0.88910  0.55700  Biso   1.000  F
  F10      1.0000 0.86022  0.38910  0.55700  Biso   1.000  F
  F11      1.0000 0.63978  0.88910  0.94300  Biso   1.000  F
  F12      1.0000 0.13978  0.38910  0.94300  Biso   1.000  F
  F13      1.0000 0.63978  0.11090  0.44300  Biso   1.000  F
  F14      1.0000 0.13978  0.61090  0.44300  Biso   1.000  F
  F15      1.0000 0.36022  0.11090  0.05700  Biso   1.000  F
  F16      1.0000 0.86022  0.61090  0.05700  Biso   1.000  F
  F17      1.0000 0.34612  0.90250  0.46540  Biso   1.000  F
  F18      1.0000 0.84612  0.40250  0.46540  Biso   1.000  F
  F19      1.0000 0.65388  0.90250  0.03460  Biso   1.000  F
  F20      1.0000 0.15388  0.40250  0.03460  Biso   1.000  F
  F21      1.0000 0.65388  0.09750  0.53460  Biso   1.000  F
  F22      1.0000 0.15388  0.59750  0.53460  Biso   1.000  F
  F23      1.0000 0.34612  0.09750  0.96540  Biso   1.000  F
  F24      1.0000 0.84612  0.59750  0.96540  Biso   1.000  F
  C9       1.0000 0.27595  0.98050  0.47193  Biso   1.000  C
  C10      1.0000 0.77595  0.48050  0.47193  Biso   1.000  C
  C11      1.0000 0.72405  0.98050  0.02807  Biso   1.000  C
  C12      1.0000 0.22405  0.48050  0.02807  Biso   1.000  C
  C13      1.0000 0.72405  0.01950  0.52807  Biso   1.000  C
  C14      1.0000 0.22405  0.51950  0.52807  Biso   1.000  C
  C15      1.0000 0.27595  0.01950  0.97193  Biso   1.000  C
  C16      1.0000 0.77595  0.51950  0.97193  Biso   1.000  C
  C17      1.0000 0.22280  0.93250  0.42696  Biso   1.000  C
  C18      1.0000 0.72280  0.43250  0.42696  Biso   1.000  C
  C19      1.0000 0.77720  0.93250  0.07304  Biso   1.000  C
  C20      1.0000 0.27720  0.43250  0.07304  Biso   1.000  C
  C21      1.0000 0.77720  0.06750  0.57304  Biso   1.000  C
  C22      1.0000 0.27720  0.56750  0.57304  Biso   1.000  C
  C23      1.0000 0.22280  0.06750  0.92696  Biso   1.000  C
  C24      1.0000 0.72280  0.56750  0.92696  Biso   1.000  C
  H1       1.0000 0.21710  0.83800  0.41300  Biso   1.000  H
  H2       1.0000 0.71710  0.33800  0.41300  Biso   1.000  H
  H3       1.0000 0.78290  0.83800  0.08700  Biso   1.000  H
  H4       1.0000 0.28290  0.33800  0.08700  Biso   1.000  H
  H5       1.0000 0.78290  0.16200  0.58700  Biso   1.000  H
  H6       1.0000 0.28290  0.66200  0.58700  Biso   1.000  H
  H7       1.0000 0.21710  0.16200  0.91300  Biso   1.000  H
  H8       1.0000 0.71710  0.66200  0.91300  Biso   1.000  H
  C25      1.0000 0.17697  0.01870  0.40214  Biso   1.000  C
  C26      1.0000 0.67697  0.51870  0.40214  Biso   1.000  C
  C27      1.0000 0.82303  0.01870  0.09786  Biso   1.000  C
  C28      1.0000 0.32303  0.51870  0.09786  Biso   1.000  C
  C29      1.0000 0.82303  0.98130  0.59786  Biso   1.000  C
  C30      1.0000 0.32303  0.48130  0.59786  Biso   1.000  C
  C31      1.0000 0.17697  0.98130  0.90214  Biso   1.000  C
  C32      1.0000 0.67697  0.48130  0.90214  Biso   1.000  C
  C33      1.0000 0.12061  0.95210  0.35570  Biso   1.000  C
  C34      1.0000 0.62061  0.45210  0.35570  Biso   1.000  C
  C35      1.0000 0.87939  0.95210  0.14430  Biso   1.000  C
  C36      1.0000 0.37939  0.45210  0.14430  Biso   1.000  C
  C37      1.0000 0.87939  0.04790  0.64430  Biso   1.000  C
  C38      1.0000 0.37939  0.54790  0.64430  Biso   1.000  C
  C39      1.0000 0.12061  0.04790  0.85570  Biso   1.000  C
  C40      1.0000 0.62061  0.54790  0.85570  Biso   1.000  C
  F25      1.0000 0.12098  0.82510  0.33600  Biso   1.000  F
  F26      1.0000 0.62098  0.32510  0.33600  Biso   1.000  F
  F27      1.0000 0.87902  0.82510  0.16400  Biso   1.000  F
  F28      1.0000 0.37902  0.32510  0.16400  Biso   1.000  F
  F29      1.0000 0.87902  0.17490  0.66400  Biso   1.000  F
  F30      1.0000 0.37902  0.67490  0.66400  Biso   1.000  F
  F31      1.0000 0.12098  0.17490  0.83600  Biso   1.000  F
  F32      1.0000 0.62098  0.67490  0.83600  Biso   1.000  F
  F33      1.0000 0.09468  0.94550  0.38469  Biso   1.000  F
  F34      1.0000 0.59468  0.44550  0.38469  Biso   1.000  F
  F35      1.0000 0.90532  0.94550  0.11531  Biso   1.000  F
  F36      1.0000 0.40532  0.44550  0.11531  Biso   1.000  F
  F37      1.0000 0.90532  0.05450  0.61531  Biso   1.000  F
  F38      1.0000 0.40532  0.55450  0.61531  Biso   1.000  F
  F39      1.0000 0.09468  0.05450  0.88469  Biso   1.000  F
  F40      1.0000 0.59468  0.55450  0.88469  Biso   1.000  F
  F41      1.0000 0.08921  0.02810  0.30178  Biso   1.000  F
  F42      1.0000 0.58921  0.52810  0.30178  Biso   1.000  F
  F43      1.0000 0.91079  0.02810  0.19822  Biso   1.000  F
  F44      1.0000 0.41079  0.52810  0.19822  Biso   1.000  F
  F45      1.0000 0.91079  0.97190  0.69822  Biso   1.000  F
  F46      1.0000 0.41079  0.47190  0.69822  Biso   1.000  F
  F47      1.0000 0.08921  0.97190  0.80178  Biso   1.000  F
  F48      1.0000 0.58921  0.47190  0.80178  Biso   1.000  F
  O9       1.0000 0.17585  0.14250  0.41349  Biso   1.000  O
  O10      1.0000 0.67585  0.64250  0.41349  Biso   1.000  O
  O11      1.0000 0.82415  0.14250  0.08651  Biso   1.000  O
  O12      1.0000 0.32415  0.64250  0.08651  Biso   1.000  O
  O13      1.0000 0.82415  0.85750  0.58651  Biso   1.000  O
  O14      1.0000 0.32415  0.35750  0.58651  Biso   1.000  O
  O15      1.0000 0.17585  0.85750  0.91349  Biso   1.000  O
  O16      1.0000 0.67585  0.35750  0.91349  Biso   1.000  O
  Cu5      1.0000 0.50000  0.00000  0.50000  Biso   1.000  Cu
  Cu6      1.0000 0.00000  0.50000  0.50000  Biso   1.000  Cu
  Cu7      1.0000 0.50000  0.00000  0.00000  Biso   1.000  Cu
  Cu8      1.0000 0.00000  0.50000  0.00000  Biso   1.000  Cu
  O17      1.0000 0.52568  0.93520  0.58769  Biso   1.000  O
  O18      1.0000 0.02568  0.43520  0.58769  Biso   1.000  O
  O19      1.0000 0.47432  0.93520  0.91231  Biso   1.000  O
  O20      1.0000 0.97432  0.43520  0.91231  Biso   1.000  O
  O21      1.0000 0.47432  0.06480  0.41231  Biso   1.000  O
  O22      1.0000 0.97432  0.56480  0.41231  Biso   1.000  O
  O23      1.0000 0.52568  0.06480  0.08769  Biso   1.000  O
  O24      1.0000 0.02568  0.56480  0.08769  Biso   1.000  O
  C41      1.0000 0.54242  0.79270  0.67265  Biso   1.000  C
  C42      1.0000 0.04242  0.29270  0.67265  Biso   1.000  C
  C43      1.0000 0.45758  0.79270  0.82735  Biso   1.000  C
  C44      1.0000 0.95758  0.29270  0.82735  Biso   1.000  C
  C45      1.0000 0.45758  0.20730  0.32735  Biso   1.000  C
  C46      1.0000 0.95758  0.70730  0.32735  Biso   1.000  C
  C47      1.0000 0.54242  0.20730  0.17265  Biso   1.000  C
  C48      1.0000 0.04242  0.70730  0.17265  Biso   1.000  C
  F49      1.0000 0.59496  0.79030  0.70231  Biso   1.000  F
  F50      1.0000 0.09496  0.29030  0.70231  Biso   1.000  F
  F51      1.0000 0.40504  0.79030  0.79769  Biso   1.000  F
  F52      1.0000 0.90504  0.29030  0.79769  Biso   1.000  F
  F53      1.0000 0.40504  0.20970  0.29769  Biso   1.000  F
  F54      1.0000 0.90504  0.70970  0.29769  Biso   1.000  F
  F55      1.0000 0.59496  0.20970  0.20231  Biso   1.000  F
  F56      1.0000 0.09496  0.70970  0.20231  Biso   1.000  F
  F57      1.0000 0.52842  0.68110  0.68581  Biso   1.000  F
  F58      1.0000 0.02842  0.18110  0.68581  Biso   1.000  F
  F59      1.0000 0.47158  0.68110  0.81419  Biso   1.000  F
  F60      1.0000 0.97158  0.18110  0.81419  Biso   1.000  F
  F61      1.0000 0.47158  0.31890  0.31419  Biso   1.000  F
  F62      1.0000 0.97158  0.81890  0.31419  Biso   1.000  F
  F63      1.0000 0.52842  0.31890  0.18581  Biso   1.000  F
  F64      1.0000 0.02842  0.81890  0.18581  Biso   1.000  F
  F65      1.0000 0.53834  0.90010  0.70418  Biso   1.000  F
  F66      1.0000 0.03834  0.40010  0.70418  Biso   1.000  F
  F67      1.0000 0.46166  0.90010  0.79582  Biso   1.000  F
  F68      1.0000 0.96166  0.40010  0.79582  Biso   1.000  F
  F69      1.0000 0.46166  0.09990  0.29582  Biso   1.000  F
  F70      1.0000 0.96166  0.59990  0.29582  Biso   1.000  F
  F71      1.0000 0.53834  0.09990  0.20418  Biso   1.000  F
  F72      1.0000 0.03834  0.59990  0.20418  Biso   1.000  F
  C49      1.0000 0.51255  0.82260  0.59916  Biso   1.000  C
  C50      1.0000 0.01255  0.32260  0.59916  Biso   1.000  C
  C51      1.0000 0.48745  0.82260  0.90084  Biso   1.000  C
  C52      1.0000 0.98745  0.32260  0.90084  Biso   1.000  C
  C53      1.0000 0.48745  0.17740  0.40084  Biso   1.000  C
  C54      1.0000 0.98745  0.67740  0.40084  Biso   1.000  C
  C55      1.0000 0.51255  0.17740  0.09916  Biso   1.000  C
  C56      1.0000 0.01255  0.67740  0.09916  Biso   1.000  C
  C57      1.0000 0.47677  0.72430  0.55490  Biso   1.000  C
  C58      1.0000 0.97677  0.22430  0.55490  Biso   1.000  C
  C59      1.0000 0.52323  0.72430  0.94510  Biso   1.000  C
  C60      1.0000 0.02323  0.22430  0.94510  Biso   1.000  C
  C61      1.0000 0.52323  0.27570  0.44510  Biso   1.000  C
  C62      1.0000 0.02323  0.77570  0.44510  Biso   1.000  C
  C63      1.0000 0.47677  0.27570  0.05490  Biso   1.000  C
  C64      1.0000 0.97677  0.77570  0.05490  Biso   1.000  C
  H9       1.0000 0.47100  0.66800  0.56800  Biso   1.000  H
  H10      1.0000 0.97100  0.16800  0.56800  Biso   1.000  H
  H11      1.0000 0.52900  0.66800  0.93200  Biso   1.000  H
  H12      1.0000 0.02900  0.16800  0.93200  Biso   1.000  H
  H13      1.0000 0.52900  0.33200  0.43200  Biso   1.000  H
  H14      1.0000 0.02900  0.83200  0.43200  Biso   1.000  H
  H15      1.0000 0.47100  0.33200  0.06800  Biso   1.000  H
  H16      1.0000 0.97100  0.83200  0.06800  Biso   1.000  H
  C65      1.0000 0.44814  0.74230  0.48771  Biso   1.000  C
  C66      1.0000 0.94814  0.24230  0.48771  Biso   1.000  C
  C67      1.0000 0.55186  0.74230  0.01229  Biso   1.000  C
  C68      1.0000 0.05186  0.24230  0.01229  Biso   1.000  C
  C69      1.0000 0.55186  0.25770  0.51229  Biso   1.000  C
  C70      1.0000 0.05186  0.75770  0.51229  Biso   1.000  C
  C71      1.0000 0.44814  0.25770  0.98771  Biso   1.000  C
  C72      1.0000 0.94814  0.75770  0.98771  Biso   1.000  C
  C73      1.0000 0.41270  0.62080  0.44390  Biso   1.000  C
  C74      1.0000 0.91270  0.12080  0.44390  Biso   1.000  C
  C75      1.0000 0.58730  0.62080  0.05610  Biso   1.000  C
  C76      1.0000 0.08730  0.12080  0.05610  Biso   1.000  C
  C77      1.0000 0.58730  0.37920  0.55610  Biso   1.000  C
  C78      1.0000 0.08730  0.87920  0.55610  Biso   1.000  C
  C79      1.0000 0.41270  0.37920  0.94390  Biso   1.000  C
  C80      1.0000 0.91270  0.87920  0.94390  Biso   1.000  C
  F73      1.0000 0.43481  0.50600  0.46173  Biso   1.000  F
  F74      1.0000 0.93481  0.00600  0.46173  Biso   1.000  F
  F75      1.0000 0.56519  0.50600  0.03827  Biso   1.000  F
  F76      1.0000 0.06519  0.00600  0.03827  Biso   1.000  F
  F77      1.0000 0.56519  0.49400  0.53827  Biso   1.000  F
  F78      1.0000 0.06519  0.99400  0.53827  Biso   1.000  F
  F79      1.0000 0.43481  0.49400  0.96173  Biso   1.000  F
  F80      1.0000 0.93481  0.99400  0.96173  Biso   1.000  F
  F81      1.0000 0.37569  0.58920  0.47050  Biso   1.000  F
  F82      1.0000 0.87569  0.08920  0.47050  Biso   1.000  F
  F83      1.0000 0.62431  0.58920  0.02950  Biso   1.000  F
  F84      1.0000 0.12431  0.08920  0.02950  Biso   1.000  F
  F85      1.0000 0.62431  0.41080  0.52950  Biso   1.000  F
  F86      1.0000 0.12431  0.91080  0.52950  Biso   1.000  F
  F87      1.0000 0.37569  0.41080  0.97050  Biso   1.000  F
  F88      1.0000 0.87569  0.91080  0.97050  Biso   1.000  F
  F89      1.0000 0.36901  0.64790  0.39606  Biso   1.000  F
  F90      1.0000 0.86901  0.14790  0.39606  Biso   1.000  F
  F91      1.0000 0.63099  0.64790  0.10394  Biso   1.000  F
  F92      1.0000 0.13099  0.14790  0.10394  Biso   1.000  F
  F93      1.0000 0.63099  0.35210  0.60394  Biso   1.000  F
  F94      1.0000 0.13099  0.85210  0.60394  Biso   1.000  F
  F95      1.0000 0.36901  0.35210  0.89606  Biso   1.000  F
  F96      1.0000 0.86901  0.85210  0.89606  Biso   1.000  F
  O25      1.0000 0.44887  0.84260  0.45713  Biso   1.000  O
  O26      1.0000 0.94887  0.34260  0.45713  Biso   1.000  O
  O27      1.0000 0.55113  0.84260  0.04287  Biso   1.000  O
  O28      1.0000 0.05113  0.34260  0.04287  Biso   1.000  O
  O29      1.0000 0.55113  0.15740  0.54287  Biso   1.000  O
  O30      1.0000 0.05113  0.65740  0.54287  Biso   1.000  O
  O31      1.0000 0.44887  0.15740  0.95713  Biso   1.000  O
  O32      1.0000 0.94887  0.65740  0.95713  Biso   1.000  O
  O33      1.0000 0.29362  0.24760  0.29482  Biso   1.000  O
  O34      1.0000 0.79362  0.74760  0.29482  Biso   1.000  O
  O35      1.0000 0.70638  0.24760  0.20518  Biso   1.000  O
  O36      1.0000 0.20638  0.74760  0.20518  Biso   1.000  O
  O37      1.0000 0.70638  0.75240  0.70518  Biso   1.000  O
  O38      1.0000 0.20638  0.25240  0.70518  Biso   1.000  O
  O39      1.0000 0.29362  0.75240  0.79482  Biso   1.000  O
  O40      1.0000 0.79362  0.25240  0.79482  Biso   1.000  O
  N1       1.0000 0.27016  0.29280  0.32062  Biso   1.000  N
  N2       1.0000 0.77016  0.79280  0.32062  Biso   1.000  N
  N3       1.0000 0.72984  0.29280  0.17938  Biso   1.000  N
  N4       1.0000 0.22984  0.79280  0.17938  Biso   1.000  N
  N5       1.0000 0.72984  0.70720  0.67938  Biso   1.000  N
  N6       1.0000 0.22984  0.20720  0.67938  Biso   1.000  N
  N7       1.0000 0.27016  0.70720  0.82062  Biso   1.000  N
  N8       1.0000 0.77016  0.20720  0.82062  Biso   1.000  N
  C81      1.0000 0.21034  0.32940  0.28126  Biso   1.000  C
  C82      1.0000 0.71034  0.82940  0.28126  Biso   1.000  C
  C83      1.0000 0.78966  0.32940  0.21874  Biso   1.000  C
  C84      1.0000 0.28966  0.82940  0.21874  Biso   1.000  C
  C85      1.0000 0.78966  0.67060  0.71874  Biso   1.000  C
  C86      1.0000 0.28966  0.17060  0.71874  Biso   1.000  C
  C87      1.0000 0.21034  0.67060  0.78126  Biso   1.000  C
  C88      1.0000 0.71034  0.17060  0.78126  Biso   1.000  C
  C89      1.0000 0.19380  0.40380  0.21844  Biso   1.000  C
  C90      1.0000 0.69380  0.90380  0.21844  Biso   1.000  C
  C91      1.0000 0.80620  0.40380  0.28156  Biso   1.000  C
  C92      1.0000 0.30620  0.90380  0.28156  Biso   1.000  C
  C93      1.0000 0.80620  0.59620  0.78156  Biso   1.000  C
  C94      1.0000 0.30620  0.09620  0.78156  Biso   1.000  C
  C95      1.0000 0.19380  0.59620  0.71844  Biso   1.000  C
  C96      1.0000 0.69380  0.09620  0.71844  Biso   1.000  C
  H17      1.0000 0.19760  0.33600  0.19100  Biso   1.000  H
  H18      1.0000 0.69760  0.83600  0.19100  Biso   1.000  H
  H19      1.0000 0.80240  0.33600  0.30900  Biso   1.000  H
  H20      1.0000 0.30240  0.83600  0.30900  Biso   1.000  H
  H21      1.0000 0.80240  0.66400  0.80900  Biso   1.000  H
  H22      1.0000 0.30240  0.16400  0.80900  Biso   1.000  H
  H23      1.0000 0.19760  0.66400  0.69100  Biso   1.000  H
  H24      1.0000 0.69760  0.16400  0.69100  Biso   1.000  H
  H25      1.0000 0.16250  0.42600  0.20000  Biso   1.000  H
  H26      1.0000 0.66250  0.92600  0.20000  Biso   1.000  H
  H27      1.0000 0.83750  0.42600  0.30000  Biso   1.000  H
  H28      1.0000 0.33750  0.92600  0.30000  Biso   1.000  H
  H29      1.0000 0.83750  0.57400  0.80000  Biso   1.000  H
  H30      1.0000 0.33750  0.07400  0.80000  Biso   1.000  H
  H31      1.0000 0.16250  0.57400  0.70000  Biso   1.000  H
  H32      1.0000 0.66250  0.07400  0.70000  Biso   1.000  H
  H33      1.0000 0.21900  0.49700  0.22900  Biso   1.000  H
  H34      1.0000 0.71900  0.99700  0.22900  Biso   1.000  H
  H35      1.0000 0.78100  0.49700  0.27100  Biso   1.000  H
  H36      1.0000 0.28100  0.99700  0.27100  Biso   1.000  H
  H37      1.0000 0.78100  0.50300  0.77100  Biso   1.000  H
  H38      1.0000 0.28100  0.00300  0.77100  Biso   1.000  H
  H39      1.0000 0.21900  0.50300  0.72900  Biso   1.000  H
  H40      1.0000 0.71900  0.00300  0.72900  Biso   1.000  H
  C97      1.0000 0.18064  0.19210  0.26622  Biso   1.000  C
  C98      1.0000 0.68064  0.69210  0.26622  Biso   1.000  C
  C99      1.0000 0.81936  0.19210  0.23378  Biso   1.000  C
  C100     1.0000 0.31936  0.69210  0.23378  Biso   1.000  C
  C101     1.0000 0.81936  0.80790  0.73378  Biso   1.000  C
  C102     1.0000 0.31936  0.30790  0.73378  Biso   1.000  C
  C103     1.0000 0.18064  0.80790  0.76622  Biso   1.000  C
  C104     1.0000 0.68064  0.30790  0.76622  Biso   1.000  C
  H41      1.0000 0.18710  0.13600  0.24240  Biso   1.000  H
  H42      1.0000 0.68710  0.63600  0.24240  Biso   1.000  H
  H43      1.0000 0.81290  0.13600  0.25760  Biso   1.000  H
  H44      1.0000 0.31290  0.63600  0.25760  Biso   1.000  H
  H45      1.0000 0.81290  0.86400  0.75760  Biso   1.000  H
  H46      1.0000 0.31290  0.36400  0.75760  Biso   1.000  H
  H47      1.0000 0.18710  0.86400  0.74240  Biso   1.000  H
  H48      1.0000 0.68710  0.36400  0.74240  Biso   1.000  H
  H49      1.0000 0.19490  0.14800  0.30800  Biso   1.000  H
  H50      1.0000 0.69490  0.64800  0.30800  Biso   1.000  H
  H51      1.0000 0.80510  0.14800  0.19200  Biso   1.000  H
  H52      1.0000 0.30510  0.64800  0.19200  Biso   1.000  H
  H53      1.0000 0.80510  0.85200  0.69200  Biso   1.000  H
  H54      1.0000 0.30510  0.35200  0.69200  Biso   1.000  H
  H55      1.0000 0.19490  0.85200  0.80800  Biso   1.000  H
  H56      1.0000 0.69490  0.35200  0.80800  Biso   1.000  H
  H57      1.0000 0.14170  0.20500  0.24300  Biso   1.000  H
  H58      1.0000 0.64170  0.70500  0.24300  Biso   1.000  H
  H59      1.0000 0.85830  0.20500  0.25700  Biso   1.000  H
  H60      1.0000 0.35830  0.70500  0.25700  Biso   1.000  H
  H61      1.0000 0.85830  0.79500  0.75700  Biso   1.000  H
  H62      1.0000 0.35830  0.29500  0.75700  Biso   1.000  H
  H63      1.0000 0.14170  0.79500  0.74300  Biso   1.000  H
  H64      1.0000 0.64170  0.29500  0.74300  Biso   1.000  H
  C105     1.0000 0.20991  0.41960  0.33227  Biso   1.000  C
  C106     1.0000 0.70991  0.91960  0.33227  Biso   1.000  C
  C107     1.0000 0.79009  0.41960  0.16773  Biso   1.000  C
  C108     1.0000 0.29009  0.91960  0.16773  Biso   1.000  C
  C109     1.0000 0.79009  0.58040  0.66773  Biso   1.000  C
  C110     1.0000 0.29009  0.08040  0.66773  Biso   1.000  C
  C111     1.0000 0.20991  0.58040  0.83227  Biso   1.000  C
  C112     1.0000 0.70991  0.08040  0.83227  Biso   1.000  C
  C113     1.0000 0.22550  0.56900  0.33360  Biso   1.000  C
  C114     1.0000 0.72550  0.06900  0.33360  Biso   1.000  C
  C115     1.0000 0.77450  0.56900  0.16640  Biso   1.000  C
  C116     1.0000 0.27450  0.06900  0.16640  Biso   1.000  C
  C117     1.0000 0.77450  0.43100  0.66640  Biso   1.000  C
  C118     1.0000 0.27450  0.93100  0.66640  Biso   1.000  C
  C119     1.0000 0.22550  0.43100  0.83360  Biso   1.000  C
  C120     1.0000 0.72550  0.93100  0.83360  Biso   1.000  C
  H65      1.0000 0.23260  0.60600  0.37040  Biso   1.000  H
  H66      1.0000 0.73260  0.10600  0.37040  Biso   1.000  H
  H67      1.0000 0.76740  0.60600  0.12960  Biso   1.000  H
  H68      1.0000 0.26740  0.10600  0.12960  Biso   1.000  H
  H69      1.0000 0.76740  0.39400  0.62960  Biso   1.000  H
  H70      1.0000 0.26740  0.89400  0.62960  Biso   1.000  H
  H71      1.0000 0.23260  0.39400  0.87040  Biso   1.000  H
  H72      1.0000 0.73260  0.89400  0.87040  Biso   1.000  H
  H73      1.0000 0.26300  0.58200  0.33600  Biso   1.000  H
  H74      1.0000 0.76300  0.08200  0.33600  Biso   1.000  H
  H75      1.0000 0.73700  0.58200  0.16400  Biso   1.000  H
  H76      1.0000 0.23700  0.08200  0.16400  Biso   1.000  H
  H77      1.0000 0.73700  0.41800  0.66400  Biso   1.000  H
  H78      1.0000 0.23700  0.91800  0.66400  Biso   1.000  H
  H79      1.0000 0.26300  0.41800  0.83600  Biso   1.000  H
  H80      1.0000 0.76300  0.91800  0.83600  Biso   1.000  H
  H81      1.0000 0.19930  0.62100  0.29750  Biso   1.000  H
  H82      1.0000 0.69930  0.12100  0.29750  Biso   1.000  H
  H83      1.0000 0.80070  0.62100  0.20250  Biso   1.000  H
  H84      1.0000 0.30070  0.12100  0.20250  Biso   1.000  H
  H85      1.0000 0.80070  0.37900  0.70250  Biso   1.000  H
  H86      1.0000 0.30070  0.87900  0.70250  Biso   1.000  H
  H87      1.0000 0.19930  0.37900  0.79750  Biso   1.000  H
  H88      1.0000 0.69930  0.87900  0.79750  Biso   1.000  H
  C121     1.0000 0.15803  0.41050  0.32932  Biso   1.000  C
  C122     1.0000 0.65803  0.91050  0.32932  Biso   1.000  C
  C123     1.0000 0.84197  0.41050  0.17068  Biso   1.000  C
  C124     1.0000 0.34197  0.91050  0.17068  Biso   1.000  C
  C125     1.0000 0.84197  0.58950  0.67068  Biso   1.000  C
  C126     1.0000 0.34197  0.08950  0.67068  Biso   1.000  C
  C127     1.0000 0.15803  0.58950  0.82932  Biso   1.000  C
  C128     1.0000 0.65803  0.08950  0.82932  Biso   1.000  C
  H89      1.0000 0.16120  0.47100  0.36500  Biso   1.000  H
  H90      1.0000 0.66120  0.97100  0.36500  Biso   1.000  H
  H91      1.0000 0.83880  0.47100  0.13500  Biso   1.000  H
  H92      1.0000 0.33880  0.97100  0.13500  Biso   1.000  H
  H93      1.0000 0.83880  0.52900  0.63500  Biso   1.000  H
  H94      1.0000 0.33880  0.02900  0.63500  Biso   1.000  H
  H95      1.0000 0.16120  0.52900  0.86500  Biso   1.000  H
  H96      1.0000 0.66120  0.02900  0.86500  Biso   1.000  H
  H97      1.0000 0.13020  0.45200  0.28800  Biso   1.000  H
  H98      1.0000 0.63020  0.95200  0.28800  Biso   1.000  H
  H99      1.0000 0.86980  0.45200  0.21200  Biso   1.000  H
  H100     1.0000 0.36980  0.95200  0.21200  Biso   1.000  H
  H101     1.0000 0.86980  0.54800  0.71200  Biso   1.000  H
  H102     1.0000 0.36980  0.04800  0.71200  Biso   1.000  H
  H103     1.0000 0.13020  0.54800  0.78800  Biso   1.000  H
  H104     1.0000 0.63020  0.04800  0.78800  Biso   1.000  H
  H105     1.0000 0.14720  0.31700  0.33300  Biso   1.000  H
  H106     1.0000 0.64720  0.81700  0.33300  Biso   1.000  H
  H107     1.0000 0.85280  0.31700  0.16700  Biso   1.000  H
  H108     1.0000 0.35280  0.81700  0.16700  Biso   1.000  H
  H109     1.0000 0.85280  0.68300  0.66700  Biso   1.000  H
  H110     1.0000 0.35280  0.18300  0.66700  Biso   1.000  H
  H111     1.0000 0.14720  0.68300  0.83300  Biso   1.000  H
  H112     1.0000 0.64720  0.18300  0.83300  Biso   1.000  H
  N9       1.0000 0.25711  0.35480  0.39426  Biso   1.000  N
  N10      1.0000 0.75711  0.85480  0.39426  Biso   1.000  N
  N11      1.0000 0.74289  0.35480  0.10574  Biso   1.000  N
  N12      1.0000 0.24289  0.85480  0.10574  Biso   1.000  N
  N13      1.0000 0.74289  0.64520  0.60574  Biso   1.000  N
  N14      1.0000 0.24289  0.14520  0.60574  Biso   1.000  N
  N15      1.0000 0.25711  0.64520  0.89426  Biso   1.000  N
  N16      1.0000 0.75711  0.14520  0.89426  Biso   1.000  N
  O41      1.0000 0.26685  0.38220  0.45139  Biso   1.000  O
  O42      1.0000 0.76685  0.88220  0.45139  Biso   1.000  O
  O43      1.0000 0.73315  0.38220  0.04861  Biso   1.000  O
  O44      1.0000 0.23315  0.88220  0.04861  Biso   1.000  O
  O45      1.0000 0.73315  0.61780  0.54861  Biso   1.000  O
  O46      1.0000 0.23315  0.11780  0.54861  Biso   1.000  O
  O47      1.0000 0.26685  0.61780  0.95139  Biso   1.000  O
  O48      1.0000 0.76685  0.11780  0.95139  Biso   1.000  O
  C129     1.0000 0.29320  0.29940  0.38573  Biso   1.000  C
  C130     1.0000 0.79320  0.79940  0.38573  Biso   1.000  C
  C131     1.0000 0.70680  0.29940  0.11427  Biso   1.000  C
  C132     1.0000 0.20680  0.79940  0.11427  Biso   1.000  C
  C133     1.0000 0.70680  0.70060  0.61427  Biso   1.000  C
  C134     1.0000 0.20680  0.20060  0.61427  Biso   1.000  C
  C135     1.0000 0.29320  0.70060  0.88573  Biso   1.000  C
  C136     1.0000 0.79320  0.20060  0.88573  Biso   1.000  C
  C137     1.0000 0.34767  0.25200  0.43668  Biso   1.000  C
  C138     1.0000 0.84767  0.75200  0.43668  Biso   1.000  C
  C139     1.0000 0.65233  0.25200  0.06332  Biso   1.000  C
  C140     1.0000 0.15233  0.75200  0.06332  Biso   1.000  C
  C141     1.0000 0.65233  0.74800  0.56332  Biso   1.000  C
  C142     1.0000 0.15233  0.24800  0.56332  Biso   1.000  C
  C143     1.0000 0.34767  0.74800  0.93668  Biso   1.000  C
  C144     1.0000 0.84767  0.24800  0.93668  Biso   1.000  C
  C145     1.0000 0.38419  0.17360  0.43090  Biso   1.000  C
  C146     1.0000 0.88419  0.67360  0.43090  Biso   1.000  C
  C147     1.0000 0.61581  0.17360  0.06910  Biso   1.000  C
  C148     1.0000 0.11581  0.67360  0.06910  Biso   1.000  C
  C149     1.0000 0.61581  0.82640  0.56910  Biso   1.000  C
  C150     1.0000 0.11581  0.32640  0.56910  Biso   1.000  C
  C151     1.0000 0.38419  0.82640  0.93090  Biso   1.000  C
  C152     1.0000 0.88419  0.32640  0.93090  Biso   1.000  C
  H113     1.0000 0.38050  0.14000  0.39130  Biso   1.000  H
  H114     1.0000 0.88050  0.64000  0.39130  Biso   1.000  H
  H115     1.0000 0.61950  0.14000  0.10870  Biso   1.000  H
  H116     1.0000 0.11950  0.64000  0.10870  Biso   1.000  H
  H117     1.0000 0.61950  0.86000  0.60870  Biso   1.000  H
  H118     1.0000 0.11950  0.36000  0.60870  Biso   1.000  H
  H119     1.0000 0.38050  0.86000  0.89130  Biso   1.000  H
  H120     1.0000 0.88050  0.36000  0.89130  Biso   1.000  H
  N17      1.0000 0.42968  0.14590  0.48906  Biso   1.000  N
  N18      1.0000 0.92968  0.64590  0.48906  Biso   1.000  N
  N19      1.0000 0.57032  0.14590  0.01094  Biso   1.000  N
  N20      1.0000 0.07032  0.64590  0.01094  Biso   1.000  N
  N21      1.0000 0.57032  0.85410  0.51094  Biso   1.000  N
  N22      1.0000 0.07032  0.35410  0.51094  Biso   1.000  N
  N23      1.0000 0.42968  0.85410  0.98906  Biso   1.000  N
  N24      1.0000 0.92968  0.35410  0.98906  Biso   1.000  N
  N25      1.0000 0.42260  0.20840  0.53263  Biso   1.000  N
  N26      1.0000 0.92260  0.70840  0.53263  Biso   1.000  N
  N27      1.0000 0.57740  0.20840  0.96737  Biso   1.000  N
  N28      1.0000 0.07740  0.70840  0.96737  Biso   1.000  N
  N29      1.0000 0.57740  0.79160  0.46737  Biso   1.000  N
  N30      1.0000 0.07740  0.29160  0.46737  Biso   1.000  N
  N31      1.0000 0.42260  0.79160  0.03263  Biso   1.000  N
  N32      1.0000 0.92260  0.29160  0.03263  Biso   1.000  N
  C153     1.0000 0.46020  0.17440  0.60880  Biso   1.000  C
  C154     1.0000 0.96020  0.67440  0.60880  Biso   1.000  C
  C155     1.0000 0.53980  0.17440  0.89120  Biso   1.000  C
  C156     1.0000 0.03980  0.67440  0.89120  Biso   1.000  C
  C157     1.0000 0.53980  0.82560  0.39120  Biso   1.000  C
  C158     1.0000 0.03980  0.32560  0.39120  Biso   1.000  C
  C159     1.0000 0.46020  0.82560  0.10880  Biso   1.000  C
  C160     1.0000 0.96020  0.32560  0.10880  Biso   1.000  C
  H121     1.0000 0.44310  0.21030  0.62910  Biso   1.000  H
  H122     1.0000 0.94310  0.71030  0.62910  Biso   1.000  H
  H123     1.0000 0.55690  0.21030  0.87090  Biso   1.000  H
  H124     1.0000 0.05690  0.71030  0.87090  Biso   1.000  H
  H125     1.0000 0.55690  0.78970  0.37090  Biso   1.000  H
  H126     1.0000 0.05690  0.28970  0.37090  Biso   1.000  H
  H127     1.0000 0.44310  0.78970  0.12910  Biso   1.000  H
  H128     1.0000 0.94310  0.28970  0.12910  Biso   1.000  H
  H129     1.0000 0.46350  0.07480  0.61500  Biso   1.000  H
  H130     1.0000 0.96350  0.57480  0.61500  Biso   1.000  H
  H131     1.0000 0.53650  0.07480  0.88500  Biso   1.000  H
  H132     1.0000 0.03650  0.57480  0.88500  Biso   1.000  H
  H133     1.0000 0.53650  0.92520  0.38500  Biso   1.000  H
  H134     1.0000 0.03650  0.42520  0.38500  Biso   1.000  H
  H135     1.0000 0.46350  0.92520  0.11500  Biso   1.000  H
  H136     1.0000 0.96350  0.42520  0.11500  Biso   1.000  H
  C161     1.0000 0.51500  0.23560  0.64100  Biso   1.000  C
  C162     1.0000 0.01500  0.73560  0.64100  Biso   1.000  C
  C163     1.0000 0.48500  0.23560  0.85900  Biso   1.000  C
  C164     1.0000 0.98500  0.73560  0.85900  Biso   1.000  C
  C165     1.0000 0.48500  0.76440  0.35900  Biso   1.000  C
  C166     1.0000 0.98500  0.26440  0.35900  Biso   1.000  C
  C167     1.0000 0.51500  0.76440  0.14100  Biso   1.000  C
  C168     1.0000 0.01500  0.26440  0.14100  Biso   1.000  C
  H137     1.0000 0.53280  0.19530  0.62240  Biso   1.000  H
  H138     1.0000 0.03280  0.69530  0.62240  Biso   1.000  H
  H139     1.0000 0.46720  0.19530  0.87760  Biso   1.000  H
  H140     1.0000 0.96720  0.69530  0.87760  Biso   1.000  H
  H141     1.0000 0.46720  0.80470  0.37760  Biso   1.000  H
  H142     1.0000 0.96720  0.30470  0.37760  Biso   1.000  H
  H143     1.0000 0.53280  0.80470  0.12240  Biso   1.000  H
  H144     1.0000 0.03280  0.30470  0.12240  Biso   1.000  H
  H145     1.0000 0.53680  0.21290  0.68740  Biso   1.000  H
  H146     1.0000 0.03680  0.71290  0.68740  Biso   1.000  H
  H147     1.0000 0.46320  0.21290  0.81260  Biso   1.000  H
  H148     1.0000 0.96320  0.71290  0.81260  Biso   1.000  H
  H149     1.0000 0.46320  0.78710  0.31260  Biso   1.000  H
  H150     1.0000 0.96320  0.28710  0.31260  Biso   1.000  H
  H151     1.0000 0.53680  0.78710  0.18740  Biso   1.000  H
  H152     1.0000 0.03680  0.28710  0.18740  Biso   1.000  H
  C169     1.0000 0.51310  0.39130  0.63320  Biso   1.000  C
  C170     1.0000 0.01310  0.89130  0.63320  Biso   1.000  C
  C171     1.0000 0.48690  0.39130  0.86680  Biso   1.000  C
  C172     1.0000 0.98690  0.89130  0.86680  Biso   1.000  C
  C173     1.0000 0.48690  0.60870  0.36680  Biso   1.000  C
  C174     1.0000 0.98690  0.10870  0.36680  Biso   1.000  C
  C175     1.0000 0.51310  0.60870  0.13320  Biso   1.000  C
  C176     1.0000 0.01310  0.10870  0.13320  Biso   1.000  C
  H153     1.0000 0.54970  0.42640  0.65480  Biso   1.000  H
  H154     1.0000 0.04970  0.92640  0.65480  Biso   1.000  H
  H155     1.0000 0.45030  0.42640  0.84520  Biso   1.000  H
  H156     1.0000 0.95030  0.92640  0.84520  Biso   1.000  H
  H157     1.0000 0.45030  0.57360  0.34520  Biso   1.000  H
  H158     1.0000 0.95030  0.07360  0.34520  Biso   1.000  H
  H159     1.0000 0.54970  0.57360  0.15480  Biso   1.000  H
  H160     1.0000 0.04970  0.07360  0.15480  Biso   1.000  H
  H161     1.0000 0.49640  0.43200  0.65250  Biso   1.000  H
  H162     1.0000 0.99640  0.93200  0.65250  Biso   1.000  H
  H163     1.0000 0.50360  0.43200  0.84750  Biso   1.000  H
  H164     1.0000 0.00360  0.93200  0.84750  Biso   1.000  H
  H165     1.0000 0.50360  0.56800  0.34750  Biso   1.000  H
  H166     1.0000 0.00360  0.06800  0.34750  Biso   1.000  H
  H167     1.0000 0.49640  0.56800  0.15250  Biso   1.000  H
  H168     1.0000 0.99640  0.06800  0.15250  Biso   1.000  H
  H169     1.0000 0.49210  0.41430  0.58740  Biso   1.000  H
  H170     1.0000 0.99210  0.91430  0.58740  Biso   1.000  H
  H171     1.0000 0.50790  0.41430  0.91260  Biso   1.000  H
  H172     1.0000 0.00790  0.91430  0.91260  Biso   1.000  H
  H173     1.0000 0.50790  0.58570  0.41260  Biso   1.000  H
  H174     1.0000 0.00790  0.08570  0.41260  Biso   1.000  H
  H175     1.0000 0.49210  0.58570  0.08740  Biso   1.000  H
  H176     1.0000 0.99210  0.08570  0.08740  Biso   1.000  H
  C177     1.0000 0.37403  0.27140  0.50290  Biso   1.000  C
  C178     1.0000 0.87403  0.77140  0.50290  Biso   1.000  C
  C179     1.0000 0.62597  0.27140  0.99710  Biso   1.000  C
  C180     1.0000 0.12597  0.77140  0.99710  Biso   1.000  C
  C181     1.0000 0.62597  0.72860  0.49710  Biso   1.000  C
  C182     1.0000 0.12597  0.22860  0.49710  Biso   1.000  C
  C183     1.0000 0.37403  0.72860  0.00290  Biso   1.000  C
  C184     1.0000 0.87403  0.22860  0.00290  Biso   1.000  C
  H177     1.0000 0.36470  0.31800  0.52700  Biso   1.000  H
  H178     1.0000 0.86470  0.81800  0.52700  Biso   1.000  H
  H179     1.0000 0.63530  0.31800  0.97300  Biso   1.000  H
  H180     1.0000 0.13530  0.81800  0.97300  Biso   1.000  H
  H181     1.0000 0.63530  0.68200  0.47300  Biso   1.000  H
  H182     1.0000 0.13530  0.18200  0.47300  Biso   1.000  H
  H183     1.0000 0.36470  0.68200  0.02700  Biso   1.000  H
  H184     1.0000 0.86470  0.18200  0.02700  Biso   1.000  H
  F97      1.0000 0.42830  0.60100  0.39110  Biso   1.000  F
  F98      1.0000 0.92830  0.10100  0.39110  Biso   1.000  F
  F99      1.0000 0.57170  0.60100  0.10890  Biso   1.000  F
  F100     1.0000 0.07170  0.10100  0.10890  Biso   1.000  F
  F101     1.0000 0.57170  0.39900  0.60890  Biso   1.000  F
  F102     1.0000 0.07170  0.89900  0.60890  Biso   1.000  F
  F103     1.0000 0.42830  0.39900  0.89110  Biso   1.000  F
  F104     1.0000 0.92830  0.89900  0.89110  Biso   1.000  F
  C185     1.0000 0.46730  0.21870  0.59880  Biso   1.000  C
  C186     1.0000 0.96730  0.71870  0.59880  Biso   1.000  C
  C187     1.0000 0.53270  0.21870  0.90120  Biso   1.000  C
  C188     1.0000 0.03270  0.71870  0.90120  Biso   1.000  C
  C189     1.0000 0.53270  0.78130  0.40120  Biso   1.000  C
  C190     1.0000 0.03270  0.28130  0.40120  Biso   1.000  C
  C191     1.0000 0.46730  0.78130  0.09880  Biso   1.000  C
  C192     1.0000 0.96730  0.28130  0.09880  Biso   1.000  C
  H185     1.0000 0.49870  0.17130  0.60560  Biso   1.000  H
  H186     1.0000 0.99870  0.67130  0.60560  Biso   1.000  H
  H187     1.0000 0.50130  0.17130  0.89440  Biso   1.000  H
  H188     1.0000 0.00130  0.67130  0.89440  Biso   1.000  H
  H189     1.0000 0.50130  0.82870  0.39440  Biso   1.000  H
  H190     1.0000 0.00130  0.32870  0.39440  Biso   1.000  H
  H191     1.0000 0.49870  0.82870  0.10560  Biso   1.000  H
  H192     1.0000 0.99870  0.32870  0.10560  Biso   1.000  H
  H193     1.0000 0.47690  0.31520  0.61070  Biso   1.000  H
  H194     1.0000 0.97690  0.81520  0.61070  Biso   1.000  H
  H195     1.0000 0.52310  0.31520  0.88930  Biso   1.000  H
  H196     1.0000 0.02310  0.81520  0.88930  Biso   1.000  H
  H197     1.0000 0.52310  0.68480  0.38930  Biso   1.000  H
  H198     1.0000 0.02310  0.18480  0.38930  Biso   1.000  H
  H199     1.0000 0.47690  0.68480  0.11070  Biso   1.000  H
  H200     1.0000 0.97690  0.18480  0.11070  Biso   1.000  H
  C193     1.0000 0.45290  0.15760  0.63880  Biso   1.000  C
  C194     1.0000 0.95290  0.65760  0.63880  Biso   1.000  C
  C195     1.0000 0.54710  0.15760  0.86120  Biso   1.000  C
  C196     1.0000 0.04710  0.65760  0.86120  Biso   1.000  C
  C197     1.0000 0.54710  0.84240  0.36120  Biso   1.000  C
  C198     1.0000 0.04710  0.34240  0.36120  Biso   1.000  C
  C199     1.0000 0.45290  0.84240  0.13880  Biso   1.000  C
  C200     1.0000 0.95290  0.34240  0.13880  Biso   1.000  C
  H201     1.0000 0.44440  0.06040  0.62740  Biso   1.000  H
  H202     1.0000 0.94440  0.56040  0.62740  Biso   1.000  H
  H203     1.0000 0.55560  0.06040  0.87260  Biso   1.000  H
  H204     1.0000 0.05560  0.56040  0.87260  Biso   1.000  H
  H205     1.0000 0.55560  0.93960  0.37260  Biso   1.000  H
  H206     1.0000 0.05560  0.43960  0.37260  Biso   1.000  H
  H207     1.0000 0.44440  0.93960  0.12740  Biso   1.000  H
  H208     1.0000 0.94440  0.43960  0.12740  Biso   1.000  H
  H209     1.0000 0.42030  0.20250  0.62990  Biso   1.000  H
  H210     1.0000 0.92030  0.70250  0.62990  Biso   1.000  H
  H211     1.0000 0.57970  0.20250  0.87010  Biso   1.000  H
  H212     1.0000 0.07970  0.70250  0.87010  Biso   1.000  H
  H213     1.0000 0.57970  0.79750  0.37010  Biso   1.000  H
  H214     1.0000 0.07970  0.29750  0.37010  Biso   1.000  H
  H215     1.0000 0.42030  0.79750  0.12990  Biso   1.000  H
  H216     1.0000 0.92030  0.29750  0.12990  Biso   1.000  H
  C201     1.0000 0.49890  0.17020  0.71180  Biso   1.000  C
  C202     1.0000 0.99890  0.67020  0.71180  Biso   1.000  C
  C203     1.0000 0.50110  0.17020  0.78820  Biso   1.000  C
  C204     1.0000 0.00110  0.67020  0.78820  Biso   1.000  C
  C205     1.0000 0.50110  0.82980  0.28820  Biso   1.000  C
  C206     1.0000 0.00110  0.32980  0.28820  Biso   1.000  C
  C207     1.0000 0.49890  0.82980  0.21180  Biso   1.000  C
  C208     1.0000 0.99890  0.32980  0.21180  Biso   1.000  C
  H217     1.0000 0.48770  0.12730  0.73690  Biso   1.000  H
  H218     1.0000 0.98770  0.62730  0.73690  Biso   1.000  H
  H219     1.0000 0.51230  0.12730  0.76310  Biso   1.000  H
  H220     1.0000 0.01230  0.62730  0.76310  Biso   1.000  H
  H221     1.0000 0.51230  0.87270  0.26310  Biso   1.000  H
  H222     1.0000 0.01230  0.37270  0.26310  Biso   1.000  H
  H223     1.0000 0.48770  0.87270  0.23690  Biso   1.000  H
  H224     1.0000 0.98770  0.37270  0.23690  Biso   1.000  H
  H225     1.0000 0.50670  0.26630  0.72350  Biso   1.000  H
  H226     1.0000 0.00670  0.76630  0.72350  Biso   1.000  H
  H227     1.0000 0.49330  0.26630  0.77650  Biso   1.000  H
  H228     1.0000 0.99330  0.76630  0.77650  Biso   1.000  H
  H229     1.0000 0.49330  0.73370  0.27650  Biso   1.000  H
  H230     1.0000 0.99330  0.23370  0.27650  Biso   1.000  H
  H231     1.0000 0.50670  0.73370  0.22350  Biso   1.000  H
  H232     1.0000 0.00670  0.23370  0.22350  Biso   1.000  H
  H233     1.0000 0.53110  0.12490  0.72090  Biso   1.000  H
  H234     1.0000 0.03110  0.62490  0.72090  Biso   1.000  H
  H235     1.0000 0.46890  0.12490  0.77910  Biso   1.000  H
  H236     1.0000 0.96890  0.62490  0.77910  Biso   1.000  H
  H237     1.0000 0.46890  0.87510  0.27910  Biso   1.000  H
  H238     1.0000 0.96890  0.37510  0.27910  Biso   1.000  H
  H239     1.0000 0.53110  0.87510  0.22090  Biso   1.000  H
  H240     1.0000 0.03110  0.37510  0.22090  Biso   1.000  H
