data_image0
_cell_length_a       30.114
_cell_length_b       9.6665
_cell_length_c       25.594
_cell_angle_alpha    90
_cell_angle_beta     126.81
_cell_angle_gamma    90

_symmetry_space_group_name_H-M    "P 1"
_symmetry_int_tables_number       1

loop_
  _symmetry_equiv_pos_as_xyz
  'x, y, z'

loop_
  _atom_site_label
  _atom_site_occupancy
  _atom_site_fract_x
  _atom_site_fract_y
  _atom_site_fract_z
  _atom_site_thermal_displace_type
  _atom_site_B_iso_or_equiv
  _atom_site_type_symbol
  Cu1      1.0000 0.00000  0.00000  0.00000  Biso   1.000  Cu
  Cu2      1.0000 0.00000  0.50000  0.50000  Biso   1.000  Cu
  O1       1.0000 0.94140  0.06410  0.91185  Biso   1.000  O
  O2       1.0000 0.05860  0.56410  0.58815  Biso   1.000  O
  O3       1.0000 0.05860  0.93590  0.08815  Biso   1.000  O
  O4       1.0000 0.94140  0.43590  0.41185  Biso   1.000  O
  C1       1.0000 0.86942  0.19560  0.82637  Biso   1.000  C
  C2       1.0000 0.13058  0.69560  0.67363  Biso   1.000  C
  C3       1.0000 0.13058  0.80440  0.17363  Biso   1.000  C
  C4       1.0000 0.86942  0.30440  0.32637  Biso   1.000  C
  F1       1.0000 0.83605  0.29870  0.81169  Biso   1.000  F
  F2       1.0000 0.16395  0.79870  0.68831  Biso   1.000  F
  F3       1.0000 0.16395  0.70130  0.18831  Biso   1.000  F
  F4       1.0000 0.83605  0.20130  0.31169  Biso   1.000  F
  F5       1.0000 0.83763  0.08450  0.79617  Biso   1.000  F
  F6       1.0000 0.16237  0.58450  0.70383  Biso   1.000  F
  F7       1.0000 0.16237  0.91550  0.20383  Biso   1.000  F
  F8       1.0000 0.83763  0.41550  0.29617  Biso   1.000  F
  F9       1.0000 0.89358  0.21520  0.79811  Biso   1.000  F
  F10      1.0000 0.10642  0.71520  0.70189  Biso   1.000  F
  F11      1.0000 0.10642  0.78480  0.20189  Biso   1.000  F
  F12      1.0000 0.89358  0.28480  0.29811  Biso   1.000  F
  C5       1.0000 0.91203  0.17000  0.89900  Biso   1.000  C
  C6       1.0000 0.08797  0.67000  0.60100  Biso   1.000  C
  C7       1.0000 0.08797  0.83000  0.10100  Biso   1.000  C
  C8       1.0000 0.91203  0.33000  0.39900  Biso   1.000  C
  C9       1.0000 0.91454  0.26120  0.94134  Biso   1.000  C
  C10      1.0000 0.08546  0.76120  0.55866  Biso   1.000  C
  C11      1.0000 0.08546  0.73880  0.05866  Biso   1.000  C
  C12      1.0000 0.91454  0.23880  0.44134  Biso   1.000  C
  H1       1.0000 0.89050  0.32500  0.92480  Biso   1.000  H
  H2       1.0000 0.10950  0.82500  0.57520  Biso   1.000  H
  H3       1.0000 0.10950  0.67500  0.07520  Biso   1.000  H
  H4       1.0000 0.89050  0.17500  0.42480  Biso   1.000  H
  C13      1.0000 0.95375  0.24950  0.00894  Biso   1.000  C
  C14      1.0000 0.04625  0.74950  0.49106  Biso   1.000  C
  C15      1.0000 0.04625  0.75050  0.99106  Biso   1.000  C
  C16      1.0000 0.95375  0.25050  0.50894  Biso   1.000  C
  C17      1.0000 0.95661  0.36780  0.05024  Biso   1.000  C
  C18      1.0000 0.04339  0.86780  0.44976  Biso   1.000  C
  C19      1.0000 0.04339  0.63220  0.94976  Biso   1.000  C
  C20      1.0000 0.95661  0.13220  0.55024  Biso   1.000  C
  F13      1.0000 0.90597  0.41070  0.02886  Biso   1.000  F
  F14      1.0000 0.09403  0.91070  0.47114  Biso   1.000  F
  F15      1.0000 0.09403  0.58930  0.97114  Biso   1.000  F
  F16      1.0000 0.90597  0.08930  0.52886  Biso   1.000  F
  F17      1.0000 0.98295  0.33550  0.11133  Biso   1.000  F
  F18      1.0000 0.01705  0.83550  0.38867  Biso   1.000  F
  F19      1.0000 0.01705  0.66450  0.88867  Biso   1.000  F
  F20      1.0000 0.98295  0.16450  0.61133  Biso   1.000  F
  F21      1.0000 0.98063  0.47740  0.04570  Biso   1.000  F
  F22      1.0000 0.01937  0.97740  0.45430  Biso   1.000  F
  F23      1.0000 0.01937  0.52260  0.95430  Biso   1.000  F
  F24      1.0000 0.98063  0.02260  0.54570  Biso   1.000  F
  O5       1.0000 0.98825  0.15580  0.03994  Biso   1.000  O
  O6       1.0000 0.01175  0.65580  0.46006  Biso   1.000  O
  O7       1.0000 0.01175  0.84420  0.96006  Biso   1.000  O
  O8       1.0000 0.98825  0.34420  0.53994  Biso   1.000  O
  Cu3      1.0000 0.25193  0.25527  0.99875  Biso   1.000  Cu
  Cu4      1.0000 0.74807  0.75527  0.50125  Biso   1.000  Cu
  Cu5      1.0000 0.74807  0.74473  0.00125  Biso   1.000  Cu
  Cu6      1.0000 0.25193  0.24473  0.49875  Biso   1.000  Cu
  O9       1.0000 0.24162  0.15150  0.91599  Biso   1.000  O
  O10      1.0000 0.75838  0.65150  0.58401  Biso   1.000  O
  O11      1.0000 0.75838  0.84850  0.08401  Biso   1.000  O
  O12      1.0000 0.24162  0.34850  0.41599  Biso   1.000  O
  C21      1.0000 0.23640  0.96810  0.85410  Biso   1.000  C
  C22      1.0000 0.76360  0.46810  0.64590  Biso   1.000  C
  C23      1.0000 0.76360  0.03190  0.14590  Biso   1.000  C
  C24      1.0000 0.23640  0.53190  0.35410  Biso   1.000  C
  F25      1.0000 0.21066  0.04650  0.80023  Biso   1.000  F
  F26      1.0000 0.78934  0.54650  0.69977  Biso   1.000  F
  F27      1.0000 0.78934  0.95350  0.19977  Biso   1.000  F
  F28      1.0000 0.21066  0.45350  0.30023  Biso   1.000  F
  F29      1.0000 0.21766  0.84100  0.83513  Biso   1.000  F
  F30      1.0000 0.78234  0.34100  0.66487  Biso   1.000  F
  F31      1.0000 0.78234  0.15900  0.16487  Biso   1.000  F
  F32      1.0000 0.21766  0.65900  0.33513  Biso   1.000  F
  F33      1.0000 0.28896  0.96690  0.87892  Biso   1.000  F
  F34      1.0000 0.71104  0.46690  0.62108  Biso   1.000  F
  F35      1.0000 0.71104  0.03310  0.12108  Biso   1.000  F
  F36      1.0000 0.28896  0.53310  0.37892  Biso   1.000  F
  C25      1.0000 0.22774  0.02960  0.90246  Biso   1.000  C
  C26      1.0000 0.77226  0.52960  0.59754  Biso   1.000  C
  C27      1.0000 0.77226  0.97040  0.09754  Biso   1.000  C
  C28      1.0000 0.22774  0.47040  0.40246  Biso   1.000  C
  C29      1.0000 0.20676  0.94290  0.92650  Biso   1.000  C
  C30      1.0000 0.79324  0.44290  0.57350  Biso   1.000  C
  C31      1.0000 0.79324  0.05710  0.07350  Biso   1.000  C
  C32      1.0000 0.20676  0.55710  0.42650  Biso   1.000  C
  H5       1.0000 0.19870  0.85300  0.91180  Biso   1.000  H
  H6       1.0000 0.80130  0.35300  0.58820  Biso   1.000  H
  H7       1.0000 0.80130  0.14700  0.08820  Biso   1.000  H
  H8       1.0000 0.19870  0.64700  0.41180  Biso   1.000  H
  C33      1.0000 0.19865  0.98730  0.97149  Biso   1.000  C
  C34      1.0000 0.80135  0.48730  0.52851  Biso   1.000  C
  C35      1.0000 0.80135  0.01270  0.02851  Biso   1.000  C
  C36      1.0000 0.19865  0.51270  0.47149  Biso   1.000  C
  C37      1.0000 0.17378  0.88570  0.99280  Biso   1.000  C
  C38      1.0000 0.82622  0.38570  0.50720  Biso   1.000  C
  C39      1.0000 0.82622  0.11430  0.00720  Biso   1.000  C
  C40      1.0000 0.17378  0.61430  0.49280  Biso   1.000  C
  F37      1.0000 0.18979  0.90700  0.05170  Biso   1.000  F
  F38      1.0000 0.81021  0.40700  0.44830  Biso   1.000  F
  F39      1.0000 0.81021  0.09300  0.94830  Biso   1.000  F
  F40      1.0000 0.18979  0.59300  0.55170  Biso   1.000  F
  F41      1.0000 0.11999  0.89880  0.95680  Biso   1.000  F
  F42      1.0000 0.88001  0.39880  0.54320  Biso   1.000  F
  F43      1.0000 0.88001  0.10120  0.04320  Biso   1.000  F
  F44      1.0000 0.11999  0.60120  0.45680  Biso   1.000  F
  F45      1.0000 0.18410  0.75580  0.98904  Biso   1.000  F
  F46      1.0000 0.81590  0.25580  0.51096  Biso   1.000  F
  F47      1.0000 0.81590  0.24420  0.01096  Biso   1.000  F
  F48      1.0000 0.18410  0.74420  0.48904  Biso   1.000  F
  O13      1.0000 0.20846  0.10350  0.99794  Biso   1.000  O
  O14      1.0000 0.79154  0.60350  0.50206  Biso   1.000  O
  O15      1.0000 0.79154  0.89650  0.00206  Biso   1.000  O
  O16      1.0000 0.20846  0.39650  0.49794  Biso   1.000  O
  O17      1.0000 0.29487  0.40640  0.99741  Biso   1.000  O
  O18      1.0000 0.70513  0.90640  0.50259  Biso   1.000  O
  O19      1.0000 0.70513  0.59360  0.00259  Biso   1.000  O
  O20      1.0000 0.29487  0.09360  0.49741  Biso   1.000  O
  C41      1.0000 0.32850  0.62400  0.00060  Biso   1.000  C
  C42      1.0000 0.67150  0.12400  0.49940  Biso   1.000  C
  C43      1.0000 0.67150  0.37600  0.99940  Biso   1.000  C
  C44      1.0000 0.32850  0.87600  0.50060  Biso   1.000  C
  F49      1.0000 0.37192  0.58570  0.01010  Biso   1.000  F
  F50      1.0000 0.62808  0.08570  0.48990  Biso   1.000  F
  F51      1.0000 0.62808  0.41430  0.98990  Biso   1.000  F
  F52      1.0000 0.37192  0.91430  0.51010  Biso   1.000  F
  F53      1.0000 0.29357  0.63410  0.93464  Biso   1.000  F
  F54      1.0000 0.70643  0.13410  0.56536  Biso   1.000  F
  F55      1.0000 0.70643  0.36590  0.06536  Biso   1.000  F
  F56      1.0000 0.29357  0.86590  0.43464  Biso   1.000  F
  F57      1.0000 0.33065  0.75230  0.01748  Biso   1.000  F
  F58      1.0000 0.66935  0.25230  0.48252  Biso   1.000  F
  F59      1.0000 0.66935  0.24770  0.98252  Biso   1.000  F
  F60      1.0000 0.33065  0.74770  0.51748  Biso   1.000  F
  C45      1.0000 0.30504  0.52310  0.02367  Biso   1.000  C
  C46      1.0000 0.69496  0.02310  0.47633  Biso   1.000  C
  C47      1.0000 0.69496  0.47690  0.97633  Biso   1.000  C
  C48      1.0000 0.30504  0.97690  0.52367  Biso   1.000  C
  C49      1.0000 0.29844  0.56810  0.06974  Biso   1.000  C
  C50      1.0000 0.70156  0.06810  0.43026  Biso   1.000  C
  C51      1.0000 0.70156  0.43190  0.93026  Biso   1.000  C
  C52      1.0000 0.29844  0.93190  0.56974  Biso   1.000  C
  H9       1.0000 0.30340  0.66100  0.08110  Biso   1.000  H
  H10      1.0000 0.69660  0.16100  0.41890  Biso   1.000  H
  H11      1.0000 0.69660  0.33900  0.91890  Biso   1.000  H
  H12      1.0000 0.30340  0.83900  0.58110  Biso   1.000  H
  C53      1.0000 0.27752  0.48330  0.09467  Biso   1.000  C
  C54      1.0000 0.72248  0.98330  0.40533  Biso   1.000  C
  C55      1.0000 0.72248  0.51670  0.90533  Biso   1.000  C
  C56      1.0000 0.27752  0.01670  0.59467  Biso   1.000  C
  C57      1.0000 0.26804  0.54870  0.14150  Biso   1.000  C
  C58      1.0000 0.73196  0.04870  0.35850  Biso   1.000  C
  C59      1.0000 0.73196  0.45130  0.85850  Biso   1.000  C
  C60      1.0000 0.26804  0.95130  0.64150  Biso   1.000  C
  F61      1.0000 0.28720  0.46990  0.19292  Biso   1.000  F
  F62      1.0000 0.71280  0.96990  0.30708  Biso   1.000  F
  F63      1.0000 0.71280  0.53010  0.80708  Biso   1.000  F
  F64      1.0000 0.28720  0.03010  0.69292  Biso   1.000  F
  F65      1.0000 0.28967  0.67250  0.16251  Biso   1.000  F
  F66      1.0000 0.71033  0.17250  0.33749  Biso   1.000  F
  F67      1.0000 0.71033  0.32750  0.83749  Biso   1.000  F
  F68      1.0000 0.28967  0.82750  0.66251  Biso   1.000  F
  F69      1.0000 0.21446  0.56270  0.11258  Biso   1.000  F
  F70      1.0000 0.78554  0.06270  0.38742  Biso   1.000  F
  F71      1.0000 0.78554  0.43730  0.88742  Biso   1.000  F
  F72      1.0000 0.21446  0.93730  0.61258  Biso   1.000  F
  O21      1.0000 0.26480  0.36030  0.08286  Biso   1.000  O
  O22      1.0000 0.73520  0.86030  0.41714  Biso   1.000  O
  O23      1.0000 0.73520  0.63970  0.91714  Biso   1.000  O
  O24      1.0000 0.26480  0.13970  0.58286  Biso   1.000  O
  Cu7      1.0000 0.50000  0.50000  0.00000  Biso   1.000  Cu
  Cu8      1.0000 0.50000  0.00000  0.50000  Biso   1.000  Cu
  O25      1.0000 0.43635  0.56750  0.91405  Biso   1.000  O
  O26      1.0000 0.56365  0.06750  0.58595  Biso   1.000  O
  O27      1.0000 0.56365  0.43250  0.08595  Biso   1.000  O
  O28      1.0000 0.43635  0.93250  0.41405  Biso   1.000  O
  C61      1.0000 0.37485  0.72440  0.83300  Biso   1.000  C
  C62      1.0000 0.62515  0.22440  0.66700  Biso   1.000  C
  C63      1.0000 0.62515  0.27560  0.16700  Biso   1.000  C
  C64      1.0000 0.37485  0.77560  0.33300  Biso   1.000  C
  F73      1.0000 0.35879  0.84900  0.82168  Biso   1.000  F
  F74      1.0000 0.64121  0.34900  0.67832  Biso   1.000  F
  F75      1.0000 0.64121  0.15100  0.17832  Biso   1.000  F
  F76      1.0000 0.35879  0.65100  0.32168  Biso   1.000  F
  F77      1.0000 0.39124  0.69490  0.79908  Biso   1.000  F
  F78      1.0000 0.60876  0.19490  0.70092  Biso   1.000  F
  F79      1.0000 0.60876  0.30510  0.20092  Biso   1.000  F
  F80      1.0000 0.39124  0.80510  0.29908  Biso   1.000  F
  F81      1.0000 0.33065  0.65500  0.80671  Biso   1.000  F
  F82      1.0000 0.66935  0.15500  0.69329  Biso   1.000  F
  F83      1.0000 0.66935  0.34500  0.19329  Biso   1.000  F
  F84      1.0000 0.33065  0.84500  0.30671  Biso   1.000  F
  C65      1.0000 0.41753  0.68730  0.90454  Biso   1.000  C
  C66      1.0000 0.58247  0.18730  0.59546  Biso   1.000  C
  C67      1.0000 0.58247  0.31270  0.09546  Biso   1.000  C
  C68      1.0000 0.41753  0.81270  0.40454  Biso   1.000  C
  C69      1.0000 0.43106  0.78820  0.95002  Biso   1.000  C
  C70      1.0000 0.56894  0.28820  0.54998  Biso   1.000  C
  C71      1.0000 0.56894  0.21180  0.04998  Biso   1.000  C
  C72      1.0000 0.43106  0.71180  0.45002  Biso   1.000  C
  H13      1.0000 0.41830  0.87300  0.94070  Biso   1.000  H
  H14      1.0000 0.58170  0.37300  0.55930  Biso   1.000  H
  H15      1.0000 0.58170  0.12700  0.05930  Biso   1.000  H
  H16      1.0000 0.41830  0.62700  0.44070  Biso   1.000  H
  C73      1.0000 0.46878  0.76530  0.01647  Biso   1.000  C
  C74      1.0000 0.53122  0.26530  0.48353  Biso   1.000  C
  C75      1.0000 0.53122  0.23470  0.98353  Biso   1.000  C
  C76      1.0000 0.46878  0.73470  0.51647  Biso   1.000  C
  C77      1.0000 0.48119  0.88520  0.06171  Biso   1.000  C
  C78      1.0000 0.51881  0.38520  0.43829  Biso   1.000  C
  C79      1.0000 0.51881  0.11480  0.93829  Biso   1.000  C
  C80      1.0000 0.48119  0.61480  0.56171  Biso   1.000  C
  F85      1.0000 0.45977  0.86710  0.09288  Biso   1.000  F
  F86      1.0000 0.54023  0.36710  0.40712  Biso   1.000  F
  F87      1.0000 0.54023  0.13290  0.90712  Biso   1.000  F
  F88      1.0000 0.45977  0.63290  0.59288  Biso   1.000  F
  F89      1.0000 0.53592  0.89730  0.10851  Biso   1.000  F
  F90      1.0000 0.46408  0.39730  0.39149  Biso   1.000  F
  F91      1.0000 0.46408  0.10270  0.89149  Biso   1.000  F
  F92      1.0000 0.53592  0.60270  0.60851  Biso   1.000  F
  F93      1.0000 0.46639  0.00630  0.03309  Biso   1.000  F
  F94      1.0000 0.53361  0.50630  0.46691  Biso   1.000  F
  F95      1.0000 0.53361  0.99370  0.96691  Biso   1.000  F
  F96      1.0000 0.46639  0.49370  0.53309  Biso   1.000  F
  O29      1.0000 0.49523  0.65720  0.04524  Biso   1.000  O
  O30      1.0000 0.50477  0.15720  0.45476  Biso   1.000  O
  O31      1.0000 0.50477  0.34280  0.95476  Biso   1.000  O
  O32      1.0000 0.49523  0.84280  0.54524  Biso   1.000  O
  O33      1.0000 0.18378  0.38890  0.95075  Biso   1.000  O
  O34      1.0000 0.81622  0.88890  0.54925  Biso   1.000  O
  O35      1.0000 0.81622  0.61110  0.04925  Biso   1.000  O
  O36      1.0000 0.18378  0.11110  0.45075  Biso   1.000  O
  N1       1.0000 0.13624  0.36380  0.89532  Biso   1.000  N
  N2       1.0000 0.86376  0.86380  0.60468  Biso   1.000  N
  N3       1.0000 0.86376  0.63620  0.10468  Biso   1.000  N
  N4       1.0000 0.13624  0.13620  0.39532  Biso   1.000  N
  C81      1.0000 0.12048  0.42680  0.83285  Biso   1.000  C
  C82      1.0000 0.87952  0.92680  0.66715  Biso   1.000  C
  C83      1.0000 0.87952  0.57320  0.16715  Biso   1.000  C
  C84      1.0000 0.12048  0.07320  0.33285  Biso   1.000  C
  C85      1.0000 0.10770  0.57740  0.83510  Biso   1.000  C
  C86      1.0000 0.89230  0.07740  0.66490  Biso   1.000  C
  C87      1.0000 0.89230  0.42260  0.16490  Biso   1.000  C
  C88      1.0000 0.10770  0.92260  0.33510  Biso   1.000  C
  H17      1.0000 0.07660  0.59700  0.83640  Biso   1.000  H
  H18      1.0000 0.92340  0.09700  0.66360  Biso   1.000  H
  H19      1.0000 0.92340  0.40300  0.16360  Biso   1.000  H
  H20      1.0000 0.07660  0.90300  0.33640  Biso   1.000  H
  H21      1.0000 0.10030  0.62200  0.79980  Biso   1.000  H
  H22      1.0000 0.89970  0.12200  0.70020  Biso   1.000  H
  H23      1.0000 0.89970  0.37800  0.20020  Biso   1.000  H
  H24      1.0000 0.10030  0.87800  0.29980  Biso   1.000  H
  H25      1.0000 0.14190  0.61000  0.87600  Biso   1.000  H
  H26      1.0000 0.85810  0.11000  0.62400  Biso   1.000  H
  H27      1.0000 0.85810  0.39000  0.12400  Biso   1.000  H
  H28      1.0000 0.14190  0.89000  0.37600  Biso   1.000  H
  C89      1.0000 0.16828  0.41420  0.82780  Biso   1.000  C
  C90      1.0000 0.83172  0.91420  0.67220  Biso   1.000  C
  C91      1.0000 0.83172  0.58580  0.17220  Biso   1.000  C
  C92      1.0000 0.16828  0.08580  0.32780  Biso   1.000  C
  H29      1.0000 0.18370  0.32100  0.83680  Biso   1.000  H
  H30      1.0000 0.81630  0.82100  0.66320  Biso   1.000  H
  H31      1.0000 0.81630  0.67900  0.16320  Biso   1.000  H
  H32      1.0000 0.18370  0.17900  0.33680  Biso   1.000  H
  H33      1.0000 0.20100  0.47800  0.85100  Biso   1.000  H
  H34      1.0000 0.79900  0.97800  0.64900  Biso   1.000  H
  H35      1.0000 0.79900  0.52200  0.14900  Biso   1.000  H
  H36      1.0000 0.20100  0.02200  0.35100  Biso   1.000  H
  H37      1.0000 0.15900  0.44800  0.78700  Biso   1.000  H
  H38      1.0000 0.84100  0.94800  0.71300  Biso   1.000  H
  H39      1.0000 0.84100  0.55200  0.21300  Biso   1.000  H
  H40      1.0000 0.15900  0.05200  0.28700  Biso   1.000  H
  C93      1.0000 0.06881  0.33830  0.78325  Biso   1.000  C
  C94      1.0000 0.93119  0.83830  0.71675  Biso   1.000  C
  C95      1.0000 0.93119  0.66170  0.21675  Biso   1.000  C
  C96      1.0000 0.06881  0.16170  0.28325  Biso   1.000  C
  C97      1.0000 0.02340  0.41200  0.72120  Biso   1.000  C
  C98      1.0000 0.97660  0.91200  0.77880  Biso   1.000  C
  C99      1.0000 0.97660  0.58800  0.27880  Biso   1.000  C
  C100     1.0000 0.02340  0.08800  0.22120  Biso   1.000  C
  H41      1.0000 0.01490  0.47900  0.73150  Biso   1.000  H
  H42      1.0000 0.98510  0.97900  0.76850  Biso   1.000  H
  H43      1.0000 0.98510  0.52100  0.26850  Biso   1.000  H
  H44      1.0000 0.01490  0.02100  0.23150  Biso   1.000  H
  H45      1.0000 0.99550  0.35400  0.69400  Biso   1.000  H
  H46      1.0000 0.00450  0.85400  0.80600  Biso   1.000  H
  H47      1.0000 0.00450  0.64600  0.30600  Biso   1.000  H
  H48      1.0000 0.99550  0.14600  0.19400  Biso   1.000  H
  H49      1.0000 0.03400  0.42100  0.68700  Biso   1.000  H
  H50      1.0000 0.96600  0.92100  0.81300  Biso   1.000  H
  H51      1.0000 0.96600  0.57900  0.31300  Biso   1.000  H
  H52      1.0000 0.03400  0.07900  0.18700  Biso   1.000  H
  C101     1.0000 0.08280  0.20080  0.76750  Biso   1.000  C
  C102     1.0000 0.91720  0.70080  0.73250  Biso   1.000  C
  C103     1.0000 0.91720  0.79920  0.23250  Biso   1.000  C
  C104     1.0000 0.08280  0.29920  0.26750  Biso   1.000  C
  H53      1.0000 0.11050  0.16000  0.80900  Biso   1.000  H
  H54      1.0000 0.88950  0.66000  0.69100  Biso   1.000  H
  H55      1.0000 0.88950  0.84000  0.19100  Biso   1.000  H
  H56      1.0000 0.11050  0.34000  0.30900  Biso   1.000  H
  H57      1.0000 0.09470  0.22500  0.73890  Biso   1.000  H
  H58      1.0000 0.90530  0.72500  0.76110  Biso   1.000  H
  H59      1.0000 0.90530  0.77500  0.26110  Biso   1.000  H
  H60      1.0000 0.09470  0.27500  0.23890  Biso   1.000  H
  H61      1.0000 0.05500  0.14700  0.74100  Biso   1.000  H
  H62      1.0000 0.94500  0.64700  0.75900  Biso   1.000  H
  H63      1.0000 0.94500  0.85300  0.25900  Biso   1.000  H
  H64      1.0000 0.05500  0.35300  0.24100  Biso   1.000  H
  N5       1.0000 0.05004  0.30370  0.82449  Biso   1.000  N
  N6       1.0000 0.94996  0.80370  0.67551  Biso   1.000  N
  N7       1.0000 0.94996  0.69630  0.17551  Biso   1.000  N
  N8       1.0000 0.05004  0.19630  0.32449  Biso   1.000  N
  O37      1.0000 0.00152  0.25900  0.80056  Biso   1.000  O
  O38      1.0000 0.99848  0.75900  0.69944  Biso   1.000  O
  O39      1.0000 0.99848  0.74100  0.19944  Biso   1.000  O
  O40      1.0000 0.00152  0.24100  0.30056  Biso   1.000  O
  C105     1.0000 0.09253  0.30800  0.88856  Biso   1.000  C
  C106     1.0000 0.90747  0.80800  0.61144  Biso   1.000  C
  C107     1.0000 0.90747  0.69200  0.11144  Biso   1.000  C
  C108     1.0000 0.09253  0.19200  0.38856  Biso   1.000  C
  C109     1.0000 0.09119  0.25670  0.94082  Biso   1.000  C
  C110     1.0000 0.90881  0.75670  0.55918  Biso   1.000  C
  C111     1.0000 0.90881  0.74330  0.05918  Biso   1.000  C
  C112     1.0000 0.09119  0.24330  0.44082  Biso   1.000  C
  C113     1.0000 0.04975  0.17950  0.93587  Biso   1.000  C
  C114     1.0000 0.95025  0.67950  0.56413  Biso   1.000  C
  C115     1.0000 0.95025  0.82050  0.06413  Biso   1.000  C
  C116     1.0000 0.04975  0.32050  0.43587  Biso   1.000  C
  H65      1.0000 0.01650  0.15100  0.90080  Biso   1.000  H
  H66      1.0000 0.98350  0.65100  0.59920  Biso   1.000  H
  H67      1.0000 0.98350  0.84900  0.09920  Biso   1.000  H
  H68      1.0000 0.01650  0.34900  0.40080  Biso   1.000  H
  N9       1.0000 0.06413  0.14310  0.99382  Biso   1.000  N
  N10      1.0000 0.93587  0.64310  0.50618  Biso   1.000  N
  N11      1.0000 0.93587  0.85690  0.00618  Biso   1.000  N
  N12      1.0000 0.06413  0.35690  0.49382  Biso   1.000  N
  N13      1.0000 0.11593  0.19730  0.03673  Biso   1.000  N
  N14      1.0000 0.88407  0.69730  0.46327  Biso   1.000  N
  N15      1.0000 0.88407  0.80270  0.96327  Biso   1.000  N
  N16      1.0000 0.11593  0.30270  0.53673  Biso   1.000  N
  C117     1.0000 0.14860  0.17000  0.10686  Biso   1.000  C
  C118     1.0000 0.85140  0.67000  0.39314  Biso   1.000  C
  C119     1.0000 0.85140  0.83000  0.89314  Biso   1.000  C
  C120     1.0000 0.14860  0.33000  0.60686  Biso   1.000  C
  H69      1.0000 0.17890  0.20600  0.12190  Biso   1.000  H
  H70      1.0000 0.82110  0.70600  0.37810  Biso   1.000  H
  H71      1.0000 0.82110  0.79400  0.87810  Biso   1.000  H
  H72      1.0000 0.17890  0.29400  0.62190  Biso   1.000  H
  H73      1.0000 0.15170  0.06300  0.11350  Biso   1.000  H
  H74      1.0000 0.84830  0.56300  0.38650  Biso   1.000  H
  H75      1.0000 0.84830  0.93700  0.88650  Biso   1.000  H
  H76      1.0000 0.15170  0.43700  0.61350  Biso   1.000  H
  C121     1.0000 0.12577  0.23470  0.13971  Biso   1.000  C
  C122     1.0000 0.87423  0.73470  0.36029  Biso   1.000  C
  C123     1.0000 0.87423  0.76530  0.86029  Biso   1.000  C
  C124     1.0000 0.12577  0.26530  0.63971  Biso   1.000  C
  H77      1.0000 0.15520  0.21400  0.18950  Biso   1.000  H
  H78      1.0000 0.84480  0.71400  0.31050  Biso   1.000  H
  H79      1.0000 0.84480  0.78600  0.81050  Biso   1.000  H
  H80      1.0000 0.15520  0.28600  0.68950  Biso   1.000  H
  H81      1.0000 0.09040  0.18800  0.12380  Biso   1.000  H
  H82      1.0000 0.90960  0.68800  0.37620  Biso   1.000  H
  H83      1.0000 0.90960  0.81200  0.87620  Biso   1.000  H
  H84      1.0000 0.09040  0.31200  0.62380  Biso   1.000  H
  C125     1.0000 0.12070  0.38870  0.13260  Biso   1.000  C
  C126     1.0000 0.87930  0.88870  0.36740  Biso   1.000  C
  C127     1.0000 0.87930  0.61130  0.86740  Biso   1.000  C
  C128     1.0000 0.12070  0.11130  0.63260  Biso   1.000  C
  H85      1.0000 0.10850  0.42600  0.15560  Biso   1.000  H
  H86      1.0000 0.89150  0.92600  0.34440  Biso   1.000  H
  H87      1.0000 0.89150  0.57400  0.84440  Biso   1.000  H
  H88      1.0000 0.10850  0.07400  0.65560  Biso   1.000  H
  H89      1.0000 0.09870  0.42100  0.09200  Biso   1.000  H
  H90      1.0000 0.90130  0.92100  0.40800  Biso   1.000  H
  H91      1.0000 0.90130  0.57900  0.90800  Biso   1.000  H
  H92      1.0000 0.09870  0.07900  0.59200  Biso   1.000  H
  H93      1.0000 0.15900  0.42900  0.15300  Biso   1.000  H
  H94      1.0000 0.84100  0.92900  0.34700  Biso   1.000  H
  H95      1.0000 0.84100  0.57100  0.84700  Biso   1.000  H
  H96      1.0000 0.15900  0.07100  0.65300  Biso   1.000  H
  C129     1.0000 0.13265  0.26570  0.00637  Biso   1.000  C
  C130     1.0000 0.86735  0.76570  0.49363  Biso   1.000  C
  C131     1.0000 0.86735  0.73430  0.99363  Biso   1.000  C
  C132     1.0000 0.13265  0.23430  0.50637  Biso   1.000  C
  H97      1.0000 0.16430  0.30500  0.03090  Biso   1.000  H
  H98      1.0000 0.83570  0.80500  0.46910  Biso   1.000  H
  H99      1.0000 0.83570  0.69500  0.96910  Biso   1.000  H
  H100     1.0000 0.16430  0.19500  0.53090  Biso   1.000  H
  O41      1.0000 0.31887  0.11970  0.05079  Biso   1.000  O
  O42      1.0000 0.68113  0.61970  0.44921  Biso   1.000  O
  O43      1.0000 0.68113  0.88030  0.94921  Biso   1.000  O
  O44      1.0000 0.31887  0.38030  0.55079  Biso   1.000  O
  N17      1.0000 0.36484  0.14860  0.10799  Biso   1.000  N
  N18      1.0000 0.63516  0.64860  0.39201  Biso   1.000  N
  N19      1.0000 0.63516  0.85140  0.89201  Biso   1.000  N
  N20      1.0000 0.36484  0.35140  0.60799  Biso   1.000  N
  C133     1.0000 0.37849  0.08480  0.16911  Biso   1.000  C
  C134     1.0000 0.62151  0.58480  0.33089  Biso   1.000  C
  C135     1.0000 0.62151  0.91520  0.83089  Biso   1.000  C
  C136     1.0000 0.37849  0.41520  0.66911  Biso   1.000  C
  C137     1.0000 0.39330  0.93480  0.16820  Biso   1.000  C
  C138     1.0000 0.60670  0.43480  0.33180  Biso   1.000  C
  C139     1.0000 0.60670  0.06520  0.83180  Biso   1.000  C
  C140     1.0000 0.39330  0.56520  0.66820  Biso   1.000  C
  H101     1.0000 0.42540  0.92300  0.16900  Biso   1.000  H
  H102     1.0000 0.57460  0.42300  0.33100  Biso   1.000  H
  H103     1.0000 0.57460  0.07700  0.83100  Biso   1.000  H
  H104     1.0000 0.42540  0.57700  0.66900  Biso   1.000  H
  H105     1.0000 0.35930  0.89800  0.12500  Biso   1.000  H
  H106     1.0000 0.64070  0.39800  0.37500  Biso   1.000  H
  H107     1.0000 0.64070  0.10200  0.87500  Biso   1.000  H
  H108     1.0000 0.35930  0.60200  0.62500  Biso   1.000  H
  H109     1.0000 0.40050  0.88400  0.20300  Biso   1.000  H
  H110     1.0000 0.59950  0.38400  0.29700  Biso   1.000  H
  H111     1.0000 0.59950  0.11600  0.79700  Biso   1.000  H
  H112     1.0000 0.40050  0.61600  0.70300  Biso   1.000  H
  C141     1.0000 0.32850  0.09030  0.17040  Biso   1.000  C
  C142     1.0000 0.67150  0.59030  0.32960  Biso   1.000  C
  C143     1.0000 0.67150  0.90970  0.82960  Biso   1.000  C
  C144     1.0000 0.32850  0.40970  0.67040  Biso   1.000  C
  H113     1.0000 0.31460  0.17900  0.16500  Biso   1.000  H
  H114     1.0000 0.68540  0.67900  0.33500  Biso   1.000  H
  H115     1.0000 0.68540  0.82100  0.83500  Biso   1.000  H
  H116     1.0000 0.31460  0.32100  0.66500  Biso   1.000  H
  H117     1.0000 0.33750  0.05500  0.21100  Biso   1.000  H
  H118     1.0000 0.66250  0.55500  0.28900  Biso   1.000  H
  H119     1.0000 0.66250  0.94500  0.78900  Biso   1.000  H
  H120     1.0000 0.33750  0.44500  0.71100  Biso   1.000  H
  H121     1.0000 0.29600  0.03300  0.14500  Biso   1.000  H
  H122     1.0000 0.70400  0.53300  0.35500  Biso   1.000  H
  H123     1.0000 0.70400  0.96700  0.85500  Biso   1.000  H
  H124     1.0000 0.29600  0.46700  0.64500  Biso   1.000  H
  C145     1.0000 0.42796  0.17620  0.22021  Biso   1.000  C
  C146     1.0000 0.57204  0.67620  0.27979  Biso   1.000  C
  C147     1.0000 0.57204  0.82380  0.77979  Biso   1.000  C
  C148     1.0000 0.42796  0.32380  0.72021  Biso   1.000  C
  C149     1.0000 0.41150  0.31200  0.23430  Biso   1.000  C
  C150     1.0000 0.58850  0.81200  0.26570  Biso   1.000  C
  C151     1.0000 0.58850  0.68800  0.76570  Biso   1.000  C
  C152     1.0000 0.41150  0.18800  0.73430  Biso   1.000  C
  H125     1.0000 0.38210  0.34800  0.19200  Biso   1.000  H
  H126     1.0000 0.61790  0.84800  0.30800  Biso   1.000  H
  H127     1.0000 0.61790  0.65200  0.80800  Biso   1.000  H
  H128     1.0000 0.38210  0.15200  0.69200  Biso   1.000  H
  H129     1.0000 0.43760  0.36400  0.26000  Biso   1.000  H
  H130     1.0000 0.56240  0.86400  0.24000  Biso   1.000  H
  H131     1.0000 0.56240  0.63600  0.74000  Biso   1.000  H
  H132     1.0000 0.43760  0.13600  0.76000  Biso   1.000  H
  H133     1.0000 0.39800  0.29800  0.26100  Biso   1.000  H
  H134     1.0000 0.60200  0.79800  0.23900  Biso   1.000  H
  H135     1.0000 0.60200  0.70200  0.73900  Biso   1.000  H
  H136     1.0000 0.39800  0.20200  0.76100  Biso   1.000  H
  C153     1.0000 0.47270  0.10350  0.28320  Biso   1.000  C
  C154     1.0000 0.52730  0.60350  0.21680  Biso   1.000  C
  C155     1.0000 0.52730  0.89650  0.71680  Biso   1.000  C
  C156     1.0000 0.47270  0.39650  0.78320  Biso   1.000  C
  H137     1.0000 0.48580  0.04100  0.27500  Biso   1.000  H
  H138     1.0000 0.51420  0.54100  0.22500  Biso   1.000  H
  H139     1.0000 0.51420  0.95900  0.72500  Biso   1.000  H
  H140     1.0000 0.48580  0.45900  0.77500  Biso   1.000  H
  H141     1.0000 0.46200  0.09100  0.31500  Biso   1.000  H
  H142     1.0000 0.53800  0.59100  0.18500  Biso   1.000  H
  H143     1.0000 0.53800  0.90900  0.68500  Biso   1.000  H
  H144     1.0000 0.46200  0.40900  0.81500  Biso   1.000  H
  H145     1.0000 0.50040  0.16600  0.31000  Biso   1.000  H
  H146     1.0000 0.49960  0.66600  0.19000  Biso   1.000  H
  H147     1.0000 0.49960  0.83400  0.69000  Biso   1.000  H
  H148     1.0000 0.50040  0.33400  0.81000  Biso   1.000  H
  N21      1.0000 0.44948  0.21420  0.18210  Biso   1.000  N
  N22      1.0000 0.55052  0.71420  0.31790  Biso   1.000  N
  N23      1.0000 0.55052  0.78580  0.81790  Biso   1.000  N
  N24      1.0000 0.44948  0.28580  0.68210  Biso   1.000  N
  O45      1.0000 0.49804  0.26220  0.20856  Biso   1.000  O
  O46      1.0000 0.50196  0.76220  0.29144  Biso   1.000  O
  O47      1.0000 0.50196  0.73780  0.79144  Biso   1.000  O
  O48      1.0000 0.49804  0.23780  0.70856  Biso   1.000  O
  C157     1.0000 0.40921  0.20740  0.11738  Biso   1.000  C
  C158     1.0000 0.59079  0.70740  0.38262  Biso   1.000  C
  C159     1.0000 0.59079  0.79260  0.88262  Biso   1.000  C
  C160     1.0000 0.40921  0.29260  0.61738  Biso   1.000  C
  C161     1.0000 0.41371  0.25280  0.06707  Biso   1.000  C
  C162     1.0000 0.58629  0.75280  0.43293  Biso   1.000  C
  C163     1.0000 0.58629  0.74720  0.93293  Biso   1.000  C
  C164     1.0000 0.41371  0.24720  0.56707  Biso   1.000  C
  C165     1.0000 0.45516  0.33250  0.07302  Biso   1.000  C
  C166     1.0000 0.54484  0.83250  0.42698  Biso   1.000  C
  C167     1.0000 0.54484  0.66750  0.92698  Biso   1.000  C
  C168     1.0000 0.45516  0.16750  0.57302  Biso   1.000  C
  H149     1.0000 0.48630  0.36900  0.10600  Biso   1.000  H
  H150     1.0000 0.51370  0.86900  0.39400  Biso   1.000  H
  H151     1.0000 0.51370  0.63100  0.89400  Biso   1.000  H
  H152     1.0000 0.48630  0.13100  0.60600  Biso   1.000  H
  N25      1.0000 0.44508  0.35150  0.01566  Biso   1.000  N
  N26      1.0000 0.55492  0.85150  0.48434  Biso   1.000  N
  N27      1.0000 0.55492  0.64850  0.98434  Biso   1.000  N
  N28      1.0000 0.44508  0.14850  0.51566  Biso   1.000  N
  N29      1.0000 0.39673  0.28240  0.97251  Biso   1.000  N
  N30      1.0000 0.60327  0.78240  0.52749  Biso   1.000  N
  N31      1.0000 0.60327  0.71760  0.02749  Biso   1.000  N
  N32      1.0000 0.39673  0.21760  0.47251  Biso   1.000  N
  C169     1.0000 0.37102  0.27700  0.90218  Biso   1.000  C
  C170     1.0000 0.62898  0.77700  0.59782  Biso   1.000  C
  C171     1.0000 0.62898  0.72300  0.09782  Biso   1.000  C
  C172     1.0000 0.37102  0.22300  0.40218  Biso   1.000  C
  H153     1.0000 0.39590  0.32200  0.89880  Biso   1.000  H
  H154     1.0000 0.60410  0.82200  0.60120  Biso   1.000  H
  H155     1.0000 0.60410  0.67800  0.10120  Biso   1.000  H
  H156     1.0000 0.39590  0.17800  0.39880  Biso   1.000  H
  H157     1.0000 0.36670  0.17700  0.89200  Biso   1.000  H
  H158     1.0000 0.63330  0.67700  0.60800  Biso   1.000  H
  H159     1.0000 0.63330  0.82300  0.10800  Biso   1.000  H
  H160     1.0000 0.36670  0.32300  0.39200  Biso   1.000  H
  C173     1.0000 0.31610  0.34740  0.86190  Biso   1.000  C
  C174     1.0000 0.68390  0.84740  0.63810  Biso   1.000  C
  C175     1.0000 0.68390  0.65260  0.13810  Biso   1.000  C
  C176     1.0000 0.31610  0.15260  0.36190  Biso   1.000  C
  H161     1.0000 0.32400  0.44300  0.86900  Biso   1.000  H
  H162     1.0000 0.67600  0.94300  0.63100  Biso   1.000  H
  H163     1.0000 0.67600  0.55700  0.13100  Biso   1.000  H
  H164     1.0000 0.32400  0.05700  0.36900  Biso   1.000  H
  H165     1.0000 0.29250  0.31700  0.86910  Biso   1.000  H
  H166     1.0000 0.70750  0.81700  0.63090  Biso   1.000  H
  H167     1.0000 0.70750  0.68300  0.13090  Biso   1.000  H
  H168     1.0000 0.29250  0.18300  0.36910  Biso   1.000  H
  C177     1.0000 0.28830  0.32820  0.78940  Biso   1.000  C
  C178     1.0000 0.71170  0.82820  0.71060  Biso   1.000  C
  C179     1.0000 0.71170  0.67180  0.21060  Biso   1.000  C
  C180     1.0000 0.28830  0.17180  0.28940  Biso   1.000  C
  H169     1.0000 0.25600  0.38300  0.76500  Biso   1.000  H
  H170     1.0000 0.74400  0.88300  0.73500  Biso   1.000  H
  H171     1.0000 0.74400  0.61700  0.23500  Biso   1.000  H
  H172     1.0000 0.25600  0.11700  0.26500  Biso   1.000  H
  H173     1.0000 0.28900  0.23600  0.78200  Biso   1.000  H
  H174     1.0000 0.71100  0.73600  0.71800  Biso   1.000  H
  H175     1.0000 0.71100  0.76400  0.21800  Biso   1.000  H
  H176     1.0000 0.28900  0.26400  0.28200  Biso   1.000  H
  H177     1.0000 0.31260  0.35700  0.77800  Biso   1.000  H
  H178     1.0000 0.68740  0.85700  0.72200  Biso   1.000  H
  H179     1.0000 0.68740  0.64300  0.22200  Biso   1.000  H
  H180     1.0000 0.31260  0.14300  0.27800  Biso   1.000  H
  C181     1.0000 0.37708  0.22370  0.00158  Biso   1.000  C
  C182     1.0000 0.62292  0.72370  0.49842  Biso   1.000  C
  C183     1.0000 0.62292  0.77630  0.99842  Biso   1.000  C
  C184     1.0000 0.37708  0.27630  0.50158  Biso   1.000  C
  H181     1.0000 0.34570  0.16700  0.97600  Biso   1.000  H
  H182     1.0000 0.65430  0.66700  0.52400  Biso   1.000  H
  H183     1.0000 0.65430  0.83300  0.02400  Biso   1.000  H
  H184     1.0000 0.34570  0.33300  0.47600  Biso   1.000  H
