data_image0
_cell_length_a       30.306
_cell_length_b       9.6673
_cell_length_c       25.6901
_cell_angle_alpha    90
_cell_angle_beta     126.469
_cell_angle_gamma    90

_symmetry_space_group_name_H-M    "P 1"
_symmetry_int_tables_number       1

loop_
  _symmetry_equiv_pos_as_xyz
  'x, y, z'

loop_
  _atom_site_label
  _atom_site_occupancy
  _atom_site_fract_x
  _atom_site_fract_y
  _atom_site_fract_z
  _atom_site_thermal_displace_type
  _atom_site_B_iso_or_equiv
  _atom_site_type_symbol
  Cu1      1.0000 0.00000  0.00000  0.00000  Biso   1.000  Cu
  Cu2      1.0000 0.00000  0.50000  0.50000  Biso   1.000  Cu
  O1       1.0000 0.94186  0.06410  0.91286  Biso   1.000  O
  O2       1.0000 0.05814  0.56410  0.58714  Biso   1.000  O
  O3       1.0000 0.05814  0.93590  0.08714  Biso   1.000  O
  O4       1.0000 0.94186  0.43590  0.41286  Biso   1.000  O
  C1       1.0000 0.87107  0.19610  0.82759  Biso   1.000  C
  C2       1.0000 0.12893  0.69610  0.67241  Biso   1.000  C
  C3       1.0000 0.12893  0.80390  0.17241  Biso   1.000  C
  C4       1.0000 0.87107  0.30390  0.32759  Biso   1.000  C
  F1       1.0000 0.83300  0.28800  0.81150  Biso   1.000  F
  F2       1.0000 0.16700  0.78800  0.68850  Biso   1.000  F
  F3       1.0000 0.16700  0.71200  0.18850  Biso   1.000  F
  F4       1.0000 0.83300  0.21200  0.31150  Biso   1.000  F
  F5       1.0000 0.84480  0.08800  0.79720  Biso   1.000  F
  F6       1.0000 0.15520  0.58800  0.70280  Biso   1.000  F
  F7       1.0000 0.15520  0.91200  0.20280  Biso   1.000  F
  F8       1.0000 0.84480  0.41200  0.29720  Biso   1.000  F
  F9       1.0000 0.89690  0.24000  0.80510  Biso   1.000  F
  F10      1.0000 0.10310  0.74000  0.69490  Biso   1.000  F
  F11      1.0000 0.10310  0.76000  0.19490  Biso   1.000  F
  F12      1.0000 0.89690  0.26000  0.30510  Biso   1.000  F
  C5       1.0000 0.91364  0.17090  0.90053  Biso   1.000  C
  C6       1.0000 0.08636  0.67090  0.59947  Biso   1.000  C
  C7       1.0000 0.08636  0.82910  0.09947  Biso   1.000  C
  C8       1.0000 0.91364  0.32910  0.40053  Biso   1.000  C
  C9       1.0000 0.91660  0.26260  0.94287  Biso   1.000  C
  C10      1.0000 0.08340  0.76260  0.55713  Biso   1.000  C
  C11      1.0000 0.08340  0.73740  0.05713  Biso   1.000  C
  C12      1.0000 0.91660  0.23740  0.44287  Biso   1.000  C
  H1       1.0000 0.89730  0.33100  0.92810  Biso   1.000  H
  H2       1.0000 0.10270  0.83100  0.57190  Biso   1.000  H
  H3       1.0000 0.10270  0.66900  0.07190  Biso   1.000  H
  H4       1.0000 0.89730  0.16900  0.42810  Biso   1.000  H
  C13      1.0000 0.95508  0.25110  0.00956  Biso   1.000  C
  C14      1.0000 0.04492  0.75110  0.49044  Biso   1.000  C
  C15      1.0000 0.04492  0.74890  0.99044  Biso   1.000  C
  C16      1.0000 0.95508  0.24890  0.50956  Biso   1.000  C
  C17      1.0000 0.95747  0.36910  0.05044  Biso   1.000  C
  C18      1.0000 0.04253  0.86910  0.44956  Biso   1.000  C
  C19      1.0000 0.04253  0.63090  0.94956  Biso   1.000  C
  C20      1.0000 0.95747  0.13090  0.55044  Biso   1.000  C
  F13      1.0000 0.90880  0.40540  0.03430  Biso   1.000  F
  F14      1.0000 0.09120  0.90540  0.46570  Biso   1.000  F
  F15      1.0000 0.09120  0.59460  0.96570  Biso   1.000  F
  F16      1.0000 0.90880  0.09460  0.53430  Biso   1.000  F
  F17      1.0000 0.98270  0.33920  0.11510  Biso   1.000  F
  F18      1.0000 0.01730  0.83920  0.38490  Biso   1.000  F
  F19      1.0000 0.01730  0.66080  0.88490  Biso   1.000  F
  F20      1.0000 0.98270  0.16080  0.61510  Biso   1.000  F
  F21      1.0000 0.98090  0.48610  0.04260  Biso   1.000  F
  F22      1.0000 0.01910  0.98610  0.45740  Biso   1.000  F
  F23      1.0000 0.01910  0.51390  0.95740  Biso   1.000  F
  F24      1.0000 0.98090  0.01390  0.54260  Biso   1.000  F
  O5       1.0000 0.98901  0.15630  0.04024  Biso   1.000  O
  O6       1.0000 0.01099  0.65630  0.45976  Biso   1.000  O
  O7       1.0000 0.01099  0.84370  0.95976  Biso   1.000  O
  O8       1.0000 0.98901  0.34370  0.54024  Biso   1.000  O
  Cu3      1.0000 0.25191  0.25357  0.99861  Biso   1.000  Cu
  Cu4      1.0000 0.74808  0.75357  0.50139  Biso   1.000  Cu
  Cu5      1.0000 0.74808  0.74643  0.00139  Biso   1.000  Cu
  Cu6      1.0000 0.25191  0.24643  0.49861  Biso   1.000  Cu
  O9       1.0000 0.24194  0.15310  0.91877  Biso   1.000  O
  O10      1.0000 0.75806  0.65310  0.58123  Biso   1.000  O
  O11      1.0000 0.75806  0.84690  0.08123  Biso   1.000  O
  O12      1.0000 0.24194  0.34690  0.41877  Biso   1.000  O
  C21      1.0000 0.23520  0.97160  0.85550  Biso   1.000  C
  C22      1.0000 0.76480  0.47160  0.64450  Biso   1.000  C
  C23      1.0000 0.76480  0.02840  0.14450  Biso   1.000  C
  C24      1.0000 0.23520  0.52840  0.35550  Biso   1.000  C
  F25      1.0000 0.21064  0.05220  0.80345  Biso   1.000  F
  F26      1.0000 0.78936  0.55220  0.69655  Biso   1.000  F
  F27      1.0000 0.78936  0.94780  0.19655  Biso   1.000  F
  F28      1.0000 0.21064  0.44780  0.30345  Biso   1.000  F
  F29      1.0000 0.21555  0.84680  0.83507  Biso   1.000  F
  F30      1.0000 0.78445  0.34680  0.66493  Biso   1.000  F
  F31      1.0000 0.78445  0.15320  0.16493  Biso   1.000  F
  F32      1.0000 0.21555  0.65320  0.33507  Biso   1.000  F
  F33      1.0000 0.28744  0.96660  0.87961  Biso   1.000  F
  F34      1.0000 0.71256  0.46660  0.62039  Biso   1.000  F
  F35      1.0000 0.71256  0.03340  0.12039  Biso   1.000  F
  F36      1.0000 0.28744  0.53340  0.37961  Biso   1.000  F
  C25      1.0000 0.22731  0.03000  0.90437  Biso   1.000  C
  C26      1.0000 0.77269  0.53000  0.59563  Biso   1.000  C
  C27      1.0000 0.77269  0.97000  0.09563  Biso   1.000  C
  C28      1.0000 0.22731  0.47000  0.40437  Biso   1.000  C
  C29      1.0000 0.20645  0.94480  0.92769  Biso   1.000  C
  C30      1.0000 0.79355  0.44480  0.57231  Biso   1.000  C
  C31      1.0000 0.79355  0.05520  0.07231  Biso   1.000  C
  C32      1.0000 0.20645  0.55520  0.42769  Biso   1.000  C
  H5       1.0000 0.19810  0.85600  0.91420  Biso   1.000  H
  H6       1.0000 0.80190  0.35600  0.58580  Biso   1.000  H
  H7       1.0000 0.80190  0.14400  0.08580  Biso   1.000  H
  H8       1.0000 0.19810  0.64400  0.41420  Biso   1.000  H
  C33      1.0000 0.19958  0.98660  0.97399  Biso   1.000  C
  C34      1.0000 0.80042  0.48660  0.52601  Biso   1.000  C
  C35      1.0000 0.80042  0.01340  0.02601  Biso   1.000  C
  C36      1.0000 0.19958  0.51340  0.47399  Biso   1.000  C
  C37      1.0000 0.17467  0.88560  0.99490  Biso   1.000  C
  C38      1.0000 0.82533  0.38560  0.50510  Biso   1.000  C
  C39      1.0000 0.82533  0.11440  0.00510  Biso   1.000  C
  C40      1.0000 0.17467  0.61440  0.49490  Biso   1.000  C
  F37      1.0000 0.20620  0.88710  0.06280  Biso   1.000  F
  F38      1.0000 0.79380  0.38710  0.43720  Biso   1.000  F
  F39      1.0000 0.79380  0.11290  0.93720  Biso   1.000  F
  F40      1.0000 0.20620  0.61290  0.56280  Biso   1.000  F
  F41      1.0000 0.12720  0.91000  0.97390  Biso   1.000  F
  F42      1.0000 0.87280  0.41000  0.52610  Biso   1.000  F
  F43      1.0000 0.87280  0.09000  0.02610  Biso   1.000  F
  F44      1.0000 0.12720  0.59000  0.47390  Biso   1.000  F
  F45      1.0000 0.18930  0.76000  0.99440  Biso   1.000  F
  F46      1.0000 0.81070  0.26000  0.50560  Biso   1.000  F
  F47      1.0000 0.81070  0.24000  0.00560  Biso   1.000  F
  F48      1.0000 0.18930  0.74000  0.49440  Biso   1.000  F
  O13      1.0000 0.21043  0.10180  0.00118  Biso   1.000  O
  O14      1.0000 0.78957  0.60180  0.49882  Biso   1.000  O
  O15      1.0000 0.78957  0.89820  0.99882  Biso   1.000  O
  O16      1.0000 0.21043  0.39820  0.50118  Biso   1.000  O
  O17      1.0000 0.29307  0.40540  0.99475  Biso   1.000  O
  O18      1.0000 0.70693  0.90540  0.50525  Biso   1.000  O
  O19      1.0000 0.70693  0.59460  0.00525  Biso   1.000  O
  O20      1.0000 0.29307  0.09460  0.49475  Biso   1.000  O
  C41      1.0000 0.32700  0.62300  0.99880  Biso   1.000  C
  C42      1.0000 0.67300  0.12300  0.50120  Biso   1.000  C
  C43      1.0000 0.67300  0.37700  0.00120  Biso   1.000  C
  C44      1.0000 0.32700  0.87700  0.49880  Biso   1.000  C
  F49      1.0000 0.36590  0.58170  0.99980  Biso   1.000  F
  F50      1.0000 0.63410  0.08170  0.50020  Biso   1.000  F
  F51      1.0000 0.63410  0.41830  0.00020  Biso   1.000  F
  F52      1.0000 0.36590  0.91830  0.49980  Biso   1.000  F
  F53      1.0000 0.28550  0.64030  0.93150  Biso   1.000  F
  F54      1.0000 0.71450  0.14030  0.56850  Biso   1.000  F
  F55      1.0000 0.71450  0.35970  0.06850  Biso   1.000  F
  F56      1.0000 0.28550  0.85970  0.43150  Biso   1.000  F
  F57      1.0000 0.33410  0.74850  0.02170  Biso   1.000  F
  F58      1.0000 0.66590  0.24850  0.47830  Biso   1.000  F
  F59      1.0000 0.66590  0.25150  0.97830  Biso   1.000  F
  F60      1.0000 0.33410  0.75150  0.52170  Biso   1.000  F
  C45      1.0000 0.30418  0.52090  0.02199  Biso   1.000  C
  C46      1.0000 0.69582  0.02090  0.47801  Biso   1.000  C
  C47      1.0000 0.69582  0.47910  0.97801  Biso   1.000  C
  C48      1.0000 0.30418  0.97910  0.52199  Biso   1.000  C
  C49      1.0000 0.29773  0.56330  0.06835  Biso   1.000  C
  C50      1.0000 0.70227  0.06330  0.43165  Biso   1.000  C
  C51      1.0000 0.70227  0.43670  0.93165  Biso   1.000  C
  C52      1.0000 0.29773  0.93670  0.56835  Biso   1.000  C
  H9       1.0000 0.30600  0.65400  0.08180  Biso   1.000  H
  H10      1.0000 0.69400  0.15400  0.41820  Biso   1.000  H
  H11      1.0000 0.69400  0.34600  0.91820  Biso   1.000  H
  H12      1.0000 0.30600  0.84600  0.58180  Biso   1.000  H
  C53      1.0000 0.27704  0.47860  0.09248  Biso   1.000  C
  C54      1.0000 0.72296  0.97860  0.40752  Biso   1.000  C
  C55      1.0000 0.72296  0.52140  0.90752  Biso   1.000  C
  C56      1.0000 0.27704  0.02140  0.59248  Biso   1.000  C
  C57      1.0000 0.26860  0.53920  0.14036  Biso   1.000  C
  C58      1.0000 0.73140  0.03920  0.35964  Biso   1.000  C
  C59      1.0000 0.73140  0.46080  0.85964  Biso   1.000  C
  C60      1.0000 0.26860  0.96080  0.64036  Biso   1.000  C
  F61      1.0000 0.28684  0.45780  0.18963  Biso   1.000  F
  F62      1.0000 0.71316  0.95780  0.31037  Biso   1.000  F
  F63      1.0000 0.71316  0.54220  0.81037  Biso   1.000  F
  F64      1.0000 0.28684  0.04220  0.68963  Biso   1.000  F
  F65      1.0000 0.29076  0.66090  0.16281  Biso   1.000  F
  F66      1.0000 0.70924  0.16090  0.33719  Biso   1.000  F
  F67      1.0000 0.70924  0.33910  0.83719  Biso   1.000  F
  F68      1.0000 0.29076  0.83910  0.66281  Biso   1.000  F
  F69      1.0000 0.21568  0.55690  0.11263  Biso   1.000  F
  F70      1.0000 0.78432  0.05690  0.38737  Biso   1.000  F
  F71      1.0000 0.78432  0.44310  0.88737  Biso   1.000  F
  F72      1.0000 0.21568  0.94310  0.61263  Biso   1.000  F
  O21      1.0000 0.26353  0.35490  0.07918  Biso   1.000  O
  O22      1.0000 0.73647  0.85490  0.42082  Biso   1.000  O
  O23      1.0000 0.73647  0.64510  0.92082  Biso   1.000  O
  O24      1.0000 0.26353  0.14510  0.57918  Biso   1.000  O
  Cu7      1.0000 0.50000  0.50000  0.00000  Biso   1.000  Cu
  Cu8      1.0000 0.50000  0.00000  0.50000  Biso   1.000  Cu
  O25      1.0000 0.43758  0.56850  0.91442  Biso   1.000  O
  O26      1.0000 0.56242  0.06850  0.58558  Biso   1.000  O
  O27      1.0000 0.56242  0.43150  0.08558  Biso   1.000  O
  O28      1.0000 0.43758  0.93150  0.41442  Biso   1.000  O
  C61      1.0000 0.37644  0.72630  0.83408  Biso   1.000  C
  C62      1.0000 0.62356  0.22630  0.66592  Biso   1.000  C
  C63      1.0000 0.62356  0.27370  0.16592  Biso   1.000  C
  C64      1.0000 0.37644  0.77370  0.33408  Biso   1.000  C
  F73      1.0000 0.35150  0.83650  0.82430  Biso   1.000  F
  F74      1.0000 0.64850  0.33650  0.67570  Biso   1.000  F
  F75      1.0000 0.64850  0.16350  0.17570  Biso   1.000  F
  F76      1.0000 0.35150  0.66350  0.32430  Biso   1.000  F
  F77      1.0000 0.40230  0.73610  0.80580  Biso   1.000  F
  F78      1.0000 0.59770  0.23610  0.69420  Biso   1.000  F
  F79      1.0000 0.59770  0.26390  0.19420  Biso   1.000  F
  F80      1.0000 0.40230  0.76390  0.30580  Biso   1.000  F
  F81      1.0000 0.34070  0.62930  0.80100  Biso   1.000  F
  F82      1.0000 0.65930  0.12930  0.69900  Biso   1.000  F
  F83      1.0000 0.65930  0.37070  0.19900  Biso   1.000  F
  F84      1.0000 0.34070  0.87070  0.30100  Biso   1.000  F
  C65      1.0000 0.41848  0.68800  0.90509  Biso   1.000  C
  C66      1.0000 0.58152  0.18800  0.59491  Biso   1.000  C
  C67      1.0000 0.58152  0.31200  0.09491  Biso   1.000  C
  C68      1.0000 0.41848  0.81200  0.40509  Biso   1.000  C
  C69      1.0000 0.43141  0.78690  0.95090  Biso   1.000  C
  C70      1.0000 0.56859  0.28690  0.54910  Biso   1.000  C
  C71      1.0000 0.56859  0.21310  0.04910  Biso   1.000  C
  C72      1.0000 0.43141  0.71310  0.45090  Biso   1.000  C
  H13      1.0000 0.41720  0.86400  0.94000  Biso   1.000  H
  H14      1.0000 0.58280  0.36400  0.56000  Biso   1.000  H
  H15      1.0000 0.58280  0.13600  0.06000  Biso   1.000  H
  H16      1.0000 0.41720  0.63600  0.44000  Biso   1.000  H
  C73      1.0000 0.46859  0.76440  0.01690  Biso   1.000  C
  C74      1.0000 0.53141  0.26440  0.48310  Biso   1.000  C
  C75      1.0000 0.53141  0.23560  0.98310  Biso   1.000  C
  C76      1.0000 0.46859  0.73560  0.51690  Biso   1.000  C
  C77      1.0000 0.48005  0.88400  0.06210  Biso   1.000  C
  C78      1.0000 0.51995  0.38400  0.43790  Biso   1.000  C
  C79      1.0000 0.51995  0.11600  0.93790  Biso   1.000  C
  C80      1.0000 0.48005  0.61600  0.56210  Biso   1.000  C
  F85      1.0000 0.46440  0.85910  0.09780  Biso   1.000  F
  F86      1.0000 0.53560  0.35910  0.40220  Biso   1.000  F
  F87      1.0000 0.53560  0.14090  0.90220  Biso   1.000  F
  F88      1.0000 0.46440  0.64090  0.59780  Biso   1.000  F
  F89      1.0000 0.53570  0.90010  0.10760  Biso   1.000  F
  F90      1.0000 0.46430  0.40010  0.39240  Biso   1.000  F
  F91      1.0000 0.46430  0.09990  0.89240  Biso   1.000  F
  F92      1.0000 0.53570  0.59990  0.60760  Biso   1.000  F
  F93      1.0000 0.47480  0.00480  0.03740  Biso   1.000  F
  F94      1.0000 0.52520  0.50480  0.46260  Biso   1.000  F
  F95      1.0000 0.52520  0.99520  0.96260  Biso   1.000  F
  F96      1.0000 0.47480  0.49520  0.53740  Biso   1.000  F
  O29      1.0000 0.49512  0.65650  0.04508  Biso   1.000  O
  O30      1.0000 0.50488  0.15650  0.45492  Biso   1.000  O
  O31      1.0000 0.50488  0.34350  0.95492  Biso   1.000  O
  O32      1.0000 0.49512  0.84350  0.54508  Biso   1.000  O
  O33      1.0000 0.18169  0.38860  0.94865  Biso   1.000  O
  O34      1.0000 0.81831  0.88860  0.55135  Biso   1.000  O
  O35      1.0000 0.81831  0.61140  0.05135  Biso   1.000  O
  O36      1.0000 0.18169  0.11140  0.44865  Biso   1.000  O
  N1       1.0000 0.13464  0.36430  0.89372  Biso   1.000  N
  N2       1.0000 0.86536  0.86430  0.60628  Biso   1.000  N
  N3       1.0000 0.86536  0.63570  0.10628  Biso   1.000  N
  N4       1.0000 0.13464  0.13570  0.39372  Biso   1.000  N
  C81      1.0000 0.11946  0.42650  0.83172  Biso   1.000  C
  C82      1.0000 0.88054  0.92650  0.66828  Biso   1.000  C
  C83      1.0000 0.88054  0.57350  0.16828  Biso   1.000  C
  C84      1.0000 0.11946  0.07350  0.33172  Biso   1.000  C
  C85      1.0000 0.10660  0.57660  0.83340  Biso   1.000  C
  C86      1.0000 0.89340  0.07660  0.66660  Biso   1.000  C
  C87      1.0000 0.89340  0.42340  0.16660  Biso   1.000  C
  C88      1.0000 0.10660  0.92340  0.33340  Biso   1.000  C
  H17      1.0000 0.13600  0.60900  0.86970  Biso   1.000  H
  H18      1.0000 0.86400  0.10900  0.63030  Biso   1.000  H
  H19      1.0000 0.86400  0.39100  0.13030  Biso   1.000  H
  H20      1.0000 0.13600  0.89100  0.36970  Biso   1.000  H
  H21      1.0000 0.07510  0.58800  0.83450  Biso   1.000  H
  H22      1.0000 0.92490  0.08800  0.66550  Biso   1.000  H
  H23      1.0000 0.92490  0.41200  0.16550  Biso   1.000  H
  H24      1.0000 0.07510  0.91200  0.33450  Biso   1.000  H
  H25      1.0000 0.09830  0.61500  0.79770  Biso   1.000  H
  H26      1.0000 0.90170  0.11500  0.70230  Biso   1.000  H
  H27      1.0000 0.90170  0.38500  0.20230  Biso   1.000  H
  H28      1.0000 0.09830  0.88500  0.29770  Biso   1.000  H
  C89      1.0000 0.16711  0.41210  0.82700  Biso   1.000  C
  C90      1.0000 0.83289  0.91210  0.67300  Biso   1.000  C
  C91      1.0000 0.83289  0.58790  0.17300  Biso   1.000  C
  C92      1.0000 0.16711  0.08790  0.32700  Biso   1.000  C
  H29      1.0000 0.19550  0.46600  0.85690  Biso   1.000  H
  H30      1.0000 0.80450  0.96600  0.64310  Biso   1.000  H
  H31      1.0000 0.80450  0.53400  0.14310  Biso   1.000  H
  H32      1.0000 0.19550  0.03400  0.35690  Biso   1.000  H
  H33      1.0000 0.15770  0.45000  0.79150  Biso   1.000  H
  H34      1.0000 0.84230  0.95000  0.70850  Biso   1.000  H
  H35      1.0000 0.84230  0.55000  0.20850  Biso   1.000  H
  H36      1.0000 0.15770  0.05000  0.29150  Biso   1.000  H
  H37      1.0000 0.18090  0.29900  0.83330  Biso   1.000  H
  H38      1.0000 0.81910  0.79900  0.66670  Biso   1.000  H
  H39      1.0000 0.81910  0.70100  0.16670  Biso   1.000  H
  H40      1.0000 0.18090  0.20100  0.33330  Biso   1.000  H
  C93      1.0000 0.06843  0.33800  0.78275  Biso   1.000  C
  C94      1.0000 0.93157  0.83800  0.71725  Biso   1.000  C
  C95      1.0000 0.93157  0.66200  0.21725  Biso   1.000  C
  C96      1.0000 0.06843  0.16200  0.28275  Biso   1.000  C
  C97      1.0000 0.02369  0.41200  0.72185  Biso   1.000  C
  C98      1.0000 0.97631  0.91200  0.77815  Biso   1.000  C
  C99      1.0000 0.97631  0.58800  0.27815  Biso   1.000  C
  C100     1.0000 0.02369  0.08800  0.22185  Biso   1.000  C
  H41      1.0000 0.03620  0.42900  0.69710  Biso   1.000  H
  H42      1.0000 0.96380  0.92900  0.80290  Biso   1.000  H
  H43      1.0000 0.96380  0.57100  0.30290  Biso   1.000  H
  H44      1.0000 0.03620  0.07100  0.19710  Biso   1.000  H
  H45      1.0000 0.99370  0.35200  0.69660  Biso   1.000  H
  H46      1.0000 0.00630  0.85200  0.80340  Biso   1.000  H
  H47      1.0000 0.00630  0.64800  0.30340  Biso   1.000  H
  H48      1.0000 0.99370  0.14800  0.19660  Biso   1.000  H
  H49      1.0000 0.01300  0.49100  0.73120  Biso   1.000  H
  H50      1.0000 0.98700  0.99100  0.76880  Biso   1.000  H
  H51      1.0000 0.98700  0.50900  0.26880  Biso   1.000  H
  H52      1.0000 0.01300  0.00900  0.23120  Biso   1.000  H
  C101     1.0000 0.08180  0.20010  0.76680  Biso   1.000  C
  C102     1.0000 0.91820  0.70010  0.73320  Biso   1.000  C
  C103     1.0000 0.91820  0.79990  0.23320  Biso   1.000  C
  C104     1.0000 0.08180  0.29990  0.26680  Biso   1.000  C
  H53      1.0000 0.04910  0.14500  0.74510  Biso   1.000  H
  H54      1.0000 0.95090  0.64500  0.75490  Biso   1.000  H
  H55      1.0000 0.95090  0.85500  0.25490  Biso   1.000  H
  H56      1.0000 0.04910  0.35500  0.24510  Biso   1.000  H
  H57      1.0000 0.11110  0.16100  0.80550  Biso   1.000  H
  H58      1.0000 0.88890  0.66100  0.69450  Biso   1.000  H
  H59      1.0000 0.88890  0.83900  0.19450  Biso   1.000  H
  H60      1.0000 0.11110  0.33900  0.30550  Biso   1.000  H
  H61      1.0000 0.09200  0.21800  0.74460  Biso   1.000  H
  H62      1.0000 0.90800  0.71800  0.75540  Biso   1.000  H
  H63      1.0000 0.90800  0.78200  0.25540  Biso   1.000  H
  H64      1.0000 0.09200  0.28200  0.24460  Biso   1.000  H
  N5       1.0000 0.04978  0.30300  0.82386  Biso   1.000  N
  N6       1.0000 0.95022  0.80300  0.67614  Biso   1.000  N
  N7       1.0000 0.95022  0.69700  0.17614  Biso   1.000  N
  N8       1.0000 0.04978  0.19700  0.32386  Biso   1.000  N
  O37      1.0000 0.00173  0.25810  0.79991  Biso   1.000  O
  O38      1.0000 0.99827  0.75810  0.70009  Biso   1.000  O
  O39      1.0000 0.99827  0.74190  0.20009  Biso   1.000  O
  O40      1.0000 0.00173  0.24190  0.29991  Biso   1.000  O
  C105     1.0000 0.09169  0.30680  0.88747  Biso   1.000  C
  C106     1.0000 0.90831  0.80680  0.61253  Biso   1.000  C
  C107     1.0000 0.90831  0.69320  0.11253  Biso   1.000  C
  C108     1.0000 0.09169  0.19320  0.38747  Biso   1.000  C
  C109     1.0000 0.09033  0.25570  0.93882  Biso   1.000  C
  C110     1.0000 0.90967  0.75570  0.56118  Biso   1.000  C
  C111     1.0000 0.90967  0.74430  0.06118  Biso   1.000  C
  C112     1.0000 0.09033  0.24430  0.43882  Biso   1.000  C
  C113     1.0000 0.04915  0.17910  0.93518  Biso   1.000  C
  C114     1.0000 0.95085  0.67910  0.56482  Biso   1.000  C
  C115     1.0000 0.95085  0.82090  0.06482  Biso   1.000  C
  C116     1.0000 0.04915  0.32090  0.43518  Biso   1.000  C
  H65      1.0000 0.01910  0.15400  0.90170  Biso   1.000  H
  H66      1.0000 0.98090  0.65400  0.59830  Biso   1.000  H
  H67      1.0000 0.98090  0.84600  0.09830  Biso   1.000  H
  H68      1.0000 0.01910  0.34600  0.40170  Biso   1.000  H
  N9       1.0000 0.06315  0.14310  0.99216  Biso   1.000  N
  N10      1.0000 0.93685  0.64310  0.50784  Biso   1.000  N
  N11      1.0000 0.93685  0.85690  0.00784  Biso   1.000  N
  N12      1.0000 0.06315  0.35690  0.49216  Biso   1.000  N
  N13      1.0000 0.11447  0.19740  0.03465  Biso   1.000  N
  N14      1.0000 0.88553  0.69740  0.46535  Biso   1.000  N
  N15      1.0000 0.88553  0.80260  0.96535  Biso   1.000  N
  N16      1.0000 0.11447  0.30260  0.53465  Biso   1.000  N
  C117     1.0000 0.14688  0.16980  0.10437  Biso   1.000  C
  C118     1.0000 0.85312  0.66980  0.39563  Biso   1.000  C
  C119     1.0000 0.85312  0.83020  0.89563  Biso   1.000  C
  C120     1.0000 0.14688  0.33020  0.60437  Biso   1.000  C
  H69      1.0000 0.18470  0.19800  0.12590  Biso   1.000  H
  H70      1.0000 0.81530  0.69800  0.37410  Biso   1.000  H
  H71      1.0000 0.81530  0.80200  0.87410  Biso   1.000  H
  H72      1.0000 0.18470  0.30200  0.62590  Biso   1.000  H
  H73      1.0000 0.15160  0.05700  0.10750  Biso   1.000  H
  H74      1.0000 0.84840  0.55700  0.39250  Biso   1.000  H
  H75      1.0000 0.84840  0.94300  0.89250  Biso   1.000  H
  H76      1.0000 0.15160  0.44300  0.60750  Biso   1.000  H
  C121     1.0000 0.12605  0.23210  0.13872  Biso   1.000  C
  C122     1.0000 0.87395  0.73210  0.36128  Biso   1.000  C
  C123     1.0000 0.87395  0.76790  0.86128  Biso   1.000  C
  C124     1.0000 0.12605  0.26790  0.63872  Biso   1.000  C
  H77      1.0000 0.08520  0.19300  0.12170  Biso   1.000  H
  H78      1.0000 0.91480  0.69300  0.37830  Biso   1.000  H
  H79      1.0000 0.91480  0.80700  0.87830  Biso   1.000  H
  H80      1.0000 0.08520  0.30700  0.62170  Biso   1.000  H
  H81      1.0000 0.15800  0.26200  0.19500  Biso   1.000  H
  H82      1.0000 0.84200  0.76200  0.30500  Biso   1.000  H
  H83      1.0000 0.84200  0.73800  0.80500  Biso   1.000  H
  H84      1.0000 0.15800  0.23800  0.69500  Biso   1.000  H
  C125     1.0000 0.12190  0.38560  0.13180  Biso   1.000  C
  C126     1.0000 0.87810  0.88560  0.36820  Biso   1.000  C
  C127     1.0000 0.87810  0.61440  0.86820  Biso   1.000  C
  C128     1.0000 0.12190  0.11440  0.63180  Biso   1.000  C
  H85      1.0000 0.11300  0.41800  0.16300  Biso   1.000  H
  H86      1.0000 0.88700  0.91800  0.33700  Biso   1.000  H
  H87      1.0000 0.88700  0.58200  0.83700  Biso   1.000  H
  H88      1.0000 0.11300  0.08200  0.66300  Biso   1.000  H
  H89      1.0000 0.09740  0.41000  0.08500  Biso   1.000  H
  H90      1.0000 0.90260  0.91000  0.41500  Biso   1.000  H
  H91      1.0000 0.90260  0.59000  0.91500  Biso   1.000  H
  H92      1.0000 0.09740  0.09000  0.58500  Biso   1.000  H
  H93      1.0000 0.16200  0.41400  0.15800  Biso   1.000  H
  H94      1.0000 0.83800  0.91400  0.34200  Biso   1.000  H
  H95      1.0000 0.83800  0.58600  0.84200  Biso   1.000  H
  H96      1.0000 0.16200  0.08600  0.65800  Biso   1.000  H
  C129     1.0000 0.13097  0.26540  0.00399  Biso   1.000  C
  C130     1.0000 0.86903  0.76540  0.49601  Biso   1.000  C
  C131     1.0000 0.86903  0.73460  0.99601  Biso   1.000  C
  C132     1.0000 0.13097  0.23460  0.50399  Biso   1.000  C
  H97      1.0000 0.16270  0.31000  0.02620  Biso   1.000  H
  H98      1.0000 0.83730  0.81000  0.47380  Biso   1.000  H
  H99      1.0000 0.83730  0.69000  0.97380  Biso   1.000  H
  H100     1.0000 0.16270  0.19000  0.52620  Biso   1.000  H
  O41      1.0000 0.32098  0.11570  0.05202  Biso   1.000  O
  O42      1.0000 0.67902  0.61570  0.44798  Biso   1.000  O
  O43      1.0000 0.67902  0.88430  0.94798  Biso   1.000  O
  O44      1.0000 0.32098  0.38430  0.55202  Biso   1.000  O
  N17      1.0000 0.36626  0.14410  0.10802  Biso   1.000  N
  N18      1.0000 0.63374  0.64410  0.39198  Biso   1.000  N
  N19      1.0000 0.63374  0.85590  0.89198  Biso   1.000  N
  N20      1.0000 0.36626  0.35590  0.60802  Biso   1.000  N
  C133     1.0000 0.38005  0.08230  0.16957  Biso   1.000  C
  C134     1.0000 0.61995  0.58230  0.33043  Biso   1.000  C
  C135     1.0000 0.61995  0.91770  0.83043  Biso   1.000  C
  C136     1.0000 0.38005  0.41770  0.66957  Biso   1.000  C
  C137     1.0000 0.39540  0.93260  0.16920  Biso   1.000  C
  C138     1.0000 0.60460  0.43260  0.33080  Biso   1.000  C
  C139     1.0000 0.60460  0.06740  0.83080  Biso   1.000  C
  C140     1.0000 0.39540  0.56740  0.66920  Biso   1.000  C
  H101     1.0000 0.36480  0.89600  0.13020  Biso   1.000  H
  H102     1.0000 0.63520  0.39600  0.36980  Biso   1.000  H
  H103     1.0000 0.63520  0.10400  0.86980  Biso   1.000  H
  H104     1.0000 0.36480  0.60400  0.63020  Biso   1.000  H
  H105     1.0000 0.40260  0.89000  0.20680  Biso   1.000  H
  H106     1.0000 0.59740  0.39000  0.29320  Biso   1.000  H
  H107     1.0000 0.59740  0.11000  0.79320  Biso   1.000  H
  H108     1.0000 0.40260  0.61000  0.70680  Biso   1.000  H
  H109     1.0000 0.42430  0.92700  0.16800  Biso   1.000  H
  H110     1.0000 0.57570  0.42700  0.33200  Biso   1.000  H
  H111     1.0000 0.57570  0.07300  0.83200  Biso   1.000  H
  H112     1.0000 0.42430  0.57300  0.66800  Biso   1.000  H
  C141     1.0000 0.33050  0.08940  0.17080  Biso   1.000  C
  C142     1.0000 0.66950  0.58940  0.32920  Biso   1.000  C
  C143     1.0000 0.66950  0.91060  0.82920  Biso   1.000  C
  C144     1.0000 0.33050  0.41060  0.67080  Biso   1.000  C
  H113     1.0000 0.30380  0.03300  0.14090  Biso   1.000  H
  H114     1.0000 0.69620  0.53300  0.35910  Biso   1.000  H
  H115     1.0000 0.69620  0.96700  0.85910  Biso   1.000  H
  H116     1.0000 0.30380  0.46700  0.64090  Biso   1.000  H
  H117     1.0000 0.31950  0.19700  0.16880  Biso   1.000  H
  H118     1.0000 0.68050  0.69700  0.33120  Biso   1.000  H
  H119     1.0000 0.68050  0.80300  0.83120  Biso   1.000  H
  H120     1.0000 0.31950  0.30300  0.66880  Biso   1.000  H
  H121     1.0000 0.33820  0.05100  0.20720  Biso   1.000  H
  H122     1.0000 0.66180  0.55100  0.29280  Biso   1.000  H
  H123     1.0000 0.66180  0.94900  0.79280  Biso   1.000  H
  H124     1.0000 0.33820  0.44900  0.70720  Biso   1.000  H
  C145     1.0000 0.42872  0.17430  0.21917  Biso   1.000  C
  C146     1.0000 0.57128  0.67430  0.28083  Biso   1.000  C
  C147     1.0000 0.57128  0.82570  0.78083  Biso   1.000  C
  C148     1.0000 0.42872  0.32570  0.71917  Biso   1.000  C
  C149     1.0000 0.41270  0.30980  0.23310  Biso   1.000  C
  C150     1.0000 0.58730  0.80980  0.26690  Biso   1.000  C
  C151     1.0000 0.58730  0.69020  0.76690  Biso   1.000  C
  C152     1.0000 0.41270  0.19020  0.73310  Biso   1.000  C
  H125     1.0000 0.44680  0.37100  0.25740  Biso   1.000  H
  H126     1.0000 0.55320  0.87100  0.24260  Biso   1.000  H
  H127     1.0000 0.55320  0.62900  0.74260  Biso   1.000  H
  H128     1.0000 0.44680  0.12900  0.75740  Biso   1.000  H
  H129     1.0000 0.40260  0.29900  0.25470  Biso   1.000  H
  H130     1.0000 0.59740  0.79900  0.24530  Biso   1.000  H
  H131     1.0000 0.59740  0.70100  0.74530  Biso   1.000  H
  H132     1.0000 0.40260  0.20100  0.75470  Biso   1.000  H
  H133     1.0000 0.38090  0.34900  0.19350  Biso   1.000  H
  H134     1.0000 0.61910  0.84900  0.30650  Biso   1.000  H
  H135     1.0000 0.61910  0.65100  0.80650  Biso   1.000  H
  H136     1.0000 0.38090  0.15100  0.69350  Biso   1.000  H
  C153     1.0000 0.47340  0.10260  0.28174  Biso   1.000  C
  C154     1.0000 0.52660  0.60260  0.21826  Biso   1.000  C
  C155     1.0000 0.52660  0.89740  0.71826  Biso   1.000  C
  C156     1.0000 0.47340  0.39740  0.78174  Biso   1.000  C
  H137     1.0000 0.50500  0.15800  0.30960  Biso   1.000  H
  H138     1.0000 0.49500  0.65800  0.19040  Biso   1.000  H
  H139     1.0000 0.49500  0.84200  0.69040  Biso   1.000  H
  H140     1.0000 0.50500  0.34200  0.80960  Biso   1.000  H
  H141     1.0000 0.48610  0.03200  0.27350  Biso   1.000  H
  H142     1.0000 0.51390  0.53200  0.22650  Biso   1.000  H
  H143     1.0000 0.51390  0.96800  0.72650  Biso   1.000  H
  H144     1.0000 0.48610  0.46800  0.77350  Biso   1.000  H
  H145     1.0000 0.46010  0.08100  0.30700  Biso   1.000  H
  H146     1.0000 0.53990  0.58100  0.19300  Biso   1.000  H
  H147     1.0000 0.53990  0.91900  0.69300  Biso   1.000  H
  H148     1.0000 0.46010  0.41900  0.80700  Biso   1.000  H
  N21      1.0000 0.44979  0.21230  0.18126  Biso   1.000  N
  N22      1.0000 0.55021  0.71230  0.31874  Biso   1.000  N
  N23      1.0000 0.55021  0.78770  0.81874  Biso   1.000  N
  N24      1.0000 0.44979  0.28770  0.68126  Biso   1.000  N
  O45      1.0000 0.49750  0.26210  0.20685  Biso   1.000  O
  O46      1.0000 0.50250  0.76210  0.29315  Biso   1.000  O
  O47      1.0000 0.50250  0.73790  0.79315  Biso   1.000  O
  O48      1.0000 0.49750  0.23790  0.70685  Biso   1.000  O
  C157     1.0000 0.40955  0.20490  0.11671  Biso   1.000  C
  C158     1.0000 0.59045  0.70490  0.38329  Biso   1.000  C
  C159     1.0000 0.59045  0.79510  0.88329  Biso   1.000  C
  C160     1.0000 0.40955  0.29510  0.61671  Biso   1.000  C
  C161     1.0000 0.41370  0.25140  0.06685  Biso   1.000  C
  C162     1.0000 0.58630  0.75140  0.43315  Biso   1.000  C
  C163     1.0000 0.58630  0.74860  0.93315  Biso   1.000  C
  C164     1.0000 0.41370  0.24860  0.56685  Biso   1.000  C
  C165     1.0000 0.45460  0.33240  0.07207  Biso   1.000  C
  C166     1.0000 0.54540  0.83240  0.42793  Biso   1.000  C
  C167     1.0000 0.54540  0.66760  0.92793  Biso   1.000  C
  C168     1.0000 0.45460  0.16760  0.57207  Biso   1.000  C
  H149     1.0000 0.48370  0.37100  0.10800  Biso   1.000  H
  H150     1.0000 0.51630  0.87100  0.39200  Biso   1.000  H
  H151     1.0000 0.51630  0.62900  0.89200  Biso   1.000  H
  H152     1.0000 0.48370  0.12900  0.60800  Biso   1.000  H
  N25      1.0000 0.44442  0.35300  0.01514  Biso   1.000  N
  N26      1.0000 0.55558  0.85300  0.48486  Biso   1.000  N
  N27      1.0000 0.55558  0.64700  0.98486  Biso   1.000  N
  N28      1.0000 0.44442  0.14700  0.51514  Biso   1.000  N
  N29      1.0000 0.39664  0.28380  0.97240  Biso   1.000  N
  N30      1.0000 0.60336  0.78380  0.52760  Biso   1.000  N
  N31      1.0000 0.60336  0.71620  0.02760  Biso   1.000  N
  N32      1.0000 0.39664  0.21620  0.47240  Biso   1.000  N
  C169     1.0000 0.37183  0.27790  0.90311  Biso   1.000  C
  C170     1.0000 0.62817  0.77790  0.59689  Biso   1.000  C
  C171     1.0000 0.62817  0.72210  0.09689  Biso   1.000  C
  C172     1.0000 0.37183  0.22210  0.40311  Biso   1.000  C
  H153     1.0000 0.36190  0.17000  0.88000  Biso   1.000  H
  H154     1.0000 0.63810  0.67000  0.62000  Biso   1.000  H
  H155     1.0000 0.63810  0.83000  0.12000  Biso   1.000  H
  H156     1.0000 0.36190  0.33000  0.38000  Biso   1.000  H
  H157     1.0000 0.39480  0.31100  0.89370  Biso   1.000  H
  H158     1.0000 0.60520  0.81100  0.60630  Biso   1.000  H
  H159     1.0000 0.60520  0.68900  0.10630  Biso   1.000  H
  H160     1.0000 0.39480  0.18900  0.39370  Biso   1.000  H
  C173     1.0000 0.31779  0.34870  0.86301  Biso   1.000  C
  C174     1.0000 0.68221  0.84870  0.63699  Biso   1.000  C
  C175     1.0000 0.68221  0.65130  0.13699  Biso   1.000  C
  C176     1.0000 0.31779  0.15130  0.36301  Biso   1.000  C
  H161     1.0000 0.33170  0.46700  0.88240  Biso   1.000  H
  H162     1.0000 0.66830  0.96700  0.61760  Biso   1.000  H
  H163     1.0000 0.66830  0.53300  0.11760  Biso   1.000  H
  H164     1.0000 0.33170  0.03300  0.38240  Biso   1.000  H
  H165     1.0000 0.29640  0.30800  0.87320  Biso   1.000  H
  H166     1.0000 0.70360  0.80800  0.62680  Biso   1.000  H
  H167     1.0000 0.70360  0.69200  0.12680  Biso   1.000  H
  H168     1.0000 0.29640  0.19200  0.37320  Biso   1.000  H
  C177     1.0000 0.29010  0.32630  0.79050  Biso   1.000  C
  C178     1.0000 0.70990  0.82630  0.70950  Biso   1.000  C
  C179     1.0000 0.70990  0.67370  0.20950  Biso   1.000  C
  C180     1.0000 0.29010  0.17370  0.29050  Biso   1.000  C
  H169     1.0000 0.25300  0.35600  0.76100  Biso   1.000  H
  H170     1.0000 0.74700  0.85600  0.73900  Biso   1.000  H
  H171     1.0000 0.74700  0.64400  0.23900  Biso   1.000  H
  H172     1.0000 0.25300  0.14400  0.26100  Biso   1.000  H
  H173     1.0000 0.29200  0.22000  0.78700  Biso   1.000  H
  H174     1.0000 0.70800  0.72000  0.71300  Biso   1.000  H
  H175     1.0000 0.70800  0.78000  0.21300  Biso   1.000  H
  H176     1.0000 0.29200  0.28000  0.28700  Biso   1.000  H
  H177     1.0000 0.30730  0.37400  0.77900  Biso   1.000  H
  H178     1.0000 0.69270  0.87400  0.72100  Biso   1.000  H
  H179     1.0000 0.69270  0.62600  0.22100  Biso   1.000  H
  H180     1.0000 0.30730  0.12600  0.27900  Biso   1.000  H
  C181     1.0000 0.37752  0.22340  0.00155  Biso   1.000  C
  C182     1.0000 0.62248  0.72340  0.49845  Biso   1.000  C
  C183     1.0000 0.62248  0.77660  0.99845  Biso   1.000  C
  C184     1.0000 0.37752  0.27660  0.50155  Biso   1.000  C
  H181     1.0000 0.34820  0.16900  0.97940  Biso   1.000  H
  H182     1.0000 0.65180  0.66900  0.52060  Biso   1.000  H
  H183     1.0000 0.65180  0.83100  0.02060  Biso   1.000  H
  H184     1.0000 0.34820  0.33100  0.47940  Biso   1.000  H
  F97      1.0000 0.83600  0.09180  0.80110  Biso   1.000  F
  F98      1.0000 0.16400  0.59180  0.69890  Biso   1.000  F
  F99      1.0000 0.16400  0.90820  0.19890  Biso   1.000  F
  F100     1.0000 0.83600  0.40820  0.30110  Biso   1.000  F
  F101     1.0000 0.89200  0.19600  0.79600  Biso   1.000  F
  F102     1.0000 0.10800  0.69600  0.70400  Biso   1.000  F
  F103     1.0000 0.10800  0.80400  0.20400  Biso   1.000  F
  F104     1.0000 0.89200  0.30400  0.29600  Biso   1.000  F
  F105     1.0000 0.84560  0.31000  0.81700  Biso   1.000  F
  F106     1.0000 0.15440  0.81000  0.68300  Biso   1.000  F
  F107     1.0000 0.15440  0.69000  0.18300  Biso   1.000  F
  F108     1.0000 0.84560  0.19000  0.31700  Biso   1.000  F
  F109     1.0000 0.98370  0.33300  0.10450  Biso   1.000  F
  F110     1.0000 0.01630  0.83300  0.39550  Biso   1.000  F
  F111     1.0000 0.01630  0.66700  0.89550  Biso   1.000  F
  F112     1.0000 0.98370  0.16700  0.60450  Biso   1.000  F
  F113     1.0000 0.90920  0.41970  0.02680  Biso   1.000  F
  F114     1.0000 0.09080  0.91970  0.47320  Biso   1.000  F
  F115     1.0000 0.09080  0.58030  0.97320  Biso   1.000  F
  F116     1.0000 0.90920  0.08030  0.52680  Biso   1.000  F
  F117     1.0000 0.98230  0.46600  0.05240  Biso   1.000  F
  F118     1.0000 0.01770  0.96600  0.44760  Biso   1.000  F
  F119     1.0000 0.01770  0.53400  0.94760  Biso   1.000  F
  F120     1.0000 0.98230  0.03400  0.55240  Biso   1.000  F
  F121     1.0000 0.11790  0.89000  0.94760  Biso   1.000  F
  F122     1.0000 0.88210  0.39000  0.55240  Biso   1.000  F
  F123     1.0000 0.88210  0.11000  0.05240  Biso   1.000  F
  F124     1.0000 0.11790  0.61000  0.44760  Biso   1.000  F
  F125     1.0000 0.17880  0.91510  0.04260  Biso   1.000  F
  F126     1.0000 0.82120  0.41510  0.45740  Biso   1.000  F
  F127     1.0000 0.82120  0.08490  0.95740  Biso   1.000  F
  F128     1.0000 0.17880  0.58490  0.54260  Biso   1.000  F
  F129     1.0000 0.17740  0.75300  0.98450  Biso   1.000  F
  F130     1.0000 0.82260  0.25300  0.51550  Biso   1.000  F
  F131     1.0000 0.82260  0.24700  0.01550  Biso   1.000  F
  F132     1.0000 0.17740  0.74700  0.48450  Biso   1.000  F
  F133     1.0000 0.32230  0.74800  0.00800  Biso   1.000  F
  F134     1.0000 0.67770  0.24800  0.49200  Biso   1.000  F
  F135     1.0000 0.67770  0.25200  0.99200  Biso   1.000  F
  F136     1.0000 0.32230  0.75200  0.50800  Biso   1.000  F
  F137     1.0000 0.31850  0.60430  0.94910  Biso   1.000  F
  F138     1.0000 0.68150  0.10430  0.55090  Biso   1.000  F
  F139     1.0000 0.68150  0.39570  0.05090  Biso   1.000  F
  F140     1.0000 0.31850  0.89570  0.44910  Biso   1.000  F
  F141     1.0000 0.38480  0.60940  0.04290  Biso   1.000  F
  F142     1.0000 0.61520  0.10940  0.45710  Biso   1.000  F
  F143     1.0000 0.61520  0.39060  0.95710  Biso   1.000  F
  F144     1.0000 0.38480  0.89060  0.54290  Biso   1.000  F
  F145     1.0000 0.37200  0.85690  0.82240  Biso   1.000  F
  F146     1.0000 0.62800  0.35690  0.67760  Biso   1.000  F
  F147     1.0000 0.62800  0.14310  0.17760  Biso   1.000  F
  F148     1.0000 0.37200  0.64310  0.32240  Biso   1.000  F
  F149     1.0000 0.38160  0.66160  0.79720  Biso   1.000  F
  F150     1.0000 0.61840  0.16160  0.70280  Biso   1.000  F
  F151     1.0000 0.61840  0.33840  0.20280  Biso   1.000  F
  F152     1.0000 0.38160  0.83840  0.29720  Biso   1.000  F
  F153     1.0000 0.32770  0.69490  0.81850  Biso   1.000  F
  F154     1.0000 0.67230  0.19490  0.68150  Biso   1.000  F
  F155     1.0000 0.67230  0.30510  0.18150  Biso   1.000  F
  F156     1.0000 0.32770  0.80510  0.31850  Biso   1.000  F
  F157     1.0000 0.45940  0.99850  0.03350  Biso   1.000  F
  F158     1.0000 0.54060  0.49850  0.46650  Biso   1.000  F
  F159     1.0000 0.54060  0.00150  0.96650  Biso   1.000  F
  F160     1.0000 0.45940  0.50150  0.53350  Biso   1.000  F
  F161     1.0000 0.52660  0.88120  0.11150  Biso   1.000  F
  F162     1.0000 0.47340  0.38120  0.38850  Biso   1.000  F
  F163     1.0000 0.47340  0.11880  0.88850  Biso   1.000  F
  F164     1.0000 0.52660  0.61880  0.61150  Biso   1.000  F
  F165     1.0000 0.44400  0.88080  0.07400  Biso   1.000  F
  F166     1.0000 0.55600  0.38080  0.42600  Biso   1.000  F
  F167     1.0000 0.55600  0.11920  0.92600  Biso   1.000  F
  F168     1.0000 0.44400  0.61920  0.57400  Biso   1.000  F
