data_image0
_cell_length_a       29.944
_cell_length_b       9.6596
_cell_length_c       25.0248
_cell_angle_alpha    90
_cell_angle_beta     125.423
_cell_angle_gamma    90

_symmetry_space_group_name_H-M    "P 1"
_symmetry_int_tables_number       1

loop_
  _symmetry_equiv_pos_as_xyz
  'x, y, z'

loop_
  _atom_site_label
  _atom_site_occupancy
  _atom_site_fract_x
  _atom_site_fract_y
  _atom_site_fract_z
  _atom_site_thermal_displace_type
  _atom_site_B_iso_or_equiv
  _atom_site_type_symbol
  Cu1      1.0000 0.00000  0.50000  0.00000  Biso   1.000  Cu
  Cu2      1.0000 0.50000  0.00000  0.50000  Biso   1.000  Cu
  O1       1.0000 0.97846  0.43406  0.91343  Biso   1.000  O
  O2       1.0000 0.52154  0.93406  0.58657  Biso   1.000  O
  O3       1.0000 0.02154  0.56594  0.08657  Biso   1.000  O
  O4       1.0000 0.47846  0.06594  0.41343  Biso   1.000  O
  C1       1.0000 0.95838  0.27760  0.83065  Biso   1.000  C
  C2       1.0000 0.54162  0.77760  0.66935  Biso   1.000  C
  C3       1.0000 0.04162  0.72240  0.16935  Biso   1.000  C
  C4       1.0000 0.45838  0.22240  0.33065  Biso   1.000  C
  F1       1.0000 0.95680  0.14500  0.82150  Biso   1.000  F
  F2       1.0000 0.54320  0.64500  0.67850  Biso   1.000  F
  F3       1.0000 0.04320  0.85500  0.17850  Biso   1.000  F
  F4       1.0000 0.45680  0.35500  0.32150  Biso   1.000  F
  F5       1.0000 0.98980  0.32260  0.81200  Biso   1.000  F
  F6       1.0000 0.51020  0.82260  0.68800  Biso   1.000  F
  F7       1.0000 0.01020  0.67740  0.18800  Biso   1.000  F
  F8       1.0000 0.48980  0.17740  0.31200  Biso   1.000  F
  F9       1.0000 0.91230  0.33300  0.79450  Biso   1.000  F
  F10      1.0000 0.58770  0.83300  0.70550  Biso   1.000  F
  F11      1.0000 0.08770  0.66700  0.20550  Biso   1.000  F
  F12      1.0000 0.41230  0.16700  0.29450  Biso   1.000  F
  C5       1.0000 0.98759  0.31309  0.90361  Biso   1.000  C
  C6       1.0000 0.51241  0.81309  0.59639  Biso   1.000  C
  C7       1.0000 0.01241  0.68691  0.09639  Biso   1.000  C
  C8       1.0000 0.48759  0.18691  0.40361  Biso   1.000  C
  C9       1.0000 0.01911  0.21034  0.94934  Biso   1.000  C
  C10      1.0000 0.48089  0.71034  0.55066  Biso   1.000  C
  C11      1.0000 0.98089  0.78966  0.05066  Biso   1.000  C
  C12      1.0000 0.51911  0.28966  0.44934  Biso   1.000  C
  H1       1.0000 0.02130  0.12190  0.93440  Biso   1.000  H
  H2       1.0000 0.47870  0.62190  0.56560  Biso   1.000  H
  H3       1.0000 0.97870  0.87810  0.06560  Biso   1.000  H
  H4       1.0000 0.52130  0.37810  0.43440  Biso   1.000  H
  C13      1.0000 0.04752  0.23348  0.01638  Biso   1.000  C
  C14      1.0000 0.45248  0.73348  0.48362  Biso   1.000  C
  C15      1.0000 0.95248  0.76652  0.98362  Biso   1.000  C
  C16      1.0000 0.54752  0.26652  0.51638  Biso   1.000  C
  C17      1.0000 0.08009  0.11212  0.06243  Biso   1.000  C
  C18      1.0000 0.41991  0.61212  0.43757  Biso   1.000  C
  C19      1.0000 0.91991  0.88788  0.93757  Biso   1.000  C
  C20      1.0000 0.58009  0.38788  0.56243  Biso   1.000  C
  F13      1.0000 0.06270  0.98980  0.03140  Biso   1.000  F
  F14      1.0000 0.43730  0.48980  0.46860  Biso   1.000  F
  F15      1.0000 0.93730  0.01020  0.96860  Biso   1.000  F
  F16      1.0000 0.56270  0.51020  0.53140  Biso   1.000  F
  F17      1.0000 0.07480  0.10300  0.11100  Biso   1.000  F
  F18      1.0000 0.42520  0.60300  0.38900  Biso   1.000  F
  F19      1.0000 0.92520  0.89700  0.88900  Biso   1.000  F
  F20      1.0000 0.57480  0.39700  0.61100  Biso   1.000  F
  F21      1.0000 0.12990  0.12430  0.08830  Biso   1.000  F
  F22      1.0000 0.37010  0.62430  0.41170  Biso   1.000  F
  F23      1.0000 0.87010  0.87570  0.91170  Biso   1.000  F
  F24      1.0000 0.62990  0.37570  0.58830  Biso   1.000  F
  O5       1.0000 0.05024  0.34183  0.04563  Biso   1.000  O
  O6       1.0000 0.44976  0.84183  0.45437  Biso   1.000  O
  O7       1.0000 0.94976  0.65817  0.95437  Biso   1.000  O
  O8       1.0000 0.55024  0.15817  0.54563  Biso   1.000  O
  Cu3      1.0000 0.75265  0.25628  0.00097  Biso   1.000  Cu
  Cu4      1.0000 0.74735  0.75628  0.49903  Biso   1.000  Cu
  Cu5      1.0000 0.24735  0.74372  0.99903  Biso   1.000  Cu
  Cu6      1.0000 0.25265  0.24372  0.50097  Biso   1.000  Cu
  O9       1.0000 0.71162  0.10418  0.00527  Biso   1.000  O
  O10      1.0000 0.78838  0.60418  0.49473  Biso   1.000  O
  O11      1.0000 0.28838  0.89582  0.99473  Biso   1.000  O
  O12      1.0000 0.21162  0.39582  0.50527  Biso   1.000  O
  C21      1.0000 0.68180  0.88409  0.00969  Biso   1.000  C
  C22      1.0000 0.81820  0.38409  0.49031  Biso   1.000  C
  C23      1.0000 0.31820  0.11591  0.99031  Biso   1.000  C
  C24      1.0000 0.18180  0.61591  0.50969  Biso   1.000  C
  F25      1.0000 0.63806  0.90957  0.95046  Biso   1.000  F
  F26      1.0000 0.86194  0.40957  0.54954  Biso   1.000  F
  F27      1.0000 0.36194  0.09043  0.04954  Biso   1.000  F
  F28      1.0000 0.13806  0.59043  0.45046  Biso   1.000  F
  F29      1.0000 0.66652  0.89311  0.05017  Biso   1.000  F
  F30      1.0000 0.83348  0.39311  0.44983  Biso   1.000  F
  F31      1.0000 0.33348  0.10689  0.94983  Biso   1.000  F
  F32      1.0000 0.16652  0.60689  0.55017  Biso   1.000  F
  F33      1.0000 0.69567  0.75349  0.01114  Biso   1.000  F
  F34      1.0000 0.80433  0.25349  0.48886  Biso   1.000  F
  F35      1.0000 0.30433  0.24651  0.98886  Biso   1.000  F
  F36      1.0000 0.19567  0.74651  0.51114  Biso   1.000  F
  C25      1.0000 0.72834  0.98638  0.03038  Biso   1.000  C
  C26      1.0000 0.77166  0.48638  0.46962  Biso   1.000  C
  C27      1.0000 0.27166  0.01362  0.96962  Biso   1.000  C
  C28      1.0000 0.22834  0.51362  0.53038  Biso   1.000  C
  C29      1.0000 0.78155  0.93935  0.07448  Biso   1.000  C
  C30      1.0000 0.71845  0.43935  0.42552  Biso   1.000  C
  C31      1.0000 0.21845  0.06065  0.92552  Biso   1.000  C
  C32      1.0000 0.28155  0.56065  0.57448  Biso   1.000  C
  H5       1.0000 0.78730  0.84560  0.08850  Biso   1.000  H
  H6       1.0000 0.71270  0.34560  0.41150  Biso   1.000  H
  H7       1.0000 0.21270  0.15440  0.91150  Biso   1.000  H
  H8       1.0000 0.28730  0.65440  0.58850  Biso   1.000  H
  C33      1.0000 0.82709  0.02553  0.09894  Biso   1.000  C
  C34      1.0000 0.67291  0.52553  0.40106  Biso   1.000  C
  C35      1.0000 0.17291  0.97447  0.90106  Biso   1.000  C
  C36      1.0000 0.32709  0.47447  0.59894  Biso   1.000  C
  C37      1.0000 0.88442  0.96270  0.14711  Biso   1.000  C
  C38      1.0000 0.61558  0.46270  0.35289  Biso   1.000  C
  C39      1.0000 0.11558  0.03730  0.85289  Biso   1.000  C
  C40      1.0000 0.38442  0.53730  0.64711  Biso   1.000  C
  F37      1.0000 0.88413  0.83388  0.16522  Biso   1.000  F
  F38      1.0000 0.61587  0.33388  0.33478  Biso   1.000  F
  F39      1.0000 0.11587  0.16612  0.83478  Biso   1.000  F
  F40      1.0000 0.38413  0.66612  0.66522  Biso   1.000  F
  F41      1.0000 0.91329  0.03839  0.20144  Biso   1.000  F
  F42      1.0000 0.58671  0.53839  0.29856  Biso   1.000  F
  F43      1.0000 0.08671  0.96161  0.79856  Biso   1.000  F
  F44      1.0000 0.41329  0.46161  0.70144  Biso   1.000  F
  F45      1.0000 0.91178  0.96167  0.12002  Biso   1.000  F
  F46      1.0000 0.58822  0.46167  0.37998  Biso   1.000  F
  F47      1.0000 0.08822  0.03833  0.87998  Biso   1.000  F
  F48      1.0000 0.41178  0.53833  0.62002  Biso   1.000  F
  O13      1.0000 0.82777  0.14962  0.08681  Biso   1.000  O
  O14      1.0000 0.67223  0.64962  0.41319  Biso   1.000  O
  O15      1.0000 0.17223  0.85038  0.91319  Biso   1.000  O
  O16      1.0000 0.32777  0.35038  0.58681  Biso   1.000  O
  O17      1.0000 0.67928  0.36497  0.91352  Biso   1.000  O
  O18      1.0000 0.82072  0.86497  0.58648  Biso   1.000  O
  O19      1.0000 0.32072  0.63503  0.08648  Biso   1.000  O
  O20      1.0000 0.17928  0.13503  0.41352  Biso   1.000  O
  C41      1.0000 0.62464  0.55830  0.85802  Biso   1.000  C
  C42      1.0000 0.87536  0.05830  0.64198  Biso   1.000  C
  C43      1.0000 0.37536  0.44170  0.14198  Biso   1.000  C
  C44      1.0000 0.12464  0.94170  0.35802  Biso   1.000  C
  F49      1.0000 0.60071  0.56978  0.88907  Biso   1.000  F
  F50      1.0000 0.89929  0.06978  0.61093  Biso   1.000  F
  F51      1.0000 0.39929  0.43022  0.11093  Biso   1.000  F
  F52      1.0000 0.10071  0.93022  0.38907  Biso   1.000  F
  F53      1.0000 0.59159  0.48277  0.80488  Biso   1.000  F
  F54      1.0000 0.90841  0.98277  0.69512  Biso   1.000  F
  F55      1.0000 0.40841  0.51723  0.19512  Biso   1.000  F
  F56      1.0000 0.09159  0.01723  0.30488  Biso   1.000  F
  F57      1.0000 0.62603  0.68461  0.83792  Biso   1.000  F
  F58      1.0000 0.87397  0.18461  0.66208  Biso   1.000  F
  F59      1.0000 0.37397  0.31539  0.16208  Biso   1.000  F
  F60      1.0000 0.12603  0.81539  0.33792  Biso   1.000  F
  C45      1.0000 0.68134  0.48978  0.90350  Biso   1.000  C
  C46      1.0000 0.81866  0.98978  0.59650  Biso   1.000  C
  C47      1.0000 0.31866  0.51022  0.09650  Biso   1.000  C
  C48      1.0000 0.18134  0.01022  0.40350  Biso   1.000  C
  C49      1.0000 0.72751  0.57322  0.92871  Biso   1.000  C
  C50      1.0000 0.77249  0.07322  0.57129  Biso   1.000  C
  C51      1.0000 0.27249  0.42678  0.07129  Biso   1.000  C
  C52      1.0000 0.22751  0.92678  0.42871  Biso   1.000  C
  H9       1.0000 0.72260  0.66640  0.91410  Biso   1.000  H
  H10      1.0000 0.77740  0.16640  0.58590  Biso   1.000  H
  H11      1.0000 0.27740  0.33360  0.08590  Biso   1.000  H
  H12      1.0000 0.22260  0.83360  0.41410  Biso   1.000  H
  C53      1.0000 0.78024  0.52529  0.97424  Biso   1.000  C
  C54      1.0000 0.71976  0.02529  0.52576  Biso   1.000  C
  C55      1.0000 0.21976  0.47471  0.02576  Biso   1.000  C
  C56      1.0000 0.28024  0.97471  0.47424  Biso   1.000  C
  C57      1.0000 0.82790  0.62616  0.99942  Biso   1.000  C
  C58      1.0000 0.67210  0.12616  0.50058  Biso   1.000  C
  C59      1.0000 0.17210  0.37384  0.00058  Biso   1.000  C
  C60      1.0000 0.32790  0.87384  0.49942  Biso   1.000  C
  F61      1.0000 0.81180  0.76600  0.97950  Biso   1.000  F
  F62      1.0000 0.68820  0.26600  0.52050  Biso   1.000  F
  F63      1.0000 0.18820  0.23400  0.02050  Biso   1.000  F
  F64      1.0000 0.31180  0.73400  0.47950  Biso   1.000  F
  F65      1.0000 0.85490  0.64100  0.06550  Biso   1.000  F
  F66      1.0000 0.64510  0.14100  0.43450  Biso   1.000  F
  F67      1.0000 0.14510  0.35900  0.93450  Biso   1.000  F
  F68      1.0000 0.35490  0.85900  0.56550  Biso   1.000  F
  F69      1.0000 0.86490  0.58180  0.99170  Biso   1.000  F
  F70      1.0000 0.63510  0.08180  0.50830  Biso   1.000  F
  F71      1.0000 0.13510  0.41820  0.00830  Biso   1.000  F
  F72      1.0000 0.36490  0.91820  0.49170  Biso   1.000  F
  O21      1.0000 0.79608  0.40681  0.99969  Biso   1.000  O
  O22      1.0000 0.70392  0.90681  0.50031  Biso   1.000  O
  O23      1.0000 0.20392  0.59319  0.00031  Biso   1.000  O
  O24      1.0000 0.29608  0.09319  0.49969  Biso   1.000  O
  Cu7      1.0000 0.50000  0.00000  0.00000  Biso   1.000  Cu
  Cu8      1.0000 0.00000  0.50000  0.50000  Biso   1.000  Cu
  O25      1.0000 0.44790  0.15631  0.95947  Biso   1.000  O
  O26      1.0000 0.05210  0.65631  0.54053  Biso   1.000  O
  O27      1.0000 0.55210  0.84369  0.04053  Biso   1.000  O
  O28      1.0000 0.94790  0.34369  0.45947  Biso   1.000  O
  C61      1.0000 0.40596  0.37025  0.95000  Biso   1.000  C
  C62      1.0000 0.09404  0.87025  0.55000  Biso   1.000  C
  C63      1.0000 0.59404  0.62975  0.05000  Biso   1.000  C
  C64      1.0000 0.90596  0.12975  0.45000  Biso   1.000  C
  F73      1.0000 0.43525  0.48065  0.95517  Biso   1.000  F
  F74      1.0000 0.06475  0.98065  0.54483  Biso   1.000  F
  F75      1.0000 0.56475  0.51935  0.04483  Biso   1.000  F
  F76      1.0000 0.93525  0.01935  0.45517  Biso   1.000  F
  F77      1.0000 0.37220  0.33902  0.88735  Biso   1.000  F
  F78      1.0000 0.12780  0.83902  0.61265  Biso   1.000  F
  F79      1.0000 0.62780  0.66098  0.11265  Biso   1.000  F
  F80      1.0000 0.87220  0.16098  0.38735  Biso   1.000  F
  F81      1.0000 0.37569  0.41085  0.97066  Biso   1.000  F
  F82      1.0000 0.12431  0.91085  0.52934  Biso   1.000  F
  F83      1.0000 0.62431  0.58915  0.02934  Biso   1.000  F
  F84      1.0000 0.87569  0.08915  0.47066  Biso   1.000  F
  C65      1.0000 0.44450  0.25013  0.99125  Biso   1.000  C
  C66      1.0000 0.05550  0.75013  0.50875  Biso   1.000  C
  C67      1.0000 0.55550  0.74987  0.00875  Biso   1.000  C
  C68      1.0000 0.94450  0.24987  0.49125  Biso   1.000  C
  C69      1.0000 0.47230  0.26225  0.05916  Biso   1.000  C
  C70      1.0000 0.02770  0.76225  0.44084  Biso   1.000  C
  C71      1.0000 0.52770  0.73775  0.94084  Biso   1.000  C
  C72      1.0000 0.97230  0.23775  0.55916  Biso   1.000  C
  H13      1.0000 0.46320  0.33590  0.07630  Biso   1.000  H
  H14      1.0000 0.03680  0.83590  0.42370  Biso   1.000  H
  H15      1.0000 0.53680  0.66410  0.92370  Biso   1.000  H
  H16      1.0000 0.96320  0.16410  0.57630  Biso   1.000  H
  C73      1.0000 0.51271  0.16971  0.10188  Biso   1.000  C
  C74      1.0000 0.98729  0.66971  0.39812  Biso   1.000  C
  C75      1.0000 0.48729  0.83029  0.89812  Biso   1.000  C
  C76      1.0000 0.01271  0.33029  0.60188  Biso   1.000  C
  C77      1.0000 0.54320  0.19493  0.17568  Biso   1.000  C
  C78      1.0000 0.95680  0.69493  0.32432  Biso   1.000  C
  C79      1.0000 0.45680  0.80507  0.82432  Biso   1.000  C
  C80      1.0000 0.04320  0.30507  0.67568  Biso   1.000  C
  F85      1.0000 0.59270  0.23630  0.19950  Biso   1.000  F
  F86      1.0000 0.90730  0.73630  0.30050  Biso   1.000  F
  F87      1.0000 0.40730  0.76370  0.80050  Biso   1.000  F
  F88      1.0000 0.09270  0.26370  0.69950  Biso   1.000  F
  F89      1.0000 0.54490  0.08200  0.20700  Biso   1.000  F
  F90      1.0000 0.95510  0.58200  0.29300  Biso   1.000  F
  F91      1.0000 0.45510  0.91800  0.79300  Biso   1.000  F
  F92      1.0000 0.04490  0.41800  0.70700  Biso   1.000  F
  F93      1.0000 0.52050  0.29410  0.18990  Biso   1.000  F
  F94      1.0000 0.97950  0.79410  0.31010  Biso   1.000  F
  F95      1.0000 0.47950  0.70590  0.81010  Biso   1.000  F
  F96      1.0000 0.02050  0.20590  0.68990  Biso   1.000  F
  O29      1.0000 0.52956  0.06416  0.08887  Biso   1.000  O
  O30      1.0000 0.97044  0.56416  0.41113  Biso   1.000  O
  O31      1.0000 0.47044  0.93584  0.91113  Biso   1.000  O
  O32      1.0000 0.02956  0.43584  0.58887  Biso   1.000  O
  O33      1.0000 0.73340  0.38793  0.04759  Biso   1.000  O
  O34      1.0000 0.76660  0.88793  0.45241  Biso   1.000  O
  O35      1.0000 0.26660  0.61207  0.95241  Biso   1.000  O
  O36      1.0000 0.23340  0.11207  0.54759  Biso   1.000  O
  N1       1.0000 0.74117  0.36234  0.10375  Biso   1.000  N
  N2       1.0000 0.75883  0.86234  0.39625  Biso   1.000  N
  N3       1.0000 0.25883  0.63766  0.89625  Biso   1.000  N
  N4       1.0000 0.24117  0.13766  0.60375  Biso   1.000  N
  C81      1.0000 0.78809  0.42554  0.16670  Biso   1.000  C
  C82      1.0000 0.71191  0.92554  0.33330  Biso   1.000  C
  C83      1.0000 0.21191  0.57446  0.83330  Biso   1.000  C
  C84      1.0000 0.28809  0.07446  0.66670  Biso   1.000  C
  C85      1.0000 0.84113  0.41522  0.17188  Biso   1.000  C
  C86      1.0000 0.65887  0.91522  0.32812  Biso   1.000  C
  C87      1.0000 0.15887  0.58478  0.82812  Biso   1.000  C
  C88      1.0000 0.34113  0.08478  0.67188  Biso   1.000  C
  H17      1.0000 0.87100  0.45700  0.21320  Biso   1.000  H
  H18      1.0000 0.62900  0.95700  0.28680  Biso   1.000  H
  H19      1.0000 0.12900  0.54300  0.78680  Biso   1.000  H
  H20      1.0000 0.37100  0.04300  0.71320  Biso   1.000  H
  H21      1.0000 0.84950  0.31770  0.17080  Biso   1.000  H
  H22      1.0000 0.65050  0.81770  0.32920  Biso   1.000  H
  H23      1.0000 0.15050  0.68230  0.82920  Biso   1.000  H
  H24      1.0000 0.34950  0.18230  0.67080  Biso   1.000  H
  H25      1.0000 0.83700  0.46440  0.13500  Biso   1.000  H
  H26      1.0000 0.66300  0.96440  0.36500  Biso   1.000  H
  H27      1.0000 0.16300  0.53560  0.86500  Biso   1.000  H
  H28      1.0000 0.33700  0.03560  0.63500  Biso   1.000  H
  C89      1.0000 0.77252  0.57749  0.16465  Biso   1.000  C
  C90      1.0000 0.72748  0.07749  0.33535  Biso   1.000  C
  C91      1.0000 0.22748  0.42251  0.83535  Biso   1.000  C
  C92      1.0000 0.27252  0.92251  0.66465  Biso   1.000  C
  H29      1.0000 0.80180  0.62430  0.20470  Biso   1.000  H
  H30      1.0000 0.69820  0.12430  0.29530  Biso   1.000  H
  H31      1.0000 0.19820  0.37570  0.79530  Biso   1.000  H
  H32      1.0000 0.30180  0.87570  0.70470  Biso   1.000  H
  H33      1.0000 0.76740  0.62290  0.12640  Biso   1.000  H
  H34      1.0000 0.73260  0.12290  0.37360  Biso   1.000  H
  H35      1.0000 0.23260  0.37710  0.87360  Biso   1.000  H
  H36      1.0000 0.26740  0.87710  0.62640  Biso   1.000  H
  H37      1.0000 0.73840  0.58250  0.16140  Biso   1.000  H
  H38      1.0000 0.76160  0.08250  0.33860  Biso   1.000  H
  H39      1.0000 0.26160  0.41750  0.83860  Biso   1.000  H
  H40      1.0000 0.23840  0.91750  0.66140  Biso   1.000  H
  C93      1.0000 0.78575  0.33653  0.21662  Biso   1.000  C
  C94      1.0000 0.71425  0.83653  0.28338  Biso   1.000  C
  C95      1.0000 0.21425  0.66347  0.78338  Biso   1.000  C
  C96      1.0000 0.28575  0.16347  0.71662  Biso   1.000  C
  C97      1.0000 0.80212  0.41068  0.27915  Biso   1.000  C
  C98      1.0000 0.69788  0.91068  0.22085  Biso   1.000  C
  C99      1.0000 0.19788  0.58932  0.72085  Biso   1.000  C
  C100     1.0000 0.30212  0.08932  0.77915  Biso   1.000  C
  H41      1.0000 0.84130  0.43240  0.30520  Biso   1.000  H
  H42      1.0000 0.65870  0.93240  0.19480  Biso   1.000  H
  H43      1.0000 0.15870  0.56760  0.69480  Biso   1.000  H
  H44      1.0000 0.34130  0.06760  0.80520  Biso   1.000  H
  H45      1.0000 0.78110  0.49660  0.26790  Biso   1.000  H
  H46      1.0000 0.71890  0.99660  0.23210  Biso   1.000  H
  H47      1.0000 0.21890  0.50340  0.73210  Biso   1.000  H
  H48      1.0000 0.28110  0.00340  0.76790  Biso   1.000  H
  H49      1.0000 0.79450  0.35080  0.30460  Biso   1.000  H
  H50      1.0000 0.70550  0.85080  0.19540  Biso   1.000  H
  H51      1.0000 0.20550  0.64920  0.69540  Biso   1.000  H
  H52      1.0000 0.29450  0.14920  0.80460  Biso   1.000  H
  C101     1.0000 0.81567  0.19757  0.23209  Biso   1.000  C
  C102     1.0000 0.68433  0.69757  0.26791  Biso   1.000  C
  C103     1.0000 0.18433  0.80243  0.76791  Biso   1.000  C
  C104     1.0000 0.31567  0.30243  0.73209  Biso   1.000  C
  H53      1.0000 0.85530  0.21360  0.25900  Biso   1.000  H
  H54      1.0000 0.64470  0.71360  0.24100  Biso   1.000  H
  H55      1.0000 0.14470  0.78640  0.74100  Biso   1.000  H
  H56      1.0000 0.35530  0.28640  0.75900  Biso   1.000  H
  H57      1.0000 0.80640  0.13840  0.25610  Biso   1.000  H
  H58      1.0000 0.69360  0.63840  0.24390  Biso   1.000  H
  H59      1.0000 0.19360  0.86160  0.74390  Biso   1.000  H
  H60      1.0000 0.30640  0.36160  0.75610  Biso   1.000  H
  H61      1.0000 0.80440  0.15200  0.19110  Biso   1.000  H
  H62      1.0000 0.69560  0.65200  0.30890  Biso   1.000  H
  H63      1.0000 0.19560  0.84800  0.80890  Biso   1.000  H
  H64      1.0000 0.30440  0.34800  0.69110  Biso   1.000  H
  N5       1.0000 0.72559  0.30190  0.17552  Biso   1.000  N
  N6       1.0000 0.77441  0.80190  0.32448  Biso   1.000  N
  N7       1.0000 0.27441  0.69810  0.82448  Biso   1.000  N
  N8       1.0000 0.22559  0.19810  0.67552  Biso   1.000  N
  O37      1.0000 0.70113  0.25694  0.19986  Biso   1.000  O
  O38      1.0000 0.79887  0.75694  0.30014  Biso   1.000  O
  O39      1.0000 0.29887  0.74306  0.80014  Biso   1.000  O
  O40      1.0000 0.20113  0.24306  0.69986  Biso   1.000  O
  C105     1.0000 0.70396  0.30602  0.11044  Biso   1.000  C
  C106     1.0000 0.79604  0.80602  0.38956  Biso   1.000  C
  C107     1.0000 0.29604  0.69398  0.88956  Biso   1.000  C
  C108     1.0000 0.20396  0.19398  0.61044  Biso   1.000  C
  C109     1.0000 0.65056  0.25632  0.05877  Biso   1.000  C
  C110     1.0000 0.84944  0.75632  0.44123  Biso   1.000  C
  C111     1.0000 0.34944  0.74368  0.94123  Biso   1.000  C
  C112     1.0000 0.15056  0.24368  0.55877  Biso   1.000  C
  C113     1.0000 0.61343  0.17816  0.06387  Biso   1.000  C
  C114     1.0000 0.88657  0.67816  0.43613  Biso   1.000  C
  C115     1.0000 0.38657  0.82184  0.93613  Biso   1.000  C
  C116     1.0000 0.11343  0.32184  0.56387  Biso   1.000  C
  H65      1.0000 0.61900  0.15390  0.10410  Biso   1.000  H
  H66      1.0000 0.88100  0.65390  0.39590  Biso   1.000  H
  H67      1.0000 0.38100  0.84610  0.89590  Biso   1.000  H
  H68      1.0000 0.11900  0.34610  0.60410  Biso   1.000  H
  N9       1.0000 0.56963  0.14280  0.00516  Biso   1.000  N
  N10      1.0000 0.93037  0.64280  0.49484  Biso   1.000  N
  N11      1.0000 0.43037  0.85720  0.99484  Biso   1.000  N
  N12      1.0000 0.06963  0.35720  0.50516  Biso   1.000  N
  N13      1.0000 0.57837  0.19846  0.96167  Biso   1.000  N
  N14      1.0000 0.92163  0.69846  0.53833  Biso   1.000  N
  N15      1.0000 0.42163  0.80154  0.03833  Biso   1.000  N
  N16      1.0000 0.07837  0.30154  0.46167  Biso   1.000  N
  C117     1.0000 0.54118  0.17113  0.89102  Biso   1.000  C
  C118     1.0000 0.95882  0.67113  0.60898  Biso   1.000  C
  C119     1.0000 0.45882  0.82887  0.10898  Biso   1.000  C
  C120     1.0000 0.04118  0.32887  0.39102  Biso   1.000  C
  H69      1.0000 0.53710  0.06980  0.88390  Biso   1.000  H
  H70      1.0000 0.96290  0.56980  0.61610  Biso   1.000  H
  H71      1.0000 0.46290  0.93020  0.11610  Biso   1.000  H
  H72      1.0000 0.03710  0.43020  0.38390  Biso   1.000  H
  H73      1.0000 0.55790  0.20770  0.86940  Biso   1.000  H
  H74      1.0000 0.94210  0.70770  0.63060  Biso   1.000  H
  H75      1.0000 0.44210  0.79230  0.13060  Biso   1.000  H
  H76      1.0000 0.05790  0.29230  0.36940  Biso   1.000  H
  C121     1.0000 0.48474  0.23504  0.85878  Biso   1.000  C
  C122     1.0000 0.01526  0.73504  0.64122  Biso   1.000  C
  C123     1.0000 0.51526  0.76496  0.14122  Biso   1.000  C
  C124     1.0000 0.98474  0.26496  0.35878  Biso   1.000  C
  H77      1.0000 0.46210  0.21250  0.81140  Biso   1.000  H
  H78      1.0000 0.03790  0.71250  0.68860  Biso   1.000  H
  H79      1.0000 0.53790  0.78750  0.18860  Biso   1.000  H
  H80      1.0000 0.96210  0.28750  0.31140  Biso   1.000  H
  H81      1.0000 0.46690  0.19360  0.87810  Biso   1.000  H
  H82      1.0000 0.03310  0.69360  0.62190  Biso   1.000  H
  H83      1.0000 0.53310  0.80640  0.12190  Biso   1.000  H
  H84      1.0000 0.96690  0.30640  0.37810  Biso   1.000  H
  C125     1.0000 0.48682  0.39121  0.86700  Biso   1.000  C
  C126     1.0000 0.01318  0.89121  0.63300  Biso   1.000  C
  C127     1.0000 0.51318  0.60879  0.13300  Biso   1.000  C
  C128     1.0000 0.98682  0.10879  0.36700  Biso   1.000  C
  H85      1.0000 0.44950  0.42720  0.84540  Biso   1.000  H
  H86      1.0000 0.05050  0.92720  0.65460  Biso   1.000  H
  H87      1.0000 0.55050  0.57280  0.15460  Biso   1.000  H
  H88      1.0000 0.94950  0.07280  0.34540  Biso   1.000  H
  H89      1.0000 0.50850  0.41420  0.91380  Biso   1.000  H
  H90      1.0000 0.99150  0.91420  0.58620  Biso   1.000  H
  H91      1.0000 0.49150  0.58580  0.08620  Biso   1.000  H
  H92      1.0000 0.00850  0.08580  0.41380  Biso   1.000  H
  H93      1.0000 0.50370  0.43300  0.84710  Biso   1.000  H
  H94      1.0000 0.99630  0.93300  0.65290  Biso   1.000  H
  H95      1.0000 0.49630  0.56700  0.15290  Biso   1.000  H
  H96      1.0000 0.00370  0.06700  0.34710  Biso   1.000  H
  C129     1.0000 0.62578  0.26693  0.99179  Biso   1.000  C
  C130     1.0000 0.87422  0.76693  0.50821  Biso   1.000  C
  C131     1.0000 0.37422  0.73307  0.00821  Biso   1.000  C
  C132     1.0000 0.12578  0.23307  0.49179  Biso   1.000  C
  H97      1.0000 0.63990  0.31410  0.97130  Biso   1.000  H
  H98      1.0000 0.86010  0.81410  0.52870  Biso   1.000  H
  H99      1.0000 0.36010  0.68590  0.02870  Biso   1.000  H
  H100     1.0000 0.13990  0.18590  0.47130  Biso   1.000  H
  O41      1.0000 0.76684  0.12378  0.94988  Biso   1.000  O
  O42      1.0000 0.73316  0.62378  0.55012  Biso   1.000  O
  O43      1.0000 0.23316  0.87622  0.05012  Biso   1.000  O
  O44      1.0000 0.26684  0.37622  0.44988  Biso   1.000  O
  N17      1.0000 0.75547  0.15221  0.89219  Biso   1.000  N
  N18      1.0000 0.74453  0.65221  0.60781  Biso   1.000  N
  N19      1.0000 0.24453  0.84779  0.10781  Biso   1.000  N
  N20      1.0000 0.25547  0.34779  0.39219  Biso   1.000  N
  C133     1.0000 0.70732  0.08785  0.83060  Biso   1.000  C
  C134     1.0000 0.79268  0.58785  0.66940  Biso   1.000  C
  C135     1.0000 0.29268  0.91215  0.16940  Biso   1.000  C
  C136     1.0000 0.20732  0.41215  0.33060  Biso   1.000  C
  C137     1.0000 0.65610  0.09310  0.82957  Biso   1.000  C
  C138     1.0000 0.84390  0.59310  0.67043  Biso   1.000  C
  C139     1.0000 0.34390  0.90690  0.17043  Biso   1.000  C
  C140     1.0000 0.15610  0.40690  0.32957  Biso   1.000  C
  H101     1.0000 0.62550  0.05060  0.78900  Biso   1.000  H
  H102     1.0000 0.87450  0.55060  0.71100  Biso   1.000  H
  H103     1.0000 0.37450  0.94940  0.21100  Biso   1.000  H
  H104     1.0000 0.12550  0.44940  0.28900  Biso   1.000  H
  H105     1.0000 0.66260  0.04240  0.86740  Biso   1.000  H
  H106     1.0000 0.83740  0.54240  0.63260  Biso   1.000  H
  H107     1.0000 0.33740  0.95760  0.13260  Biso   1.000  H
  H108     1.0000 0.16260  0.45760  0.36740  Biso   1.000  H
  H109     1.0000 0.64720  0.18980  0.83160  Biso   1.000  H
  H110     1.0000 0.85280  0.68980  0.66840  Biso   1.000  H
  H111     1.0000 0.35280  0.81020  0.16840  Biso   1.000  H
  H112     1.0000 0.14720  0.31020  0.33160  Biso   1.000  H
  C141     1.0000 0.72391  0.93699  0.83184  Biso   1.000  C
  C142     1.0000 0.77609  0.43699  0.66816  Biso   1.000  C
  C143     1.0000 0.27609  0.06301  0.16816  Biso   1.000  C
  C144     1.0000 0.22391  0.56301  0.33184  Biso   1.000  C
  H113     1.0000 0.69400  0.88880  0.79270  Biso   1.000  H
  H114     1.0000 0.80600  0.38880  0.70730  Biso   1.000  H
  H115     1.0000 0.30600  0.11120  0.20730  Biso   1.000  H
  H116     1.0000 0.19400  0.61120  0.29270  Biso   1.000  H
  H117     1.0000 0.75690  0.93470  0.83250  Biso   1.000  H
  H118     1.0000 0.74310  0.43470  0.66750  Biso   1.000  H
  H119     1.0000 0.24310  0.06530  0.16750  Biso   1.000  H
  H120     1.0000 0.25690  0.56530  0.33250  Biso   1.000  H
  H121     1.0000 0.73140  0.89100  0.87110  Biso   1.000  H
  H122     1.0000 0.76860  0.39100  0.62890  Biso   1.000  H
  H123     1.0000 0.26860  0.10900  0.12890  Biso   1.000  H
  H124     1.0000 0.23140  0.60900  0.37110  Biso   1.000  H
  C145     1.0000 0.70608  0.17861  0.77861  Biso   1.000  C
  C146     1.0000 0.79392  0.67861  0.72139  Biso   1.000  C
  C147     1.0000 0.29392  0.82139  0.22139  Biso   1.000  C
  C148     1.0000 0.20608  0.32139  0.27861  Biso   1.000  C
  C149     1.0000 0.68758  0.10500  0.71505  Biso   1.000  C
  C150     1.0000 0.81242  0.60500  0.78495  Biso   1.000  C
  C151     1.0000 0.31242  0.89500  0.28495  Biso   1.000  C
  C152     1.0000 0.18758  0.39500  0.21505  Biso   1.000  C
  H125     1.0000 0.64870  0.08120  0.69100  Biso   1.000  H
  H126     1.0000 0.85130  0.58120  0.80900  Biso   1.000  H
  H127     1.0000 0.35130  0.91880  0.30900  Biso   1.000  H
  H128     1.0000 0.14870  0.41880  0.19100  Biso   1.000  H
  H129     1.0000 0.69300  0.16620  0.68810  Biso   1.000  H
  H130     1.0000 0.80700  0.66620  0.81190  Biso   1.000  H
  H131     1.0000 0.30700  0.83380  0.31190  Biso   1.000  H
  H132     1.0000 0.19300  0.33380  0.18810  Biso   1.000  H
  H133     1.0000 0.70910  0.02040  0.72520  Biso   1.000  H
  H134     1.0000 0.79090  0.52040  0.77480  Biso   1.000  H
  H135     1.0000 0.29090  0.97960  0.27480  Biso   1.000  H
  H136     1.0000 0.20910  0.47960  0.22520  Biso   1.000  H
  C153     1.0000 0.67547  0.31560  0.76434  Biso   1.000  C
  C154     1.0000 0.82453  0.81560  0.73566  Biso   1.000  C
  C155     1.0000 0.32453  0.68440  0.23566  Biso   1.000  C
  C156     1.0000 0.17547  0.18440  0.26434  Biso   1.000  C
  H137     1.0000 0.63600  0.29760  0.73970  Biso   1.000  H
  H138     1.0000 0.86400  0.79760  0.76030  Biso   1.000  H
  H139     1.0000 0.36400  0.70240  0.26030  Biso   1.000  H
  H140     1.0000 0.13600  0.20240  0.23970  Biso   1.000  H
  H141     1.0000 0.68820  0.36160  0.80580  Biso   1.000  H
  H142     1.0000 0.81180  0.86160  0.69420  Biso   1.000  H
  H143     1.0000 0.31180  0.63840  0.19420  Biso   1.000  H
  H144     1.0000 0.18820  0.13840  0.30580  Biso   1.000  H
  H145     1.0000 0.68260  0.37540  0.73840  Biso   1.000  H
  H146     1.0000 0.81740  0.87540  0.76160  Biso   1.000  H
  H147     1.0000 0.31740  0.62460  0.26160  Biso   1.000  H
  H148     1.0000 0.18260  0.12460  0.23840  Biso   1.000  H
  N21      1.0000 0.76583  0.21620  0.81629  Biso   1.000  N
  N22      1.0000 0.73417  0.71620  0.68371  Biso   1.000  N
  N23      1.0000 0.23417  0.78380  0.18371  Biso   1.000  N
  N24      1.0000 0.26583  0.28380  0.31629  Biso   1.000  N
  O45      1.0000 0.78771  0.26303  0.78916  Biso   1.000  O
  O46      1.0000 0.71229  0.76303  0.71084  Biso   1.000  O
  O47      1.0000 0.21229  0.73697  0.21084  Biso   1.000  O
  O48      1.0000 0.28771  0.23697  0.28916  Biso   1.000  O
  C157     1.0000 0.79044  0.20969  0.88195  Biso   1.000  C
  C158     1.0000 0.70956  0.70969  0.61805  Biso   1.000  C
  C159     1.0000 0.20956  0.79031  0.11805  Biso   1.000  C
  C160     1.0000 0.29044  0.29031  0.38195  Biso   1.000  C
  C161     1.0000 0.84557  0.25265  0.93184  Biso   1.000  C
  C162     1.0000 0.65443  0.75265  0.56816  Biso   1.000  C
  C163     1.0000 0.15443  0.74735  0.06816  Biso   1.000  C
  C164     1.0000 0.34557  0.24735  0.43184  Biso   1.000  C
  C165     1.0000 0.88179  0.33140  0.92540  Biso   1.000  C
  C166     1.0000 0.61821  0.83140  0.57460  Biso   1.000  C
  C167     1.0000 0.11821  0.66860  0.07460  Biso   1.000  C
  C168     1.0000 0.38179  0.16860  0.42540  Biso   1.000  C
  H149     1.0000 0.87340  0.36680  0.88510  Biso   1.000  H
  H150     1.0000 0.62660  0.86680  0.61490  Biso   1.000  H
  H151     1.0000 0.12660  0.63320  0.11490  Biso   1.000  H
  H152     1.0000 0.37340  0.13320  0.38510  Biso   1.000  H
  N25      1.0000 0.92930  0.34953  0.98325  Biso   1.000  N
  N26      1.0000 0.57070  0.84953  0.51675  Biso   1.000  N
  N27      1.0000 0.07070  0.65047  0.01675  Biso   1.000  N
  N28      1.0000 0.42930  0.15047  0.48325  Biso   1.000  N
  N29      1.0000 0.92385  0.28162  0.02703  Biso   1.000  N
  N30      1.0000 0.57615  0.78162  0.47297  Biso   1.000  N
  N31      1.0000 0.07615  0.71838  0.97297  Biso   1.000  N
  N32      1.0000 0.42385  0.21838  0.52703  Biso   1.000  N
  C169     1.0000 0.96840  0.27527  0.09724  Biso   1.000  C
  C170     1.0000 0.53160  0.77527  0.40276  Biso   1.000  C
  C171     1.0000 0.03160  0.72473  0.90276  Biso   1.000  C
  C172     1.0000 0.46840  0.22473  0.59724  Biso   1.000  C
  H153     1.0000 0.00160  0.31900  0.10500  Biso   1.000  H
  H154     1.0000 0.49840  0.81900  0.39500  Biso   1.000  H
  H155     1.0000 0.99840  0.68100  0.89500  Biso   1.000  H
  H156     1.0000 0.50160  0.18100  0.60500  Biso   1.000  H
  H157     1.0000 0.97710  0.17720  0.11090  Biso   1.000  H
  H158     1.0000 0.52290  0.67720  0.38910  Biso   1.000  H
  H159     1.0000 0.02290  0.82280  0.88910  Biso   1.000  H
  H160     1.0000 0.47710  0.32280  0.61090  Biso   1.000  H
  C173     1.0000 0.95347  0.34770  0.13856  Biso   1.000  C
  C174     1.0000 0.54653  0.84770  0.36144  Biso   1.000  C
  C175     1.0000 0.04653  0.65230  0.86144  Biso   1.000  C
  C176     1.0000 0.45347  0.15230  0.63856  Biso   1.000  C
  H161     1.0000 0.91860  0.30960  0.12820  Biso   1.000  H
  H162     1.0000 0.58140  0.80960  0.37180  Biso   1.000  H
  H163     1.0000 0.08140  0.69040  0.87180  Biso   1.000  H
  H164     1.0000 0.41860  0.19040  0.62820  Biso   1.000  H
  H165     1.0000 0.94810  0.44770  0.12800  Biso   1.000  H
  H166     1.0000 0.55190  0.94770  0.37200  Biso   1.000  H
  H167     1.0000 0.05190  0.55230  0.87200  Biso   1.000  H
  H168     1.0000 0.44810  0.05230  0.62800  Biso   1.000  H
  C177     1.0000 0.99833  0.32830  0.21137  Biso   1.000  C
  C178     1.0000 0.50167  0.82830  0.28863  Biso   1.000  C
  C179     1.0000 0.00167  0.67170  0.78863  Biso   1.000  C
  C180     1.0000 0.49833  0.17170  0.71137  Biso   1.000  C
  H169     1.0000 0.98790  0.37590  0.23720  Biso   1.000  H
  H170     1.0000 0.51210  0.87590  0.26280  Biso   1.000  H
  H171     1.0000 0.01210  0.62410  0.76280  Biso   1.000  H
  H172     1.0000 0.48790  0.12410  0.73720  Biso   1.000  H
  H173     1.0000 0.00320  0.22940  0.22200  Biso   1.000  H
  H174     1.0000 0.49680  0.72940  0.27800  Biso   1.000  H
  H175     1.0000 0.99680  0.77060  0.77800  Biso   1.000  H
  H176     1.0000 0.50320  0.27060  0.72200  Biso   1.000  H
  H177     1.0000 0.03280  0.36720  0.22180  Biso   1.000  H
  H178     1.0000 0.46720  0.86720  0.27820  Biso   1.000  H
  H179     1.0000 0.96720  0.63280  0.77820  Biso   1.000  H
  H180     1.0000 0.53280  0.13280  0.72180  Biso   1.000  H
  C181     1.0000 0.87462  0.22349  0.99829  Biso   1.000  C
  C182     1.0000 0.62538  0.72349  0.50171  Biso   1.000  C
  C183     1.0000 0.12538  0.77651  0.00171  Biso   1.000  C
  C184     1.0000 0.37462  0.27651  0.49829  Biso   1.000  C
  H181     1.0000 0.86190  0.17200  0.01930  Biso   1.000  H
  H182     1.0000 0.63810  0.67200  0.48070  Biso   1.000  H
  H183     1.0000 0.13810  0.82800  0.98070  Biso   1.000  H
  H184     1.0000 0.36190  0.32800  0.51930  Biso   1.000  H
  F97      1.0000 0.96800  0.15670  0.81790  Biso   1.000  F
  F98      1.0000 0.53200  0.65670  0.68210  Biso   1.000  F
  F99      1.0000 0.03200  0.84330  0.18210  Biso   1.000  F
  F100     1.0000 0.46800  0.34330  0.31790  Biso   1.000  F
  F101     1.0000 0.96520  0.37190  0.79840  Biso   1.000  F
  F102     1.0000 0.53480  0.87190  0.70160  Biso   1.000  F
  F103     1.0000 0.03480  0.62810  0.20160  Biso   1.000  F
  F104     1.0000 0.46520  0.12810  0.29840  Biso   1.000  F
  F105     1.0000 0.90350  0.27760  0.80150  Biso   1.000  F
  F106     1.0000 0.59650  0.77760  0.69850  Biso   1.000  F
  F107     1.0000 0.09650  0.72240  0.19850  Biso   1.000  F
  F108     1.0000 0.40350  0.22240  0.30150  Biso   1.000  F
  F109     1.0000 0.06890  0.09830  0.10690  Biso   1.000  F
  F110     1.0000 0.43110  0.59830  0.39310  Biso   1.000  F
  F111     1.0000 0.93110  0.90170  0.89310  Biso   1.000  F
  F112     1.0000 0.56890  0.40170  0.60690  Biso   1.000  F
  F113     1.0000 0.13640  0.13320  0.09640  Biso   1.000  F
  F114     1.0000 0.36360  0.63320  0.40360  Biso   1.000  F
  F115     1.0000 0.86360  0.86680  0.90360  Biso   1.000  F
  F116     1.0000 0.63640  0.36680  0.59640  Biso   1.000  F
  F117     1.0000 0.07000  0.99280  0.03210  Biso   1.000  F
  F118     1.0000 0.43000  0.49280  0.46790  Biso   1.000  F
  F119     1.0000 0.93000  0.00720  0.96790  Biso   1.000  F
  F120     1.0000 0.57000  0.50720  0.53210  Biso   1.000  F
  F121     1.0000 0.85250  0.59370  0.97040  Biso   1.000  F
  F122     1.0000 0.64750  0.09370  0.52960  Biso   1.000  F
  F123     1.0000 0.14750  0.40630  0.02960  Biso   1.000  F
  F124     1.0000 0.35250  0.90630  0.47040  Biso   1.000  F
  F125     1.0000 0.81450  0.74160  0.97870  Biso   1.000  F
  F126     1.0000 0.68550  0.24160  0.52130  Biso   1.000  F
  F127     1.0000 0.18550  0.25840  0.02130  Biso   1.000  F
  F128     1.0000 0.31450  0.75840  0.47870  Biso   1.000  F
  F129     1.0000 0.86340  0.62180  0.06050  Biso   1.000  F
  F130     1.0000 0.63660  0.12180  0.43950  Biso   1.000  F
  F131     1.0000 0.13660  0.37820  0.93950  Biso   1.000  F
  F132     1.0000 0.36340  0.87820  0.56050  Biso   1.000  F
  F133     1.0000 0.52690  0.30420  0.18990  Biso   1.000  F
  F134     1.0000 0.97310  0.80420  0.31010  Biso   1.000  F
  F135     1.0000 0.47310  0.69580  0.81010  Biso   1.000  F
  F136     1.0000 0.02690  0.19580  0.68990  Biso   1.000  F
  F137     1.0000 0.59820  0.20500  0.20600  Biso   1.000  F
  F138     1.0000 0.90180  0.70500  0.29400  Biso   1.000  F
  F139     1.0000 0.40180  0.79500  0.79400  Biso   1.000  F
  F140     1.0000 0.09820  0.29500  0.70600  Biso   1.000  F
  F141     1.0000 0.53720  0.08640  0.20390  Biso   1.000  F
  F142     1.0000 0.96280  0.58640  0.29610  Biso   1.000  F
  F143     1.0000 0.46280  0.91360  0.79610  Biso   1.000  F
  F144     1.0000 0.03720  0.41360  0.70390  Biso   1.000  F
