data_image0
_cell_length_a       30.091
_cell_length_b       9.6322
_cell_length_c       25.5389
_cell_angle_alpha    90
_cell_angle_beta     126.637
_cell_angle_gamma    90

_symmetry_space_group_name_H-M    "P 1"
_symmetry_int_tables_number       1

loop_
  _symmetry_equiv_pos_as_xyz
  'x, y, z'

loop_
  _atom_site_label
  _atom_site_occupancy
  _atom_site_fract_x
  _atom_site_fract_y
  _atom_site_fract_z
  _atom_site_thermal_displace_type
  _atom_site_B_iso_or_equiv
  _atom_site_type_symbol
  Cu1      1.0000 0.00000  0.00000  0.00000  Biso   1.000  Cu
  Cu2      1.0000 0.00000  0.50000  0.50000  Biso   1.000  Cu
  O1       1.0000 0.94193  0.06380  0.91253  Biso   1.000  O
  O2       1.0000 0.05807  0.56380  0.58747  Biso   1.000  O
  O3       1.0000 0.05807  0.93620  0.08747  Biso   1.000  O
  O4       1.0000 0.94193  0.43620  0.41253  Biso   1.000  O
  C1       1.0000 0.87020  0.19520  0.82720  Biso   1.000  C
  C2       1.0000 0.12980  0.69520  0.67280  Biso   1.000  C
  C3       1.0000 0.12980  0.80480  0.17280  Biso   1.000  C
  C4       1.0000 0.87020  0.30480  0.32720  Biso   1.000  C
  F1       1.0000 0.83734  0.29800  0.81279  Biso   1.000  F
  F2       1.0000 0.16266  0.79800  0.68721  Biso   1.000  F
  F3       1.0000 0.16266  0.70200  0.18721  Biso   1.000  F
  F4       1.0000 0.83734  0.20200  0.31279  Biso   1.000  F
  F5       1.0000 0.83890  0.08610  0.79734  Biso   1.000  F
  F6       1.0000 0.16110  0.58610  0.70266  Biso   1.000  F
  F7       1.0000 0.16110  0.91390  0.20266  Biso   1.000  F
  F8       1.0000 0.83890  0.41390  0.29734  Biso   1.000  F
  F9       1.0000 0.89398  0.21690  0.79914  Biso   1.000  F
  F10      1.0000 0.10602  0.71690  0.70086  Biso   1.000  F
  F11      1.0000 0.10602  0.78310  0.20086  Biso   1.000  F
  F12      1.0000 0.89398  0.28310  0.29914  Biso   1.000  F
  C5       1.0000 0.91286  0.16990  0.89985  Biso   1.000  C
  C6       1.0000 0.08714  0.66990  0.60015  Biso   1.000  C
  C7       1.0000 0.08714  0.83010  0.10015  Biso   1.000  C
  C8       1.0000 0.91286  0.33010  0.39985  Biso   1.000  C
  C9       1.0000 0.91560  0.26090  0.94220  Biso   1.000  C
  C10      1.0000 0.08440  0.76090  0.55780  Biso   1.000  C
  C11      1.0000 0.08440  0.73910  0.05780  Biso   1.000  C
  C12      1.0000 0.91560  0.23910  0.44220  Biso   1.000  C
  H1       1.0000 0.89570  0.32600  0.92810  Biso   1.000  H
  H2       1.0000 0.10430  0.82600  0.57190  Biso   1.000  H
  H3       1.0000 0.10430  0.67400  0.07190  Biso   1.000  H
  H4       1.0000 0.89570  0.17400  0.42810  Biso   1.000  H
  C13      1.0000 0.95423  0.25040  0.00900  Biso   1.000  C
  C14      1.0000 0.04577  0.75040  0.49100  Biso   1.000  C
  C15      1.0000 0.04577  0.74960  0.99100  Biso   1.000  C
  C16      1.0000 0.95423  0.24960  0.50900  Biso   1.000  C
  C17      1.0000 0.95760  0.36810  0.05110  Biso   1.000  C
  C18      1.0000 0.04240  0.86810  0.44890  Biso   1.000  C
  C19      1.0000 0.04240  0.63190  0.94890  Biso   1.000  C
  C20      1.0000 0.95760  0.13190  0.55110  Biso   1.000  C
  F13      1.0000 0.90693  0.41160  0.02910  Biso   1.000  F
  F14      1.0000 0.09307  0.91160  0.47090  Biso   1.000  F
  F15      1.0000 0.09307  0.58840  0.97090  Biso   1.000  F
  F16      1.0000 0.90693  0.08840  0.52910  Biso   1.000  F
  F17      1.0000 0.98302  0.33570  0.11086  Biso   1.000  F
  F18      1.0000 0.01698  0.83570  0.38914  Biso   1.000  F
  F19      1.0000 0.01698  0.66430  0.88914  Biso   1.000  F
  F20      1.0000 0.98302  0.16430  0.61086  Biso   1.000  F
  F21      1.0000 0.98079  0.47730  0.04602  Biso   1.000  F
  F22      1.0000 0.01921  0.97730  0.45398  Biso   1.000  F
  F23      1.0000 0.01921  0.52270  0.95398  Biso   1.000  F
  F24      1.0000 0.98079  0.02270  0.54602  Biso   1.000  F
  O5       1.0000 0.98857  0.15600  0.04013  Biso   1.000  O
  O6       1.0000 0.01143  0.65600  0.45987  Biso   1.000  O
  O7       1.0000 0.01143  0.84400  0.95987  Biso   1.000  O
  O8       1.0000 0.98857  0.34400  0.54013  Biso   1.000  O
  Cu3      1.0000 0.25196  0.25459  0.99861  Biso   1.000  Cu
  Cu4      1.0000 0.74804  0.75459  0.50139  Biso   1.000  Cu
  Cu5      1.0000 0.74804  0.74541  0.00139  Biso   1.000  Cu
  Cu6      1.0000 0.25196  0.24541  0.49861  Biso   1.000  Cu
  O9       1.0000 0.24188  0.15260  0.91775  Biso   1.000  O
  O10      1.0000 0.75812  0.65260  0.58225  Biso   1.000  O
  O11      1.0000 0.75812  0.84740  0.08225  Biso   1.000  O
  O12      1.0000 0.24188  0.34740  0.41775  Biso   1.000  O
  C21      1.0000 0.23560  0.97030  0.85430  Biso   1.000  C
  C22      1.0000 0.76440  0.47030  0.64570  Biso   1.000  C
  C23      1.0000 0.76440  0.02970  0.14570  Biso   1.000  C
  C24      1.0000 0.23560  0.52970  0.35430  Biso   1.000  C
  F25      1.0000 0.21040  0.05020  0.80164  Biso   1.000  F
  F26      1.0000 0.78960  0.55020  0.69836  Biso   1.000  F
  F27      1.0000 0.78960  0.94980  0.19836  Biso   1.000  F
  F28      1.0000 0.21040  0.44980  0.30164  Biso   1.000  F
  F29      1.0000 0.21655  0.84480  0.83485  Biso   1.000  F
  F30      1.0000 0.78345  0.34480  0.66515  Biso   1.000  F
  F31      1.0000 0.78345  0.15520  0.16515  Biso   1.000  F
  F32      1.0000 0.21655  0.65520  0.33485  Biso   1.000  F
  F33      1.0000 0.28791  0.96750  0.87880  Biso   1.000  F
  F34      1.0000 0.71209  0.46750  0.62120  Biso   1.000  F
  F35      1.0000 0.71209  0.03250  0.12120  Biso   1.000  F
  F36      1.0000 0.28791  0.53250  0.37880  Biso   1.000  F
  C25      1.0000 0.22739  0.03010  0.90360  Biso   1.000  C
  C26      1.0000 0.77261  0.53010  0.59640  Biso   1.000  C
  C27      1.0000 0.77261  0.96990  0.09640  Biso   1.000  C
  C28      1.0000 0.22739  0.46990  0.40360  Biso   1.000  C
  C29      1.0000 0.20680  0.94550  0.92760  Biso   1.000  C
  C30      1.0000 0.79320  0.44550  0.57240  Biso   1.000  C
  C31      1.0000 0.79320  0.05450  0.07240  Biso   1.000  C
  C32      1.0000 0.20680  0.55450  0.42760  Biso   1.000  C
  H5       1.0000 0.19930  0.85200  0.91510  Biso   1.000  H
  H6       1.0000 0.80070  0.35200  0.58490  Biso   1.000  H
  H7       1.0000 0.80070  0.14800  0.08490  Biso   1.000  H
  H8       1.0000 0.19930  0.64800  0.41510  Biso   1.000  H
  C33      1.0000 0.19907  0.98700  0.97300  Biso   1.000  C
  C34      1.0000 0.80093  0.48700  0.52700  Biso   1.000  C
  C35      1.0000 0.80093  0.01300  0.02700  Biso   1.000  C
  C36      1.0000 0.19907  0.51300  0.47300  Biso   1.000  C
  C37      1.0000 0.17460  0.88660  0.99410  Biso   1.000  C
  C38      1.0000 0.82540  0.38660  0.50590  Biso   1.000  C
  C39      1.0000 0.82540  0.11340  0.00590  Biso   1.000  C
  C40      1.0000 0.17460  0.61340  0.49410  Biso   1.000  C
  F37      1.0000 0.19100  0.90470  0.05280  Biso   1.000  F
  F38      1.0000 0.80900  0.40470  0.44720  Biso   1.000  F
  F39      1.0000 0.80900  0.09530  0.94720  Biso   1.000  F
  F40      1.0000 0.19100  0.59530  0.55280  Biso   1.000  F
  F41      1.0000 0.12177  0.90030  0.96010  Biso   1.000  F
  F42      1.0000 0.87823  0.40030  0.53990  Biso   1.000  F
  F43      1.0000 0.87823  0.09970  0.03990  Biso   1.000  F
  F44      1.0000 0.12177  0.59970  0.46010  Biso   1.000  F
  F45      1.0000 0.18392  0.75630  0.98889  Biso   1.000  F
  F46      1.0000 0.81608  0.25630  0.51111  Biso   1.000  F
  F47      1.0000 0.81608  0.24370  0.01111  Biso   1.000  F
  F48      1.0000 0.18392  0.74370  0.48889  Biso   1.000  F
  O13      1.0000 0.20955  0.10270  0.99993  Biso   1.000  O
  O14      1.0000 0.79045  0.60270  0.50007  Biso   1.000  O
  O15      1.0000 0.79045  0.89730  0.00007  Biso   1.000  O
  O16      1.0000 0.20955  0.39730  0.49993  Biso   1.000  O
  O17      1.0000 0.29392  0.40650  0.99577  Biso   1.000  O
  O18      1.0000 0.70608  0.90650  0.50423  Biso   1.000  O
  O19      1.0000 0.70608  0.59350  0.00423  Biso   1.000  O
  O20      1.0000 0.29392  0.09350  0.49577  Biso   1.000  O
  C41      1.0000 0.32800  0.62230  0.00030  Biso   1.000  C
  C42      1.0000 0.67200  0.12230  0.49970  Biso   1.000  C
  C43      1.0000 0.67200  0.37770  0.99970  Biso   1.000  C
  C44      1.0000 0.32800  0.87770  0.50030  Biso   1.000  C
  F49      1.0000 0.37140  0.58670  0.01040  Biso   1.000  F
  F50      1.0000 0.62860  0.08670  0.48960  Biso   1.000  F
  F51      1.0000 0.62860  0.41330  0.98960  Biso   1.000  F
  F52      1.0000 0.37140  0.91330  0.51040  Biso   1.000  F
  F53      1.0000 0.29370  0.63360  0.93500  Biso   1.000  F
  F54      1.0000 0.70630  0.13360  0.56500  Biso   1.000  F
  F55      1.0000 0.70630  0.36640  0.06500  Biso   1.000  F
  F56      1.0000 0.29370  0.86640  0.43500  Biso   1.000  F
  F57      1.0000 0.32937  0.75110  0.01651  Biso   1.000  F
  F58      1.0000 0.67063  0.25110  0.48349  Biso   1.000  F
  F59      1.0000 0.67063  0.24890  0.98349  Biso   1.000  F
  F60      1.0000 0.32937  0.74890  0.51651  Biso   1.000  F
  C45      1.0000 0.30455  0.52310  0.02300  Biso   1.000  C
  C46      1.0000 0.69545  0.02310  0.47700  Biso   1.000  C
  C47      1.0000 0.69545  0.47690  0.97700  Biso   1.000  C
  C48      1.0000 0.30455  0.97690  0.52300  Biso   1.000  C
  C49      1.0000 0.29820  0.56510  0.06920  Biso   1.000  C
  C50      1.0000 0.70180  0.06510  0.43080  Biso   1.000  C
  C51      1.0000 0.70180  0.43490  0.93080  Biso   1.000  C
  C52      1.0000 0.29820  0.93490  0.56920  Biso   1.000  C
  H9       1.0000 0.30320  0.65800  0.08100  Biso   1.000  H
  H10      1.0000 0.69680  0.15800  0.41900  Biso   1.000  H
  H11      1.0000 0.69680  0.34200  0.91900  Biso   1.000  H
  H12      1.0000 0.30320  0.84200  0.58100  Biso   1.000  H
  C53      1.0000 0.27742  0.48080  0.09330  Biso   1.000  C
  C54      1.0000 0.72258  0.98080  0.40670  Biso   1.000  C
  C55      1.0000 0.72258  0.51920  0.90670  Biso   1.000  C
  C56      1.0000 0.27742  0.01920  0.59330  Biso   1.000  C
  C57      1.0000 0.26830  0.54550  0.14110  Biso   1.000  C
  C58      1.0000 0.73170  0.04550  0.35890  Biso   1.000  C
  C59      1.0000 0.73170  0.45450  0.85890  Biso   1.000  C
  C60      1.0000 0.26830  0.95450  0.64110  Biso   1.000  C
  F61      1.0000 0.28730  0.46410  0.19096  Biso   1.000  F
  F62      1.0000 0.71270  0.96410  0.30904  Biso   1.000  F
  F63      1.0000 0.71270  0.53590  0.80904  Biso   1.000  F
  F64      1.0000 0.28730  0.03590  0.69096  Biso   1.000  F
  F65      1.0000 0.29030  0.66560  0.16280  Biso   1.000  F
  F66      1.0000 0.70970  0.16560  0.33720  Biso   1.000  F
  F67      1.0000 0.70970  0.33440  0.83720  Biso   1.000  F
  F68      1.0000 0.29030  0.83440  0.66280  Biso   1.000  F
  F69      1.0000 0.21514  0.56010  0.11245  Biso   1.000  F
  F70      1.0000 0.78486  0.06010  0.38755  Biso   1.000  F
  F71      1.0000 0.78486  0.43990  0.88755  Biso   1.000  F
  F72      1.0000 0.21514  0.93990  0.61245  Biso   1.000  F
  O21      1.0000 0.26428  0.35720  0.08071  Biso   1.000  O
  O22      1.0000 0.73572  0.85720  0.41929  Biso   1.000  O
  O23      1.0000 0.73572  0.64280  0.91929  Biso   1.000  O
  O24      1.0000 0.26428  0.14280  0.58071  Biso   1.000  O
  Cu7      1.0000 0.50000  0.50000  0.00000  Biso   1.000  Cu
  Cu8      1.0000 0.50000  0.00000  0.50000  Biso   1.000  Cu
  O25      1.0000 0.43689  0.56810  0.91410  Biso   1.000  O
  O26      1.0000 0.56311  0.06810  0.58590  Biso   1.000  O
  O27      1.0000 0.56311  0.43190  0.08590  Biso   1.000  O
  O28      1.0000 0.43689  0.93190  0.41410  Biso   1.000  O
  C61      1.0000 0.37550  0.72250  0.83270  Biso   1.000  C
  C62      1.0000 0.62450  0.22250  0.66730  Biso   1.000  C
  C63      1.0000 0.62450  0.27750  0.16730  Biso   1.000  C
  C64      1.0000 0.37550  0.77750  0.33270  Biso   1.000  C
  F73      1.0000 0.36040  0.85310  0.82340  Biso   1.000  F
  F74      1.0000 0.63960  0.35310  0.67660  Biso   1.000  F
  F75      1.0000 0.63960  0.14690  0.17660  Biso   1.000  F
  F76      1.0000 0.36040  0.64690  0.32340  Biso   1.000  F
  F77      1.0000 0.39540  0.70330  0.80100  Biso   1.000  F
  F78      1.0000 0.60460  0.20330  0.69900  Biso   1.000  F
  F79      1.0000 0.60460  0.29670  0.19900  Biso   1.000  F
  F80      1.0000 0.39540  0.79670  0.30100  Biso   1.000  F
  F81      1.0000 0.33170  0.64930  0.80570  Biso   1.000  F
  F82      1.0000 0.66830  0.14930  0.69430  Biso   1.000  F
  F83      1.0000 0.66830  0.35070  0.19430  Biso   1.000  F
  F84      1.0000 0.33170  0.85070  0.30570  Biso   1.000  F
  C65      1.0000 0.41845  0.68860  0.90510  Biso   1.000  C
  C66      1.0000 0.58155  0.18860  0.59490  Biso   1.000  C
  C67      1.0000 0.58155  0.31140  0.09490  Biso   1.000  C
  C68      1.0000 0.41845  0.81140  0.40510  Biso   1.000  C
  C69      1.0000 0.43140  0.78710  0.95070  Biso   1.000  C
  C70      1.0000 0.56860  0.28710  0.54930  Biso   1.000  C
  C71      1.0000 0.56860  0.21290  0.04930  Biso   1.000  C
  C72      1.0000 0.43140  0.71290  0.45070  Biso   1.000  C
  H13      1.0000 0.41820  0.86900  0.94090  Biso   1.000  H
  H14      1.0000 0.58180  0.36900  0.55910  Biso   1.000  H
  H15      1.0000 0.58180  0.13100  0.05910  Biso   1.000  H
  H16      1.0000 0.41820  0.63100  0.44090  Biso   1.000  H
  C73      1.0000 0.46847  0.76560  0.01660  Biso   1.000  C
  C74      1.0000 0.53153  0.26560  0.48340  Biso   1.000  C
  C75      1.0000 0.53153  0.23440  0.98340  Biso   1.000  C
  C76      1.0000 0.46847  0.73440  0.51660  Biso   1.000  C
  C77      1.0000 0.47980  0.88410  0.06160  Biso   1.000  C
  C78      1.0000 0.52020  0.38410  0.43840  Biso   1.000  C
  C79      1.0000 0.52020  0.11590  0.93840  Biso   1.000  C
  C80      1.0000 0.47980  0.61590  0.56160  Biso   1.000  C
  F85      1.0000 0.46031  0.86560  0.09330  Biso   1.000  F
  F86      1.0000 0.53969  0.36560  0.40670  Biso   1.000  F
  F87      1.0000 0.53969  0.13440  0.90670  Biso   1.000  F
  F88      1.0000 0.46031  0.63440  0.59330  Biso   1.000  F
  F89      1.0000 0.53476  0.89610  0.10863  Biso   1.000  F
  F90      1.0000 0.46524  0.39610  0.39137  Biso   1.000  F
  F91      1.0000 0.46524  0.10390  0.89137  Biso   1.000  F
  F92      1.0000 0.53476  0.60390  0.60863  Biso   1.000  F
  F93      1.0000 0.46731  0.00460  0.03447  Biso   1.000  F
  F94      1.0000 0.53269  0.50460  0.46553  Biso   1.000  F
  F95      1.0000 0.53269  0.99540  0.96553  Biso   1.000  F
  F96      1.0000 0.46731  0.49540  0.53447  Biso   1.000  F
  O29      1.0000 0.49536  0.65680  0.04543  Biso   1.000  O
  O30      1.0000 0.50464  0.15680  0.45457  Biso   1.000  O
  O31      1.0000 0.50464  0.34320  0.95457  Biso   1.000  O
  O32      1.0000 0.49536  0.84320  0.54543  Biso   1.000  O
  O33      1.0000 0.18282  0.38930  0.94980  Biso   1.000  O
  O34      1.0000 0.81718  0.88930  0.55020  Biso   1.000  O
  O35      1.0000 0.81718  0.61070  0.05020  Biso   1.000  O
  O36      1.0000 0.18282  0.11070  0.44980  Biso   1.000  O
  N1       1.0000 0.13547  0.36430  0.89487  Biso   1.000  N
  N2       1.0000 0.86453  0.86430  0.60513  Biso   1.000  N
  N3       1.0000 0.86453  0.63570  0.10513  Biso   1.000  N
  N4       1.0000 0.13547  0.13570  0.39487  Biso   1.000  N
  C81      1.0000 0.11990  0.42650  0.83200  Biso   1.000  C
  C82      1.0000 0.88010  0.92650  0.66800  Biso   1.000  C
  C83      1.0000 0.88010  0.57350  0.16800  Biso   1.000  C
  C84      1.0000 0.11990  0.07350  0.33200  Biso   1.000  C
  C85      1.0000 0.10680  0.57720  0.83450  Biso   1.000  C
  C86      1.0000 0.89320  0.07720  0.66550  Biso   1.000  C
  C87      1.0000 0.89320  0.42280  0.16550  Biso   1.000  C
  C88      1.0000 0.10680  0.92280  0.33450  Biso   1.000  C
  H17      1.0000 0.07100  0.59600  0.83900  Biso   1.000  H
  H18      1.0000 0.92900  0.09600  0.66100  Biso   1.000  H
  H19      1.0000 0.92900  0.40400  0.16100  Biso   1.000  H
  H20      1.0000 0.07100  0.90400  0.33900  Biso   1.000  H
  H21      1.0000 0.10010  0.62200  0.80200  Biso   1.000  H
  H22      1.0000 0.89990  0.12200  0.69800  Biso   1.000  H
  H23      1.0000 0.89990  0.37800  0.19800  Biso   1.000  H
  H24      1.0000 0.10010  0.87800  0.30200  Biso   1.000  H
  H25      1.0000 0.14300  0.60400  0.87800  Biso   1.000  H
  H26      1.0000 0.85700  0.10400  0.62200  Biso   1.000  H
  H27      1.0000 0.85700  0.39600  0.12200  Biso   1.000  H
  H28      1.0000 0.14300  0.89600  0.37800  Biso   1.000  H
  C89      1.0000 0.16740  0.41530  0.82750  Biso   1.000  C
  C90      1.0000 0.83260  0.91530  0.67250  Biso   1.000  C
  C91      1.0000 0.83260  0.58470  0.17250  Biso   1.000  C
  C92      1.0000 0.16740  0.08470  0.32750  Biso   1.000  C
  H29      1.0000 0.17730  0.34100  0.83000  Biso   1.000  H
  H30      1.0000 0.82270  0.84100  0.67000  Biso   1.000  H
  H31      1.0000 0.82270  0.65900  0.17000  Biso   1.000  H
  H32      1.0000 0.17730  0.15900  0.33000  Biso   1.000  H
  H33      1.0000 0.19800  0.49100  0.85300  Biso   1.000  H
  H34      1.0000 0.80200  0.99100  0.64700  Biso   1.000  H
  H35      1.0000 0.80200  0.50900  0.14700  Biso   1.000  H
  H36      1.0000 0.19800  0.00900  0.35300  Biso   1.000  H
  H37      1.0000 0.15700  0.44700  0.78700  Biso   1.000  H
  H38      1.0000 0.84300  0.94700  0.71300  Biso   1.000  H
  H39      1.0000 0.84300  0.55300  0.21300  Biso   1.000  H
  H40      1.0000 0.15700  0.05300  0.28700  Biso   1.000  H
  C93      1.0000 0.06850  0.33810  0.78300  Biso   1.000  C
  C94      1.0000 0.93150  0.83810  0.71700  Biso   1.000  C
  C95      1.0000 0.93150  0.66190  0.21700  Biso   1.000  C
  C96      1.0000 0.06850  0.16190  0.28300  Biso   1.000  C
  C97      1.0000 0.02390  0.41150  0.72160  Biso   1.000  C
  C98      1.0000 0.97610  0.91150  0.77840  Biso   1.000  C
  C99      1.0000 0.97610  0.58850  0.27840  Biso   1.000  C
  C100     1.0000 0.02390  0.08850  0.22160  Biso   1.000  C
  H41      1.0000 0.01300  0.48800  0.72800  Biso   1.000  H
  H42      1.0000 0.98700  0.98800  0.77200  Biso   1.000  H
  H43      1.0000 0.98700  0.51200  0.27200  Biso   1.000  H
  H44      1.0000 0.01300  0.01200  0.22800  Biso   1.000  H
  H45      1.0000 0.99500  0.36000  0.69700  Biso   1.000  H
  H46      1.0000 0.00500  0.86000  0.80300  Biso   1.000  H
  H47      1.0000 0.00500  0.64000  0.30300  Biso   1.000  H
  H48      1.0000 0.99500  0.14000  0.19700  Biso   1.000  H
  H49      1.0000 0.03900  0.42100  0.69200  Biso   1.000  H
  H50      1.0000 0.96100  0.92100  0.80800  Biso   1.000  H
  H51      1.0000 0.96100  0.57900  0.30800  Biso   1.000  H
  H52      1.0000 0.03900  0.07900  0.19200  Biso   1.000  H
  C101     1.0000 0.08240  0.20030  0.76750  Biso   1.000  C
  C102     1.0000 0.91760  0.70030  0.73250  Biso   1.000  C
  C103     1.0000 0.91760  0.79970  0.23250  Biso   1.000  C
  C104     1.0000 0.08240  0.29970  0.26750  Biso   1.000  C
  H53      1.0000 0.11250  0.16200  0.80900  Biso   1.000  H
  H54      1.0000 0.88750  0.66200  0.69100  Biso   1.000  H
  H55      1.0000 0.88750  0.83800  0.19100  Biso   1.000  H
  H56      1.0000 0.11250  0.33800  0.30900  Biso   1.000  H
  H57      1.0000 0.09200  0.22200  0.74200  Biso   1.000  H
  H58      1.0000 0.90800  0.72200  0.75800  Biso   1.000  H
  H59      1.0000 0.90800  0.77800  0.25800  Biso   1.000  H
  H60      1.0000 0.09200  0.27800  0.24200  Biso   1.000  H
  H61      1.0000 0.05200  0.15500  0.74600  Biso   1.000  H
  H62      1.0000 0.94800  0.65500  0.75400  Biso   1.000  H
  H63      1.0000 0.94800  0.84500  0.25400  Biso   1.000  H
  H64      1.0000 0.05200  0.34500  0.24600  Biso   1.000  H
  N5       1.0000 0.04992  0.30400  0.82411  Biso   1.000  N
  N6       1.0000 0.95008  0.80400  0.67589  Biso   1.000  N
  N7       1.0000 0.95008  0.69600  0.17589  Biso   1.000  N
  N8       1.0000 0.04992  0.19600  0.32411  Biso   1.000  N
  O37      1.0000 0.00163  0.25890  0.80037  Biso   1.000  O
  O38      1.0000 0.99837  0.75890  0.69963  Biso   1.000  O
  O39      1.0000 0.99837  0.74110  0.19963  Biso   1.000  O
  O40      1.0000 0.00163  0.24110  0.30037  Biso   1.000  O
  C105     1.0000 0.09228  0.30770  0.88860  Biso   1.000  C
  C106     1.0000 0.90772  0.80770  0.61140  Biso   1.000  C
  C107     1.0000 0.90772  0.69230  0.11140  Biso   1.000  C
  C108     1.0000 0.09228  0.19230  0.38860  Biso   1.000  C
  C109     1.0000 0.09069  0.25620  0.94000  Biso   1.000  C
  C110     1.0000 0.90931  0.75620  0.56000  Biso   1.000  C
  C111     1.0000 0.90931  0.74380  0.06000  Biso   1.000  C
  C112     1.0000 0.09069  0.24380  0.44000  Biso   1.000  C
  C113     1.0000 0.05030  0.17940  0.93660  Biso   1.000  C
  C114     1.0000 0.94970  0.67940  0.56340  Biso   1.000  C
  C115     1.0000 0.94970  0.82060  0.06340  Biso   1.000  C
  C116     1.0000 0.05030  0.32060  0.43660  Biso   1.000  C
  H65      1.0000 0.02170  0.15700  0.90520  Biso   1.000  H
  H66      1.0000 0.97830  0.65700  0.59480  Biso   1.000  H
  H67      1.0000 0.97830  0.84300  0.09480  Biso   1.000  H
  H68      1.0000 0.02170  0.34300  0.40520  Biso   1.000  H
  N9       1.0000 0.06372  0.14330  0.99311  Biso   1.000  N
  N10      1.0000 0.93628  0.64330  0.50689  Biso   1.000  N
  N11      1.0000 0.93628  0.85670  0.00689  Biso   1.000  N
  N12      1.0000 0.06372  0.35670  0.49311  Biso   1.000  N
  N13      1.0000 0.11521  0.19690  0.03560  Biso   1.000  N
  N14      1.0000 0.88479  0.69690  0.46440  Biso   1.000  N
  N15      1.0000 0.88479  0.80310  0.96440  Biso   1.000  N
  N16      1.0000 0.11521  0.30310  0.53560  Biso   1.000  N
  C117     1.0000 0.14710  0.16980  0.10510  Biso   1.000  C
  C118     1.0000 0.85290  0.66980  0.39490  Biso   1.000  C
  C119     1.0000 0.85290  0.83020  0.89490  Biso   1.000  C
  C120     1.0000 0.14710  0.33020  0.60510  Biso   1.000  C
  H69      1.0000 0.17730  0.20200  0.12110  Biso   1.000  H
  H70      1.0000 0.82270  0.70200  0.37890  Biso   1.000  H
  H71      1.0000 0.82270  0.79800  0.87890  Biso   1.000  H
  H72      1.0000 0.17730  0.29800  0.62110  Biso   1.000  H
  H73      1.0000 0.15040  0.07000  0.10900  Biso   1.000  H
  H74      1.0000 0.84960  0.57000  0.39100  Biso   1.000  H
  H75      1.0000 0.84960  0.93000  0.89100  Biso   1.000  H
  H76      1.0000 0.15040  0.43000  0.60900  Biso   1.000  H
  C121     1.0000 0.12550  0.23370  0.13900  Biso   1.000  C
  C122     1.0000 0.87450  0.73370  0.36100  Biso   1.000  C
  C123     1.0000 0.87450  0.76630  0.86100  Biso   1.000  C
  C124     1.0000 0.12550  0.26630  0.63900  Biso   1.000  C
  H77      1.0000 0.15100  0.22500  0.18500  Biso   1.000  H
  H78      1.0000 0.84900  0.72500  0.31500  Biso   1.000  H
  H79      1.0000 0.84900  0.77500  0.81500  Biso   1.000  H
  H80      1.0000 0.15100  0.27500  0.68500  Biso   1.000  H
  H81      1.0000 0.08600  0.18200  0.12070  Biso   1.000  H
  H82      1.0000 0.91400  0.68200  0.37930  Biso   1.000  H
  H83      1.0000 0.91400  0.81800  0.87930  Biso   1.000  H
  H84      1.0000 0.08600  0.31800  0.62070  Biso   1.000  H
  C125     1.0000 0.12120  0.38690  0.13190  Biso   1.000  C
  C126     1.0000 0.87880  0.88690  0.36810  Biso   1.000  C
  C127     1.0000 0.87880  0.61310  0.86810  Biso   1.000  C
  C128     1.0000 0.12120  0.11310  0.63190  Biso   1.000  C
  H85      1.0000 0.10930  0.42200  0.15500  Biso   1.000  H
  H86      1.0000 0.89070  0.92200  0.34500  Biso   1.000  H
  H87      1.0000 0.89070  0.57800  0.84500  Biso   1.000  H
  H88      1.0000 0.10930  0.07800  0.65500  Biso   1.000  H
  H89      1.0000 0.10100  0.41800  0.08700  Biso   1.000  H
  H90      1.0000 0.89900  0.91800  0.41300  Biso   1.000  H
  H91      1.0000 0.89900  0.58200  0.91300  Biso   1.000  H
  H92      1.0000 0.10100  0.08200  0.58700  Biso   1.000  H
  H93      1.0000 0.15800  0.42000  0.15200  Biso   1.000  H
  H94      1.0000 0.84200  0.92000  0.34800  Biso   1.000  H
  H95      1.0000 0.84200  0.58000  0.84800  Biso   1.000  H
  H96      1.0000 0.15800  0.08000  0.65200  Biso   1.000  H
  C129     1.0000 0.13180  0.26490  0.00520  Biso   1.000  C
  C130     1.0000 0.86820  0.76490  0.49480  Biso   1.000  C
  C131     1.0000 0.86820  0.73510  0.99480  Biso   1.000  C
  C132     1.0000 0.13180  0.23510  0.50520  Biso   1.000  C
  H97      1.0000 0.16200  0.30900  0.02700  Biso   1.000  H
  H98      1.0000 0.83800  0.80900  0.47300  Biso   1.000  H
  H99      1.0000 0.83800  0.69100  0.97300  Biso   1.000  H
  H100     1.0000 0.16200  0.19100  0.52700  Biso   1.000  H
  O41      1.0000 0.32023  0.11760  0.05141  Biso   1.000  O
  O42      1.0000 0.67977  0.61760  0.44859  Biso   1.000  O
  O43      1.0000 0.67977  0.88240  0.94859  Biso   1.000  O
  O44      1.0000 0.32023  0.38240  0.55141  Biso   1.000  O
  N17      1.0000 0.36563  0.14670  0.10784  Biso   1.000  N
  N18      1.0000 0.63437  0.64670  0.39216  Biso   1.000  N
  N19      1.0000 0.63437  0.85330  0.89216  Biso   1.000  N
  N20      1.0000 0.36563  0.35330  0.60784  Biso   1.000  N
  C133     1.0000 0.37920  0.08370  0.16940  Biso   1.000  C
  C134     1.0000 0.62080  0.58370  0.33060  Biso   1.000  C
  C135     1.0000 0.62080  0.91630  0.83060  Biso   1.000  C
  C136     1.0000 0.37920  0.41630  0.66940  Biso   1.000  C
  C137     1.0000 0.39470  0.93470  0.16840  Biso   1.000  C
  C138     1.0000 0.60530  0.43470  0.33160  Biso   1.000  C
  C139     1.0000 0.60530  0.06530  0.83160  Biso   1.000  C
  C140     1.0000 0.39470  0.56530  0.66840  Biso   1.000  C
  H101     1.0000 0.42900  0.92200  0.16700  Biso   1.000  H
  H102     1.0000 0.57100  0.42200  0.33300  Biso   1.000  H
  H103     1.0000 0.57100  0.07800  0.83300  Biso   1.000  H
  H104     1.0000 0.42900  0.57800  0.66700  Biso   1.000  H
  H105     1.0000 0.35900  0.90600  0.12300  Biso   1.000  H
  H106     1.0000 0.64100  0.40600  0.37700  Biso   1.000  H
  H107     1.0000 0.64100  0.09400  0.87700  Biso   1.000  H
  H108     1.0000 0.35900  0.59400  0.62300  Biso   1.000  H
  H109     1.0000 0.40200  0.89500  0.19900  Biso   1.000  H
  H110     1.0000 0.59800  0.39500  0.30100  Biso   1.000  H
  H111     1.0000 0.59800  0.10500  0.80100  Biso   1.000  H
  H112     1.0000 0.40200  0.60500  0.69900  Biso   1.000  H
  C141     1.0000 0.32950  0.08950  0.17030  Biso   1.000  C
  C142     1.0000 0.67050  0.58950  0.32970  Biso   1.000  C
  C143     1.0000 0.67050  0.91050  0.82970  Biso   1.000  C
  C144     1.0000 0.32950  0.41050  0.67030  Biso   1.000  C
  H113     1.0000 0.31800  0.18100  0.16900  Biso   1.000  H
  H114     1.0000 0.68200  0.68100  0.33100  Biso   1.000  H
  H115     1.0000 0.68200  0.81900  0.83100  Biso   1.000  H
  H116     1.0000 0.31800  0.31900  0.66900  Biso   1.000  H
  H117     1.0000 0.33720  0.06200  0.20500  Biso   1.000  H
  H118     1.0000 0.66280  0.56200  0.29500  Biso   1.000  H
  H119     1.0000 0.66280  0.93800  0.79500  Biso   1.000  H
  H120     1.0000 0.33720  0.43800  0.70500  Biso   1.000  H
  H121     1.0000 0.29900  0.01400  0.13600  Biso   1.000  H
  H122     1.0000 0.70100  0.51400  0.36400  Biso   1.000  H
  H123     1.0000 0.70100  0.98600  0.86400  Biso   1.000  H
  H124     1.0000 0.29900  0.48600  0.63600  Biso   1.000  H
  C145     1.0000 0.42850  0.17490  0.21990  Biso   1.000  C
  C146     1.0000 0.57150  0.67490  0.28010  Biso   1.000  C
  C147     1.0000 0.57150  0.82510  0.78010  Biso   1.000  C
  C148     1.0000 0.42850  0.32510  0.71990  Biso   1.000  C
  C149     1.0000 0.41180  0.31130  0.23340  Biso   1.000  C
  C150     1.0000 0.58820  0.81130  0.26660  Biso   1.000  C
  C151     1.0000 0.58820  0.68870  0.76660  Biso   1.000  C
  C152     1.0000 0.41180  0.18870  0.73340  Biso   1.000  C
  H125     1.0000 0.38250  0.35700  0.19100  Biso   1.000  H
  H126     1.0000 0.61750  0.85700  0.30900  Biso   1.000  H
  H127     1.0000 0.61750  0.64300  0.80900  Biso   1.000  H
  H128     1.0000 0.38250  0.14300  0.69100  Biso   1.000  H
  H129     1.0000 0.44300  0.36600  0.25600  Biso   1.000  H
  H130     1.0000 0.55700  0.86600  0.24400  Biso   1.000  H
  H131     1.0000 0.55700  0.63400  0.74400  Biso   1.000  H
  H132     1.0000 0.44300  0.13400  0.75600  Biso   1.000  H
  H133     1.0000 0.40200  0.30400  0.25700  Biso   1.000  H
  H134     1.0000 0.59800  0.80400  0.24300  Biso   1.000  H
  H135     1.0000 0.59800  0.69600  0.74300  Biso   1.000  H
  H136     1.0000 0.40200  0.19600  0.75700  Biso   1.000  H
  C153     1.0000 0.47320  0.10360  0.28210  Biso   1.000  C
  C154     1.0000 0.52680  0.60360  0.21790  Biso   1.000  C
  C155     1.0000 0.52680  0.89640  0.71790  Biso   1.000  C
  C156     1.0000 0.47320  0.39640  0.78210  Biso   1.000  C
  H137     1.0000 0.48500  0.02400  0.27300  Biso   1.000  H
  H138     1.0000 0.51500  0.52400  0.22700  Biso   1.000  H
  H139     1.0000 0.51500  0.97600  0.72700  Biso   1.000  H
  H140     1.0000 0.48500  0.47600  0.77300  Biso   1.000  H
  H141     1.0000 0.45900  0.09100  0.30300  Biso   1.000  H
  H142     1.0000 0.54100  0.59100  0.19700  Biso   1.000  H
  H143     1.0000 0.54100  0.90900  0.69700  Biso   1.000  H
  H144     1.0000 0.45900  0.40900  0.80300  Biso   1.000  H
  H145     1.0000 0.50100  0.15400  0.30700  Biso   1.000  H
  H146     1.0000 0.49900  0.65400  0.19300  Biso   1.000  H
  H147     1.0000 0.49900  0.84600  0.69300  Biso   1.000  H
  H148     1.0000 0.50100  0.34600  0.80700  Biso   1.000  H
  N21      1.0000 0.44977  0.21350  0.18157  Biso   1.000  N
  N22      1.0000 0.55023  0.71350  0.31843  Biso   1.000  N
  N23      1.0000 0.55023  0.78650  0.81843  Biso   1.000  N
  N24      1.0000 0.44977  0.28650  0.68157  Biso   1.000  N
  O45      1.0000 0.49757  0.26150  0.20749  Biso   1.000  O
  O46      1.0000 0.50243  0.76150  0.29251  Biso   1.000  O
  O47      1.0000 0.50243  0.73850  0.79251  Biso   1.000  O
  O48      1.0000 0.49757  0.23850  0.70749  Biso   1.000  O
  C157     1.0000 0.40948  0.20600  0.11712  Biso   1.000  C
  C158     1.0000 0.59052  0.70600  0.38288  Biso   1.000  C
  C159     1.0000 0.59052  0.79400  0.88288  Biso   1.000  C
  C160     1.0000 0.40948  0.29400  0.61712  Biso   1.000  C
  C161     1.0000 0.41389  0.25210  0.06720  Biso   1.000  C
  C162     1.0000 0.58611  0.75210  0.43280  Biso   1.000  C
  C163     1.0000 0.58611  0.74790  0.93280  Biso   1.000  C
  C164     1.0000 0.41389  0.24790  0.56720  Biso   1.000  C
  C165     1.0000 0.45467  0.33310  0.07250  Biso   1.000  C
  C166     1.0000 0.54533  0.83310  0.42750  Biso   1.000  C
  C167     1.0000 0.54533  0.66690  0.92750  Biso   1.000  C
  C168     1.0000 0.45467  0.16690  0.57250  Biso   1.000  C
  H149     1.0000 0.48580  0.36700  0.11000  Biso   1.000  H
  H150     1.0000 0.51420  0.86700  0.39000  Biso   1.000  H
  H151     1.0000 0.51420  0.63300  0.89000  Biso   1.000  H
  H152     1.0000 0.48580  0.13300  0.61000  Biso   1.000  H
  N25      1.0000 0.44495  0.35250  0.01596  Biso   1.000  N
  N26      1.0000 0.55505  0.85250  0.48404  Biso   1.000  N
  N27      1.0000 0.55505  0.64750  0.98404  Biso   1.000  N
  N28      1.0000 0.44495  0.14750  0.51596  Biso   1.000  N
  N29      1.0000 0.39683  0.28330  0.97273  Biso   1.000  N
  N30      1.0000 0.60317  0.78330  0.52727  Biso   1.000  N
  N31      1.0000 0.60317  0.71670  0.02727  Biso   1.000  N
  N32      1.0000 0.39683  0.21670  0.47273  Biso   1.000  N
  C169     1.0000 0.37180  0.27790  0.90270  Biso   1.000  C
  C170     1.0000 0.62820  0.77790  0.59730  Biso   1.000  C
  C171     1.0000 0.62820  0.72210  0.09730  Biso   1.000  C
  C172     1.0000 0.37180  0.22210  0.40270  Biso   1.000  C
  H153     1.0000 0.40070  0.32200  0.89800  Biso   1.000  H
  H154     1.0000 0.59930  0.82200  0.60200  Biso   1.000  H
  H155     1.0000 0.59930  0.67800  0.10200  Biso   1.000  H
  H156     1.0000 0.40070  0.17800  0.39800  Biso   1.000  H
  H157     1.0000 0.36900  0.17900  0.88800  Biso   1.000  H
  H158     1.0000 0.63100  0.67900  0.61200  Biso   1.000  H
  H159     1.0000 0.63100  0.82100  0.11200  Biso   1.000  H
  H160     1.0000 0.36900  0.32100  0.38800  Biso   1.000  H
  C173     1.0000 0.31730  0.34800  0.86240  Biso   1.000  C
  C174     1.0000 0.68270  0.84800  0.63760  Biso   1.000  C
  C175     1.0000 0.68270  0.65200  0.13760  Biso   1.000  C
  C176     1.0000 0.31730  0.15200  0.36240  Biso   1.000  C
  H161     1.0000 0.32600  0.45200  0.87700  Biso   1.000  H
  H162     1.0000 0.67400  0.95200  0.62300  Biso   1.000  H
  H163     1.0000 0.67400  0.54800  0.12300  Biso   1.000  H
  H164     1.0000 0.32600  0.04800  0.37700  Biso   1.000  H
  H165     1.0000 0.29600  0.31300  0.86600  Biso   1.000  H
  H166     1.0000 0.70400  0.81300  0.63400  Biso   1.000  H
  H167     1.0000 0.70400  0.68700  0.13400  Biso   1.000  H
  H168     1.0000 0.29600  0.18700  0.36600  Biso   1.000  H
  C177     1.0000 0.28900  0.32960  0.79000  Biso   1.000  C
  C178     1.0000 0.71100  0.82960  0.71000  Biso   1.000  C
  C179     1.0000 0.71100  0.67040  0.21000  Biso   1.000  C
  C180     1.0000 0.28900  0.17040  0.29000  Biso   1.000  C
  H169     1.0000 0.26000  0.39200  0.76800  Biso   1.000  H
  H170     1.0000 0.74000  0.89200  0.73200  Biso   1.000  H
  H171     1.0000 0.74000  0.60800  0.23200  Biso   1.000  H
  H172     1.0000 0.26000  0.10800  0.26800  Biso   1.000  H
  H173     1.0000 0.29200  0.24700  0.78100  Biso   1.000  H
  H174     1.0000 0.70800  0.74700  0.71900  Biso   1.000  H
  H175     1.0000 0.70800  0.75300  0.21900  Biso   1.000  H
  H176     1.0000 0.29200  0.25300  0.28100  Biso   1.000  H
  H177     1.0000 0.31400  0.35500  0.77800  Biso   1.000  H
  H178     1.0000 0.68600  0.85500  0.72200  Biso   1.000  H
  H179     1.0000 0.68600  0.64500  0.22200  Biso   1.000  H
  H180     1.0000 0.31400  0.14500  0.27800  Biso   1.000  H
  C181     1.0000 0.37770  0.22340  0.00190  Biso   1.000  C
  C182     1.0000 0.62230  0.72340  0.49810  Biso   1.000  C
  C183     1.0000 0.62230  0.77660  0.99810  Biso   1.000  C
  C184     1.0000 0.37770  0.27660  0.50190  Biso   1.000  C
  H181     1.0000 0.34700  0.16900  0.98000  Biso   1.000  H
  H182     1.0000 0.65300  0.66900  0.52000  Biso   1.000  H
  H183     1.0000 0.65300  0.83100  0.02000  Biso   1.000  H
  H184     1.0000 0.34700  0.33100  0.48000  Biso   1.000  H
  F97      1.0000 0.33120  0.75600  0.81830  Biso   1.000  F
  F98      1.0000 0.66880  0.25600  0.68170  Biso   1.000  F
  F99      1.0000 0.66880  0.24400  0.18170  Biso   1.000  F
  F100     1.0000 0.33120  0.74400  0.31830  Biso   1.000  F
  F101     1.0000 0.38820  0.82800  0.81940  Biso   1.000  F
  F102     1.0000 0.61180  0.32800  0.68060  Biso   1.000  F
  F103     1.0000 0.61180  0.17200  0.18060  Biso   1.000  F
  F104     1.0000 0.38820  0.67200  0.31940  Biso   1.000  F
  F105     1.0000 0.36560  0.63900  0.79500  Biso   1.000  F
  F106     1.0000 0.63440  0.13900  0.70500  Biso   1.000  F
  F107     1.0000 0.63440  0.36100  0.20500  Biso   1.000  F
  F108     1.0000 0.36560  0.86100  0.29500  Biso   1.000  F
