data_image0
_cell_length_a       30.321
_cell_length_b       9.6572
_cell_length_c       25.6994
_cell_angle_alpha    90
_cell_angle_beta     126.402
_cell_angle_gamma    90

_symmetry_space_group_name_H-M    "P 1"
_symmetry_int_tables_number       1

loop_
  _symmetry_equiv_pos_as_xyz
  'x, y, z'

loop_
  _atom_site_label
  _atom_site_occupancy
  _atom_site_fract_x
  _atom_site_fract_y
  _atom_site_fract_z
  _atom_site_thermal_displace_type
  _atom_site_B_iso_or_equiv
  _atom_site_type_symbol
  Cu1      1.0000 0.00000  0.00000  0.00000  Biso   1.000  Cu
  Cu2      1.0000 0.00000  0.50000  0.50000  Biso   1.000  Cu
  O1       1.0000 0.94187  0.06420  0.91315  Biso   1.000  O
  O2       1.0000 0.05813  0.56420  0.58685  Biso   1.000  O
  O3       1.0000 0.05813  0.93580  0.08685  Biso   1.000  O
  O4       1.0000 0.94187  0.43580  0.41315  Biso   1.000  O
  C1       1.0000 0.87078  0.19590  0.82794  Biso   1.000  C
  C2       1.0000 0.12922  0.69590  0.67206  Biso   1.000  C
  C3       1.0000 0.12922  0.80410  0.17206  Biso   1.000  C
  C4       1.0000 0.87078  0.30410  0.32794  Biso   1.000  C
  F1       1.0000 0.84295  0.30590  0.81412  Biso   1.000  F
  F2       1.0000 0.15705  0.80590  0.68588  Biso   1.000  F
  F3       1.0000 0.15705  0.69410  0.18588  Biso   1.000  F
  F4       1.0000 0.84295  0.19410  0.31412  Biso   1.000  F
  F5       1.0000 0.83563  0.09440  0.80100  Biso   1.000  F
  F6       1.0000 0.16437  0.59440  0.69900  Biso   1.000  F
  F7       1.0000 0.16437  0.90560  0.19900  Biso   1.000  F
  F8       1.0000 0.83563  0.40560  0.30100  Biso   1.000  F
  F9       1.0000 0.89393  0.19980  0.79760  Biso   1.000  F
  F10      1.0000 0.10607  0.69980  0.70240  Biso   1.000  F
  F11      1.0000 0.10607  0.80020  0.20240  Biso   1.000  F
  F12      1.0000 0.89393  0.30020  0.29760  Biso   1.000  F
  C5       1.0000 0.91402  0.17140  0.90092  Biso   1.000  C
  C6       1.0000 0.08598  0.67140  0.59908  Biso   1.000  C
  C7       1.0000 0.08598  0.82860  0.09908  Biso   1.000  C
  C8       1.0000 0.91402  0.32860  0.40092  Biso   1.000  C
  C9       1.0000 0.91691  0.26330  0.94301  Biso   1.000  C
  C10      1.0000 0.08309  0.76330  0.55699  Biso   1.000  C
  C11      1.0000 0.08309  0.73670  0.05699  Biso   1.000  C
  C12      1.0000 0.91691  0.23670  0.44301  Biso   1.000  C
  H1       1.0000 0.89480  0.33000  0.92780  Biso   1.000  H
  H2       1.0000 0.10520  0.83000  0.57220  Biso   1.000  H
  H3       1.0000 0.10520  0.67000  0.07220  Biso   1.000  H
  H4       1.0000 0.89480  0.17000  0.42780  Biso   1.000  H
  C13      1.0000 0.95538  0.25150  0.00948  Biso   1.000  C
  C14      1.0000 0.04462  0.75150  0.49052  Biso   1.000  C
  C15      1.0000 0.04462  0.74850  0.99052  Biso   1.000  C
  C16      1.0000 0.95538  0.24850  0.50948  Biso   1.000  C
  C17      1.0000 0.95793  0.36920  0.05001  Biso   1.000  C
  C18      1.0000 0.04207  0.86920  0.44999  Biso   1.000  C
  C19      1.0000 0.04207  0.63080  0.94999  Biso   1.000  C
  C20      1.0000 0.95793  0.13080  0.55001  Biso   1.000  C
  F13      1.0000 0.90752  0.40870  0.03088  Biso   1.000  F
  F14      1.0000 0.09248  0.90870  0.46912  Biso   1.000  F
  F15      1.0000 0.09248  0.59130  0.96912  Biso   1.000  F
  F16      1.0000 0.90752  0.09130  0.53088  Biso   1.000  F
  F17      1.0000 0.98178  0.32940  0.11318  Biso   1.000  F
  F18      1.0000 0.01822  0.82940  0.38682  Biso   1.000  F
  F19      1.0000 0.01822  0.67060  0.88682  Biso   1.000  F
  F20      1.0000 0.98178  0.17060  0.61318  Biso   1.000  F
  F21      1.0000 0.97694  0.48140  0.04210  Biso   1.000  F
  F22      1.0000 0.02306  0.98140  0.45790  Biso   1.000  F
  F23      1.0000 0.02306  0.51860  0.95790  Biso   1.000  F
  F24      1.0000 0.97694  0.01860  0.54210  Biso   1.000  F
  O5       1.0000 0.98912  0.15655  0.04009  Biso   1.000  O
  O6       1.0000 0.01088  0.65655  0.45991  Biso   1.000  O
  O7       1.0000 0.01088  0.84345  0.95991  Biso   1.000  O
  O8       1.0000 0.98912  0.34345  0.54009  Biso   1.000  O
  Cu3      1.0000 0.25188  0.25316  0.99865  Biso   1.000  Cu
  Cu4      1.0000 0.74812  0.75316  0.50135  Biso   1.000  Cu
  Cu5      1.0000 0.74812  0.74684  0.00135  Biso   1.000  Cu
  Cu6      1.0000 0.25188  0.24684  0.49865  Biso   1.000  Cu
  O9       1.0000 0.24228  0.15280  0.91969  Biso   1.000  O
  O10      1.0000 0.75772  0.65280  0.58031  Biso   1.000  O
  O11      1.0000 0.75772  0.84720  0.08031  Biso   1.000  O
  O12      1.0000 0.24228  0.34720  0.41969  Biso   1.000  O
  C21      1.0000 0.23498  0.97160  0.85574  Biso   1.000  C
  C22      1.0000 0.76502  0.47160  0.64426  Biso   1.000  C
  C23      1.0000 0.76502  0.02840  0.14426  Biso   1.000  C
  C24      1.0000 0.23498  0.52840  0.35574  Biso   1.000  C
  F25      1.0000 0.21124  0.05340  0.80440  Biso   1.000  F
  F26      1.0000 0.78876  0.55340  0.69560  Biso   1.000  F
  F27      1.0000 0.78876  0.94660  0.19560  Biso   1.000  F
  F28      1.0000 0.21124  0.44660  0.30440  Biso   1.000  F
  F29      1.0000 0.21523  0.84710  0.83513  Biso   1.000  F
  F30      1.0000 0.78477  0.34710  0.66487  Biso   1.000  F
  F31      1.0000 0.78477  0.15290  0.16487  Biso   1.000  F
  F32      1.0000 0.21523  0.65290  0.33513  Biso   1.000  F
  F33      1.0000 0.28726  0.96580  0.88028  Biso   1.000  F
  F34      1.0000 0.71274  0.46580  0.61972  Biso   1.000  F
  F35      1.0000 0.71274  0.03420  0.11972  Biso   1.000  F
  F36      1.0000 0.28726  0.53420  0.38028  Biso   1.000  F
  C25      1.0000 0.22763  0.02990  0.90527  Biso   1.000  C
  C26      1.0000 0.77237  0.52990  0.59473  Biso   1.000  C
  C27      1.0000 0.77237  0.97010  0.09473  Biso   1.000  C
  C28      1.0000 0.22763  0.47010  0.40527  Biso   1.000  C
  C29      1.0000 0.20653  0.94480  0.92856  Biso   1.000  C
  C30      1.0000 0.79347  0.44480  0.57144  Biso   1.000  C
  C31      1.0000 0.79347  0.05520  0.07144  Biso   1.000  C
  C32      1.0000 0.20653  0.55520  0.42856  Biso   1.000  C
  H5       1.0000 0.19920  0.85400  0.91650  Biso   1.000  H
  H6       1.0000 0.80080  0.35400  0.58350  Biso   1.000  H
  H7       1.0000 0.80080  0.14600  0.08350  Biso   1.000  H
  H8       1.0000 0.19920  0.64600  0.41650  Biso   1.000  H
  C33      1.0000 0.19974  0.98660  0.97470  Biso   1.000  C
  C34      1.0000 0.80026  0.48660  0.52530  Biso   1.000  C
  C35      1.0000 0.80026  0.01340  0.02530  Biso   1.000  C
  C36      1.0000 0.19974  0.51340  0.47470  Biso   1.000  C
  C37      1.0000 0.17477  0.88480  0.99556  Biso   1.000  C
  C38      1.0000 0.82523  0.38480  0.50444  Biso   1.000  C
  C39      1.0000 0.82523  0.11520  0.00444  Biso   1.000  C
  C40      1.0000 0.17477  0.61520  0.49556  Biso   1.000  C
  F37      1.0000 0.20617  0.89050  0.06430  Biso   1.000  F
  F38      1.0000 0.79383  0.39050  0.43570  Biso   1.000  F
  F39      1.0000 0.79383  0.10950  0.93570  Biso   1.000  F
  F40      1.0000 0.20617  0.60950  0.56430  Biso   1.000  F
  F41      1.0000 0.12863  0.91170  0.97770  Biso   1.000  F
  F42      1.0000 0.87137  0.41170  0.52230  Biso   1.000  F
  F43      1.0000 0.87137  0.08830  0.02230  Biso   1.000  F
  F44      1.0000 0.12863  0.58830  0.47770  Biso   1.000  F
  F45      1.0000 0.18357  0.75070  0.98828  Biso   1.000  F
  F46      1.0000 0.81643  0.25070  0.51172  Biso   1.000  F
  F47      1.0000 0.81643  0.24930  0.01172  Biso   1.000  F
  F48      1.0000 0.18357  0.74930  0.48828  Biso   1.000  F
  O13      1.0000 0.21078  0.10168  0.00198  Biso   1.000  O
  O14      1.0000 0.78922  0.60168  0.49802  Biso   1.000  O
  O15      1.0000 0.78922  0.89832  0.99802  Biso   1.000  O
  O16      1.0000 0.21078  0.39832  0.50198  Biso   1.000  O
  O17      1.0000 0.29268  0.40473  0.99450  Biso   1.000  O
  O18      1.0000 0.70732  0.90473  0.50550  Biso   1.000  O
  O19      1.0000 0.70732  0.59527  0.00550  Biso   1.000  O
  O20      1.0000 0.29268  0.09527  0.49450  Biso   1.000  O
  C41      1.0000 0.32689  0.62190  0.99910  Biso   1.000  C
  C42      1.0000 0.67311  0.12190  0.50090  Biso   1.000  C
  C43      1.0000 0.67311  0.37810  0.00090  Biso   1.000  C
  C44      1.0000 0.32689  0.87810  0.49910  Biso   1.000  C
  F49      1.0000 0.36756  0.58110  0.00271  Biso   1.000  F
  F50      1.0000 0.63244  0.08110  0.49729  Biso   1.000  F
  F51      1.0000 0.63244  0.41890  0.99729  Biso   1.000  F
  F52      1.0000 0.36756  0.91890  0.50271  Biso   1.000  F
  F53      1.0000 0.28568  0.63900  0.93030  Biso   1.000  F
  F54      1.0000 0.71432  0.13900  0.56970  Biso   1.000  F
  F55      1.0000 0.71432  0.36100  0.06970  Biso   1.000  F
  F56      1.0000 0.28568  0.86100  0.43030  Biso   1.000  F
  F57      1.0000 0.32978  0.75270  0.01720  Biso   1.000  F
  F58      1.0000 0.67022  0.25270  0.48280  Biso   1.000  F
  F59      1.0000 0.67022  0.24730  0.98280  Biso   1.000  F
  F60      1.0000 0.32978  0.74730  0.51720  Biso   1.000  F
  C45      1.0000 0.30358  0.52010  0.02147  Biso   1.000  C
  C46      1.0000 0.69642  0.02010  0.47853  Biso   1.000  C
  C47      1.0000 0.69642  0.47990  0.97853  Biso   1.000  C
  C48      1.0000 0.30358  0.97990  0.52147  Biso   1.000  C
  C49      1.0000 0.29754  0.56270  0.06842  Biso   1.000  C
  C50      1.0000 0.70246  0.06270  0.43158  Biso   1.000  C
  C51      1.0000 0.70246  0.43730  0.93158  Biso   1.000  C
  C52      1.0000 0.29754  0.93730  0.56842  Biso   1.000  C
  H9       1.0000 0.30590  0.65700  0.08450  Biso   1.000  H
  H10      1.0000 0.69410  0.15700  0.41550  Biso   1.000  H
  H11      1.0000 0.69410  0.34300  0.91550  Biso   1.000  H
  H12      1.0000 0.30590  0.84300  0.58450  Biso   1.000  H
  C53      1.0000 0.27665  0.47660  0.09184  Biso   1.000  C
  C54      1.0000 0.72335  0.97660  0.40816  Biso   1.000  C
  C55      1.0000 0.72335  0.52340  0.90816  Biso   1.000  C
  C56      1.0000 0.27665  0.02340  0.59184  Biso   1.000  C
  C57      1.0000 0.26888  0.53780  0.14068  Biso   1.000  C
  C58      1.0000 0.73112  0.03780  0.35932  Biso   1.000  C
  C59      1.0000 0.73112  0.46220  0.85932  Biso   1.000  C
  C60      1.0000 0.26888  0.96220  0.64068  Biso   1.000  C
  F61      1.0000 0.28643  0.45520  0.18903  Biso   1.000  F
  F62      1.0000 0.71357  0.95520  0.31097  Biso   1.000  F
  F63      1.0000 0.71357  0.54480  0.81097  Biso   1.000  F
  F64      1.0000 0.28643  0.04480  0.68903  Biso   1.000  F
  F65      1.0000 0.29088  0.65880  0.16291  Biso   1.000  F
  F66      1.0000 0.70912  0.15880  0.33709  Biso   1.000  F
  F67      1.0000 0.70912  0.34120  0.83709  Biso   1.000  F
  F68      1.0000 0.29088  0.84120  0.66291  Biso   1.000  F
  F69      1.0000 0.21604  0.55610  0.11268  Biso   1.000  F
  F70      1.0000 0.78396  0.05610  0.38732  Biso   1.000  F
  F71      1.0000 0.78396  0.44390  0.88732  Biso   1.000  F
  F72      1.0000 0.21604  0.94390  0.61268  Biso   1.000  F
  O21      1.0000 0.26312  0.35390  0.07865  Biso   1.000  O
  O22      1.0000 0.73688  0.85390  0.42135  Biso   1.000  O
  O23      1.0000 0.73688  0.64610  0.92135  Biso   1.000  O
  O24      1.0000 0.26312  0.14610  0.57865  Biso   1.000  O
  Cu7      1.0000 0.50000  0.50000  0.00000  Biso   1.000  Cu
  Cu8      1.0000 0.50000  0.00000  0.50000  Biso   1.000  Cu
  O25      1.0000 0.43771  0.56897  0.91440  Biso   1.000  O
  O26      1.0000 0.56229  0.06897  0.58560  Biso   1.000  O
  O27      1.0000 0.56229  0.43103  0.08560  Biso   1.000  O
  O28      1.0000 0.43771  0.93103  0.41440  Biso   1.000  O
  C61      1.0000 0.37631  0.72450  0.83369  Biso   1.000  C
  C62      1.0000 0.62369  0.22450  0.66631  Biso   1.000  C
  C63      1.0000 0.62369  0.27550  0.16631  Biso   1.000  C
  C64      1.0000 0.37631  0.77550  0.33369  Biso   1.000  C
  F73      1.0000 0.35629  0.84540  0.82430  Biso   1.000  F
  F74      1.0000 0.64371  0.34540  0.67570  Biso   1.000  F
  F75      1.0000 0.64371  0.15460  0.17570  Biso   1.000  F
  F76      1.0000 0.35629  0.65460  0.32430  Biso   1.000  F
  F77      1.0000 0.39904  0.71610  0.80433  Biso   1.000  F
  F78      1.0000 0.60096  0.21610  0.69567  Biso   1.000  F
  F79      1.0000 0.60096  0.28390  0.19567  Biso   1.000  F
  F80      1.0000 0.39904  0.78390  0.30433  Biso   1.000  F
  F81      1.0000 0.33624  0.63920  0.80560  Biso   1.000  F
  F82      1.0000 0.66376  0.13920  0.69440  Biso   1.000  F
  F83      1.0000 0.66376  0.36080  0.19440  Biso   1.000  F
  F84      1.0000 0.33624  0.86080  0.30560  Biso   1.000  F
  C65      1.0000 0.41847  0.68790  0.90516  Biso   1.000  C
  C66      1.0000 0.58153  0.18790  0.59484  Biso   1.000  C
  C67      1.0000 0.58153  0.31210  0.09484  Biso   1.000  C
  C68      1.0000 0.41847  0.81210  0.40516  Biso   1.000  C
  C69      1.0000 0.43092  0.78720  0.95070  Biso   1.000  C
  C70      1.0000 0.56908  0.28720  0.54930  Biso   1.000  C
  C71      1.0000 0.56908  0.21280  0.04930  Biso   1.000  C
  C72      1.0000 0.43092  0.71280  0.45070  Biso   1.000  C
  H13      1.0000 0.41340  0.86600  0.93730  Biso   1.000  H
  H14      1.0000 0.58660  0.36600  0.56270  Biso   1.000  H
  H15      1.0000 0.58660  0.13400  0.06270  Biso   1.000  H
  H16      1.0000 0.41340  0.63400  0.43730  Biso   1.000  H
  C73      1.0000 0.46835  0.76420  0.01677  Biso   1.000  C
  C74      1.0000 0.53165  0.26420  0.48323  Biso   1.000  C
  C75      1.0000 0.53165  0.23580  0.98323  Biso   1.000  C
  C76      1.0000 0.46835  0.73580  0.51677  Biso   1.000  C
  C77      1.0000 0.47969  0.88510  0.06174  Biso   1.000  C
  C78      1.0000 0.52031  0.38510  0.43826  Biso   1.000  C
  C79      1.0000 0.52031  0.11490  0.93826  Biso   1.000  C
  C80      1.0000 0.47969  0.61490  0.56174  Biso   1.000  C
  F85      1.0000 0.46697  0.85500  0.10115  Biso   1.000  F
  F86      1.0000 0.53303  0.35500  0.39885  Biso   1.000  F
  F87      1.0000 0.53303  0.14500  0.89885  Biso   1.000  F
  F88      1.0000 0.46697  0.64500  0.60115  Biso   1.000  F
  F89      1.0000 0.53666  0.89900  0.10870  Biso   1.000  F
  F90      1.0000 0.46334  0.39900  0.39130  Biso   1.000  F
  F91      1.0000 0.46334  0.10100  0.89130  Biso   1.000  F
  F92      1.0000 0.53666  0.60100  0.60870  Biso   1.000  F
  F93      1.0000 0.47123  0.00890  0.03480  Biso   1.000  F
  F94      1.0000 0.52877  0.50890  0.46520  Biso   1.000  F
  F95      1.0000 0.52877  0.99110  0.96520  Biso   1.000  F
  F96      1.0000 0.47123  0.49110  0.53480  Biso   1.000  F
  O29      1.0000 0.49510  0.65651  0.04505  Biso   1.000  O
  O30      1.0000 0.50490  0.15651  0.45495  Biso   1.000  O
  O31      1.0000 0.50490  0.34349  0.95495  Biso   1.000  O
  O32      1.0000 0.49510  0.84349  0.54505  Biso   1.000  O
  O33      1.0000 0.18158  0.38863  0.94849  Biso   1.000  O
  O34      1.0000 0.81842  0.88863  0.55151  Biso   1.000  O
  O35      1.0000 0.81842  0.61137  0.05151  Biso   1.000  O
  O36      1.0000 0.18158  0.11137  0.44849  Biso   1.000  O
  N1       1.0000 0.13468  0.36410  0.89376  Biso   1.000  N
  N2       1.0000 0.86532  0.86410  0.60624  Biso   1.000  N
  N3       1.0000 0.86532  0.63590  0.10624  Biso   1.000  N
  N4       1.0000 0.13468  0.13590  0.39376  Biso   1.000  N
  C81      1.0000 0.11978  0.42650  0.83172  Biso   1.000  C
  C82      1.0000 0.88022  0.92650  0.66828  Biso   1.000  C
  C83      1.0000 0.88022  0.57350  0.16828  Biso   1.000  C
  C84      1.0000 0.11978  0.07350  0.33172  Biso   1.000  C
  C85      1.0000 0.10681  0.57720  0.83333  Biso   1.000  C
  C86      1.0000 0.89319  0.07720  0.66667  Biso   1.000  C
  C87      1.0000 0.89319  0.42280  0.16667  Biso   1.000  C
  C88      1.0000 0.10681  0.92280  0.33333  Biso   1.000  C
  H17      1.0000 0.14400  0.61800  0.87480  Biso   1.000  H
  H18      1.0000 0.85600  0.11800  0.62520  Biso   1.000  H
  H19      1.0000 0.85600  0.38200  0.12520  Biso   1.000  H
  H20      1.0000 0.14400  0.88200  0.37480  Biso   1.000  H
  H21      1.0000 0.08650  0.58900  0.84240  Biso   1.000  H
  H22      1.0000 0.91350  0.08900  0.65760  Biso   1.000  H
  H23      1.0000 0.91350  0.41100  0.15760  Biso   1.000  H
  H24      1.0000 0.08650  0.91100  0.34240  Biso   1.000  H
  H25      1.0000 0.10500  0.61800  0.80000  Biso   1.000  H
  H26      1.0000 0.89500  0.11800  0.70000  Biso   1.000  H
  H27      1.0000 0.89500  0.38200  0.20000  Biso   1.000  H
  H28      1.0000 0.10500  0.88200  0.30000  Biso   1.000  H
  C89      1.0000 0.16656  0.41220  0.82651  Biso   1.000  C
  C90      1.0000 0.83344  0.91220  0.67349  Biso   1.000  C
  C91      1.0000 0.83344  0.58780  0.17349  Biso   1.000  C
  C92      1.0000 0.16656  0.08780  0.32651  Biso   1.000  C
  H29      1.0000 0.19830  0.46600  0.85400  Biso   1.000  H
  H30      1.0000 0.80170  0.96600  0.64600  Biso   1.000  H
  H31      1.0000 0.80170  0.53400  0.14600  Biso   1.000  H
  H32      1.0000 0.19830  0.03400  0.35400  Biso   1.000  H
  H33      1.0000 0.15760  0.44600  0.78820  Biso   1.000  H
  H34      1.0000 0.84240  0.94600  0.71180  Biso   1.000  H
  H35      1.0000 0.84240  0.55400  0.21180  Biso   1.000  H
  H36      1.0000 0.15760  0.05400  0.28820  Biso   1.000  H
  H37      1.0000 0.18660  0.30700  0.83430  Biso   1.000  H
  H38      1.0000 0.81340  0.80700  0.66570  Biso   1.000  H
  H39      1.0000 0.81340  0.69300  0.16570  Biso   1.000  H
  H40      1.0000 0.18660  0.19300  0.33430  Biso   1.000  H
  C93      1.0000 0.06850  0.33760  0.78263  Biso   1.000  C
  C94      1.0000 0.93150  0.83760  0.71737  Biso   1.000  C
  C95      1.0000 0.93150  0.66240  0.21737  Biso   1.000  C
  C96      1.0000 0.06850  0.16240  0.28263  Biso   1.000  C
  C97      1.0000 0.02388  0.41080  0.72085  Biso   1.000  C
  C98      1.0000 0.97612  0.91080  0.77915  Biso   1.000  C
  C99      1.0000 0.97612  0.58920  0.27915  Biso   1.000  C
  C100     1.0000 0.02388  0.08920  0.22085  Biso   1.000  C
  H41      1.0000 0.99170  0.35600  0.69270  Biso   1.000  H
  H42      1.0000 0.00830  0.85600  0.80730  Biso   1.000  H
  H43      1.0000 0.00830  0.64400  0.30730  Biso   1.000  H
  H44      1.0000 0.99170  0.14400  0.19270  Biso   1.000  H
  H45      1.0000 0.04400  0.42400  0.67600  Biso   1.000  H
  H46      1.0000 0.95600  0.92400  0.82400  Biso   1.000  H
  H47      1.0000 0.95600  0.57600  0.32400  Biso   1.000  H
  H48      1.0000 0.04400  0.07600  0.17600  Biso   1.000  H
  H49      1.0000 0.01870  0.48000  0.72860  Biso   1.000  H
  H50      1.0000 0.98130  0.98000  0.77140  Biso   1.000  H
  H51      1.0000 0.98130  0.52000  0.27140  Biso   1.000  H
  H52      1.0000 0.01870  0.02000  0.22860  Biso   1.000  H
  C101     1.0000 0.08270  0.20120  0.76645  Biso   1.000  C
  C102     1.0000 0.91730  0.70120  0.73355  Biso   1.000  C
  C103     1.0000 0.91730  0.79880  0.23355  Biso   1.000  C
  C104     1.0000 0.08270  0.29880  0.26645  Biso   1.000  C
  H53      1.0000 0.05470  0.15100  0.74860  Biso   1.000  H
  H54      1.0000 0.94530  0.65100  0.75140  Biso   1.000  H
  H55      1.0000 0.94530  0.84900  0.25140  Biso   1.000  H
  H56      1.0000 0.05470  0.34900  0.24860  Biso   1.000  H
  H57      1.0000 0.11530  0.15800  0.80600  Biso   1.000  H
  H58      1.0000 0.88470  0.65800  0.69400  Biso   1.000  H
  H59      1.0000 0.88470  0.84200  0.19400  Biso   1.000  H
  H60      1.0000 0.11530  0.34200  0.30600  Biso   1.000  H
  H61      1.0000 0.10420  0.22600  0.73870  Biso   1.000  H
  H62      1.0000 0.89580  0.72600  0.76130  Biso   1.000  H
  H63      1.0000 0.89580  0.77400  0.26130  Biso   1.000  H
  H64      1.0000 0.10420  0.27400  0.23870  Biso   1.000  H
  N5       1.0000 0.04996  0.30270  0.82391  Biso   1.000  N
  N6       1.0000 0.95004  0.80270  0.67609  Biso   1.000  N
  N7       1.0000 0.95004  0.69730  0.17609  Biso   1.000  N
  N8       1.0000 0.04996  0.19730  0.32391  Biso   1.000  N
  O37      1.0000 0.00178  0.25780  0.79984  Biso   1.000  O
  O38      1.0000 0.99822  0.75780  0.70016  Biso   1.000  O
  O39      1.0000 0.99822  0.74220  0.20016  Biso   1.000  O
  O40      1.0000 0.00178  0.24220  0.29984  Biso   1.000  O
  C105     1.0000 0.09162  0.30690  0.88744  Biso   1.000  C
  C106     1.0000 0.90838  0.80690  0.61256  Biso   1.000  C
  C107     1.0000 0.90838  0.69310  0.11256  Biso   1.000  C
  C108     1.0000 0.09162  0.19310  0.38744  Biso   1.000  C
  C109     1.0000 0.09029  0.25540  0.93891  Biso   1.000  C
  C110     1.0000 0.90971  0.75540  0.56109  Biso   1.000  C
  C111     1.0000 0.90971  0.74460  0.06109  Biso   1.000  C
  C112     1.0000 0.09029  0.24460  0.43891  Biso   1.000  C
  C113     1.0000 0.04916  0.17840  0.93537  Biso   1.000  C
  C114     1.0000 0.95084  0.67840  0.56463  Biso   1.000  C
  C115     1.0000 0.95084  0.82160  0.06463  Biso   1.000  C
  C116     1.0000 0.04916  0.32160  0.43537  Biso   1.000  C
  H65      1.0000 0.02100  0.15500  0.90300  Biso   1.000  H
  H66      1.0000 0.97900  0.65500  0.59700  Biso   1.000  H
  H67      1.0000 0.97900  0.84500  0.09700  Biso   1.000  H
  H68      1.0000 0.02100  0.34500  0.40300  Biso   1.000  H
  N9       1.0000 0.06303  0.14270  0.99192  Biso   1.000  N
  N10      1.0000 0.93697  0.64270  0.50808  Biso   1.000  N
  N11      1.0000 0.93697  0.85730  0.00808  Biso   1.000  N
  N12      1.0000 0.06303  0.35730  0.49192  Biso   1.000  N
  N13      1.0000 0.11397  0.19750  0.03421  Biso   1.000  N
  N14      1.0000 0.88603  0.69750  0.46579  Biso   1.000  N
  N15      1.0000 0.88603  0.80250  0.96579  Biso   1.000  N
  N16      1.0000 0.11397  0.30250  0.53421  Biso   1.000  N
  C117     1.0000 0.14697  0.17050  0.10411  Biso   1.000  C
  C118     1.0000 0.85303  0.67050  0.39589  Biso   1.000  C
  C119     1.0000 0.85303  0.82950  0.89589  Biso   1.000  C
  C120     1.0000 0.14697  0.32950  0.60411  Biso   1.000  C
  H69      1.0000 0.18380  0.20440  0.12370  Biso   1.000  H
  H70      1.0000 0.81620  0.70440  0.37630  Biso   1.000  H
  H71      1.0000 0.81620  0.79560  0.87630  Biso   1.000  H
  H72      1.0000 0.18380  0.29560  0.62370  Biso   1.000  H
  H73      1.0000 0.14940  0.07110  0.11060  Biso   1.000  H
  H74      1.0000 0.85060  0.57110  0.38940  Biso   1.000  H
  H75      1.0000 0.85060  0.92890  0.88940  Biso   1.000  H
  H76      1.0000 0.14940  0.42890  0.61060  Biso   1.000  H
  C121     1.0000 0.12660  0.23290  0.13881  Biso   1.000  C
  C122     1.0000 0.87340  0.73290  0.36119  Biso   1.000  C
  C123     1.0000 0.87340  0.76710  0.86119  Biso   1.000  C
  C124     1.0000 0.12660  0.26710  0.63881  Biso   1.000  C
  H77      1.0000 0.15090  0.20790  0.18420  Biso   1.000  H
  H78      1.0000 0.84910  0.70790  0.31580  Biso   1.000  H
  H79      1.0000 0.84910  0.79210  0.81580  Biso   1.000  H
  H80      1.0000 0.15090  0.29210  0.68420  Biso   1.000  H
  H81      1.0000 0.09050  0.19620  0.12140  Biso   1.000  H
  H82      1.0000 0.90950  0.69620  0.37860  Biso   1.000  H
  H83      1.0000 0.90950  0.80380  0.87860  Biso   1.000  H
  H84      1.0000 0.09050  0.30380  0.62140  Biso   1.000  H
  C125     1.0000 0.12349  0.38480  0.13267  Biso   1.000  C
  C126     1.0000 0.87651  0.88480  0.36733  Biso   1.000  C
  C127     1.0000 0.87651  0.61520  0.86733  Biso   1.000  C
  C128     1.0000 0.12349  0.11520  0.63267  Biso   1.000  C
  H85      1.0000 0.11010  0.42230  0.15540  Biso   1.000  H
  H86      1.0000 0.88990  0.92230  0.34460  Biso   1.000  H
  H87      1.0000 0.88990  0.57770  0.84460  Biso   1.000  H
  H88      1.0000 0.11010  0.07770  0.65540  Biso   1.000  H
  H89      1.0000 0.09910  0.40980  0.08780  Biso   1.000  H
  H90      1.0000 0.90090  0.90980  0.41220  Biso   1.000  H
  H91      1.0000 0.90090  0.59020  0.91220  Biso   1.000  H
  H92      1.0000 0.09910  0.09020  0.58780  Biso   1.000  H
  H93      1.0000 0.15930  0.42150  0.15070  Biso   1.000  H
  H94      1.0000 0.84070  0.92150  0.34930  Biso   1.000  H
  H95      1.0000 0.84070  0.57850  0.84930  Biso   1.000  H
  H96      1.0000 0.15930  0.07850  0.65070  Biso   1.000  H
  C129     1.0000 0.13133  0.26600  0.00416  Biso   1.000  C
  C130     1.0000 0.86867  0.76600  0.49584  Biso   1.000  C
  C131     1.0000 0.86867  0.73400  0.99584  Biso   1.000  C
  C132     1.0000 0.13133  0.23400  0.50416  Biso   1.000  C
  H97      1.0000 0.16820  0.31200  0.03120  Biso   1.000  H
  H98      1.0000 0.83180  0.81200  0.46880  Biso   1.000  H
  H99      1.0000 0.83180  0.68800  0.96880  Biso   1.000  H
  H100     1.0000 0.16820  0.18800  0.53120  Biso   1.000  H
  O41      1.0000 0.32102  0.11520  0.05215  Biso   1.000  O
  O42      1.0000 0.67898  0.61520  0.44785  Biso   1.000  O
  O43      1.0000 0.67898  0.88480  0.94785  Biso   1.000  O
  O44      1.0000 0.32102  0.38480  0.55215  Biso   1.000  O
  N17      1.0000 0.36650  0.14350  0.10810  Biso   1.000  N
  N18      1.0000 0.63350  0.64350  0.39190  Biso   1.000  N
  N19      1.0000 0.63350  0.85650  0.89190  Biso   1.000  N
  N20      1.0000 0.36650  0.35650  0.60810  Biso   1.000  N
  C133     1.0000 0.37973  0.08170  0.16928  Biso   1.000  C
  C134     1.0000 0.62027  0.58170  0.33072  Biso   1.000  C
  C135     1.0000 0.62027  0.91830  0.83072  Biso   1.000  C
  C136     1.0000 0.37973  0.41830  0.66928  Biso   1.000  C
  C137     1.0000 0.39524  0.93170  0.16892  Biso   1.000  C
  C138     1.0000 0.60476  0.43170  0.33108  Biso   1.000  C
  C139     1.0000 0.60476  0.06830  0.83108  Biso   1.000  C
  C140     1.0000 0.39524  0.56830  0.66892  Biso   1.000  C
  H101     1.0000 0.36030  0.89700  0.12720  Biso   1.000  H
  H102     1.0000 0.63970  0.39700  0.37280  Biso   1.000  H
  H103     1.0000 0.63970  0.10300  0.87280  Biso   1.000  H
  H104     1.0000 0.36030  0.60300  0.62720  Biso   1.000  H
  H105     1.0000 0.39790  0.88100  0.20190  Biso   1.000  H
  H106     1.0000 0.60210  0.38100  0.29810  Biso   1.000  H
  H107     1.0000 0.60210  0.11900  0.79810  Biso   1.000  H
  H108     1.0000 0.39790  0.61900  0.70190  Biso   1.000  H
  H109     1.0000 0.41630  0.92400  0.16350  Biso   1.000  H
  H110     1.0000 0.58370  0.42400  0.33650  Biso   1.000  H
  H111     1.0000 0.58370  0.07600  0.83650  Biso   1.000  H
  H112     1.0000 0.41630  0.57600  0.66350  Biso   1.000  H
  C141     1.0000 0.33065  0.08820  0.17069  Biso   1.000  C
  C142     1.0000 0.66935  0.58820  0.32931  Biso   1.000  C
  C143     1.0000 0.66935  0.91180  0.82931  Biso   1.000  C
  C144     1.0000 0.33065  0.41180  0.67069  Biso   1.000  C
  H113     1.0000 0.30080  0.03500  0.14200  Biso   1.000  H
  H114     1.0000 0.69920  0.53500  0.35800  Biso   1.000  H
  H115     1.0000 0.69920  0.96500  0.85800  Biso   1.000  H
  H116     1.0000 0.30080  0.46500  0.64200  Biso   1.000  H
  H117     1.0000 0.31640  0.18800  0.16580  Biso   1.000  H
  H118     1.0000 0.68360  0.68800  0.33420  Biso   1.000  H
  H119     1.0000 0.68360  0.81200  0.83420  Biso   1.000  H
  H120     1.0000 0.31640  0.31200  0.66580  Biso   1.000  H
  H121     1.0000 0.33860  0.05400  0.20630  Biso   1.000  H
  H122     1.0000 0.66140  0.55400  0.29370  Biso   1.000  H
  H123     1.0000 0.66140  0.94600  0.79370  Biso   1.000  H
  H124     1.0000 0.33860  0.44600  0.70630  Biso   1.000  H
  C145     1.0000 0.42871  0.17410  0.21901  Biso   1.000  C
  C146     1.0000 0.57129  0.67410  0.28099  Biso   1.000  C
  C147     1.0000 0.57129  0.82590  0.78099  Biso   1.000  C
  C148     1.0000 0.42871  0.32590  0.71901  Biso   1.000  C
  C149     1.0000 0.41221  0.30930  0.23316  Biso   1.000  C
  C150     1.0000 0.58779  0.80930  0.26684  Biso   1.000  C
  C151     1.0000 0.58779  0.69070  0.76684  Biso   1.000  C
  C152     1.0000 0.41221  0.19070  0.73316  Biso   1.000  C
  H125     1.0000 0.44210  0.37400  0.25400  Biso   1.000  H
  H126     1.0000 0.55790  0.87400  0.24600  Biso   1.000  H
  H127     1.0000 0.55790  0.62600  0.74600  Biso   1.000  H
  H128     1.0000 0.44210  0.12600  0.75400  Biso   1.000  H
  H129     1.0000 0.39100  0.29700  0.25090  Biso   1.000  H
  H130     1.0000 0.60900  0.79700  0.24910  Biso   1.000  H
  H131     1.0000 0.60900  0.70300  0.74910  Biso   1.000  H
  H132     1.0000 0.39100  0.20300  0.75090  Biso   1.000  H
  H133     1.0000 0.37800  0.34500  0.19170  Biso   1.000  H
  H134     1.0000 0.62200  0.84500  0.30830  Biso   1.000  H
  H135     1.0000 0.62200  0.65500  0.80830  Biso   1.000  H
  H136     1.0000 0.37800  0.15500  0.69170  Biso   1.000  H
  C153     1.0000 0.47370  0.10230  0.28172  Biso   1.000  C
  C154     1.0000 0.52630  0.60230  0.21828  Biso   1.000  C
  C155     1.0000 0.52630  0.89770  0.71828  Biso   1.000  C
  C156     1.0000 0.47370  0.39770  0.78172  Biso   1.000  C
  H137     1.0000 0.50690  0.15900  0.30940  Biso   1.000  H
  H138     1.0000 0.49310  0.65900  0.19060  Biso   1.000  H
  H139     1.0000 0.49310  0.84100  0.69060  Biso   1.000  H
  H140     1.0000 0.50690  0.34100  0.80940  Biso   1.000  H
  H141     1.0000 0.48570  0.03200  0.27460  Biso   1.000  H
  H142     1.0000 0.51430  0.53200  0.22540  Biso   1.000  H
  H143     1.0000 0.51430  0.96800  0.72540  Biso   1.000  H
  H144     1.0000 0.48570  0.46800  0.77460  Biso   1.000  H
  H145     1.0000 0.45260  0.09200  0.30570  Biso   1.000  H
  H146     1.0000 0.54740  0.59200  0.19430  Biso   1.000  H
  H147     1.0000 0.54740  0.90800  0.69430  Biso   1.000  H
  H148     1.0000 0.45260  0.40800  0.80570  Biso   1.000  H
  N21      1.0000 0.44954  0.21230  0.18089  Biso   1.000  N
  N22      1.0000 0.55046  0.71230  0.31911  Biso   1.000  N
  N23      1.0000 0.55046  0.78770  0.81911  Biso   1.000  N
  N24      1.0000 0.44954  0.28770  0.68089  Biso   1.000  N
  O45      1.0000 0.49749  0.26150  0.20663  Biso   1.000  O
  O46      1.0000 0.50251  0.76150  0.29337  Biso   1.000  O
  O47      1.0000 0.50251  0.73850  0.79337  Biso   1.000  O
  O48      1.0000 0.49749  0.23850  0.70663  Biso   1.000  O
  C157     1.0000 0.40968  0.20370  0.11674  Biso   1.000  C
  C158     1.0000 0.59032  0.70370  0.38326  Biso   1.000  C
  C159     1.0000 0.59032  0.79630  0.88326  Biso   1.000  C
  C160     1.0000 0.40968  0.29630  0.61674  Biso   1.000  C
  C161     1.0000 0.41362  0.25130  0.06687  Biso   1.000  C
  C162     1.0000 0.58638  0.75130  0.43313  Biso   1.000  C
  C163     1.0000 0.58638  0.74870  0.93313  Biso   1.000  C
  C164     1.0000 0.41362  0.24870  0.56687  Biso   1.000  C
  C165     1.0000 0.45457  0.33280  0.07196  Biso   1.000  C
  C166     1.0000 0.54543  0.83280  0.42804  Biso   1.000  C
  C167     1.0000 0.54543  0.66720  0.92804  Biso   1.000  C
  C168     1.0000 0.45457  0.16720  0.57196  Biso   1.000  C
  H149     1.0000 0.48290  0.37200  0.10990  Biso   1.000  H
  H150     1.0000 0.51710  0.87200  0.39010  Biso   1.000  H
  H151     1.0000 0.51710  0.62800  0.89010  Biso   1.000  H
  H152     1.0000 0.48290  0.12800  0.60990  Biso   1.000  H
  N25      1.0000 0.44408  0.35340  0.01507  Biso   1.000  N
  N26      1.0000 0.55592  0.85340  0.48493  Biso   1.000  N
  N27      1.0000 0.55592  0.64660  0.98493  Biso   1.000  N
  N28      1.0000 0.44408  0.14660  0.51507  Biso   1.000  N
  N29      1.0000 0.39666  0.28430  0.97256  Biso   1.000  N
  N30      1.0000 0.60334  0.78430  0.52744  Biso   1.000  N
  N31      1.0000 0.60334  0.71570  0.02744  Biso   1.000  N
  N32      1.0000 0.39666  0.21570  0.47256  Biso   1.000  N
  C169     1.0000 0.37157  0.27970  0.90245  Biso   1.000  C
  C170     1.0000 0.62843  0.77970  0.59755  Biso   1.000  C
  C171     1.0000 0.62843  0.72030  0.09755  Biso   1.000  C
  C172     1.0000 0.37157  0.22030  0.40245  Biso   1.000  C
  H153     1.0000 0.39590  0.32490  0.89490  Biso   1.000  H
  H154     1.0000 0.60410  0.82490  0.60510  Biso   1.000  H
  H155     1.0000 0.60410  0.67510  0.10510  Biso   1.000  H
  H156     1.0000 0.39590  0.17510  0.39490  Biso   1.000  H
  H157     1.0000 0.36770  0.18380  0.88910  Biso   1.000  H
  H158     1.0000 0.63230  0.68380  0.61090  Biso   1.000  H
  H159     1.0000 0.63230  0.81620  0.11090  Biso   1.000  H
  H160     1.0000 0.36770  0.31620  0.38910  Biso   1.000  H
  C173     1.0000 0.31808  0.34670  0.86317  Biso   1.000  C
  C174     1.0000 0.68192  0.84670  0.63683  Biso   1.000  C
  C175     1.0000 0.68192  0.65330  0.13683  Biso   1.000  C
  C176     1.0000 0.31808  0.15330  0.36317  Biso   1.000  C
  H161     1.0000 0.32240  0.44510  0.87240  Biso   1.000  H
  H162     1.0000 0.67760  0.94510  0.62760  Biso   1.000  H
  H163     1.0000 0.67760  0.55490  0.12760  Biso   1.000  H
  H164     1.0000 0.32240  0.05490  0.37240  Biso   1.000  H
  H165     1.0000 0.29490  0.30910  0.87410  Biso   1.000  H
  H166     1.0000 0.70510  0.80910  0.62590  Biso   1.000  H
  H167     1.0000 0.70510  0.69090  0.12590  Biso   1.000  H
  H168     1.0000 0.29490  0.19090  0.37410  Biso   1.000  H
  C177     1.0000 0.29036  0.32400  0.79021  Biso   1.000  C
  C178     1.0000 0.70964  0.82400  0.70979  Biso   1.000  C
  C179     1.0000 0.70964  0.67600  0.20979  Biso   1.000  C
  C180     1.0000 0.29036  0.17600  0.29021  Biso   1.000  C
  H169     1.0000 0.25560  0.37040  0.76530  Biso   1.000  H
  H170     1.0000 0.74440  0.87040  0.73470  Biso   1.000  H
  H171     1.0000 0.74440  0.62960  0.23470  Biso   1.000  H
  H172     1.0000 0.25560  0.12960  0.26530  Biso   1.000  H
  H173     1.0000 0.28500  0.22670  0.78070  Biso   1.000  H
  H174     1.0000 0.71500  0.72670  0.71930  Biso   1.000  H
  H175     1.0000 0.71500  0.77330  0.21930  Biso   1.000  H
  H176     1.0000 0.28500  0.27330  0.28070  Biso   1.000  H
  H177     1.0000 0.31340  0.36090  0.77940  Biso   1.000  H
  H178     1.0000 0.68660  0.86090  0.72060  Biso   1.000  H
  H179     1.0000 0.68660  0.63910  0.22060  Biso   1.000  H
  H180     1.0000 0.31340  0.13910  0.27940  Biso   1.000  H
  C181     1.0000 0.37717  0.22290  0.00142  Biso   1.000  C
  C182     1.0000 0.62283  0.72290  0.49858  Biso   1.000  C
  C183     1.0000 0.62283  0.77710  0.99858  Biso   1.000  C
  C184     1.0000 0.37717  0.27710  0.50142  Biso   1.000  C
  H181     1.0000 0.34210  0.17300  0.97560  Biso   1.000  H
  H182     1.0000 0.65790  0.67300  0.52440  Biso   1.000  H
  H183     1.0000 0.65790  0.82700  0.02440  Biso   1.000  H
  H184     1.0000 0.34210  0.32700  0.47560  Biso   1.000  H
  F97      1.0000 0.89410  0.25240  0.80700  Biso   1.000  F
  F98      1.0000 0.10590  0.75240  0.69300  Biso   1.000  F
  F99      1.0000 0.10590  0.74760  0.19300  Biso   1.000  F
  F100     1.0000 0.89410  0.24760  0.30700  Biso   1.000  F
  F101     1.0000 0.84610  0.08830  0.79840  Biso   1.000  F
  F102     1.0000 0.15390  0.58830  0.70160  Biso   1.000  F
  F103     1.0000 0.15390  0.91170  0.20160  Biso   1.000  F
  F104     1.0000 0.84610  0.41170  0.29840  Biso   1.000  F
  F105     1.0000 0.83380  0.28590  0.81620  Biso   1.000  F
  F106     1.0000 0.16620  0.78590  0.68380  Biso   1.000  F
  F107     1.0000 0.16620  0.71410  0.18380  Biso   1.000  F
  F108     1.0000 0.83380  0.21410  0.31620  Biso   1.000  F
  F109     1.0000 0.98210  0.34580  0.10360  Biso   1.000  F
  F110     1.0000 0.01790  0.84580  0.39640  Biso   1.000  F
  F111     1.0000 0.01790  0.65420  0.89640  Biso   1.000  F
  F112     1.0000 0.98210  0.15420  0.60360  Biso   1.000  F
  F113     1.0000 0.91160  0.42320  0.02800  Biso   1.000  F
  F114     1.0000 0.08840  0.92320  0.47200  Biso   1.000  F
  F115     1.0000 0.08840  0.57680  0.97200  Biso   1.000  F
  F116     1.0000 0.91160  0.07680  0.52800  Biso   1.000  F
  F117     1.0000 0.99080  0.46640  0.05760  Biso   1.000  F
  F118     1.0000 0.00920  0.96640  0.44240  Biso   1.000  F
  F119     1.0000 0.00920  0.53360  0.94240  Biso   1.000  F
  F120     1.0000 0.99080  0.03360  0.55760  Biso   1.000  F
  F121     1.0000 0.17589  0.91580  0.04030  Biso   1.000  F
  F122     1.0000 0.82411  0.41580  0.45970  Biso   1.000  F
  F123     1.0000 0.82411  0.08420  0.95970  Biso   1.000  F
  F124     1.0000 0.17589  0.58420  0.54030  Biso   1.000  F
  F125     1.0000 0.11676  0.88620  0.94430  Biso   1.000  F
  F126     1.0000 0.88324  0.38620  0.55570  Biso   1.000  F
  F127     1.0000 0.88324  0.11380  0.05570  Biso   1.000  F
  F128     1.0000 0.11676  0.61380  0.44430  Biso   1.000  F
  F129     1.0000 0.18430  0.76550  0.99340  Biso   1.000  F
  F130     1.0000 0.81570  0.26550  0.50660  Biso   1.000  F
  F131     1.0000 0.81570  0.23450  0.00660  Biso   1.000  F
  F132     1.0000 0.18430  0.73450  0.49340  Biso   1.000  F
  F133     1.0000 0.38560  0.61760  0.04780  Biso   1.000  F
  F134     1.0000 0.61440  0.11760  0.45220  Biso   1.000  F
  F135     1.0000 0.61440  0.38240  0.95220  Biso   1.000  F
  F136     1.0000 0.38560  0.88240  0.54780  Biso   1.000  F
  F137     1.0000 0.32520  0.59530  0.95530  Biso   1.000  F
  F138     1.0000 0.67480  0.09530  0.54470  Biso   1.000  F
  F139     1.0000 0.67480  0.40470  0.04470  Biso   1.000  F
  F140     1.0000 0.32520  0.90470  0.45530  Biso   1.000  F
  F141     1.0000 0.32230  0.74210  0.00700  Biso   1.000  F
  F142     1.0000 0.67770  0.24210  0.49300  Biso   1.000  F
  F143     1.0000 0.67770  0.25790  0.99300  Biso   1.000  F
  F144     1.0000 0.32230  0.75790  0.50700  Biso   1.000  F
  F145     1.0000 0.38090  0.85000  0.82260  Biso   1.000  F
  F146     1.0000 0.61910  0.35000  0.67740  Biso   1.000  F
  F147     1.0000 0.61910  0.15000  0.17740  Biso   1.000  F
  F148     1.0000 0.38090  0.65000  0.32260  Biso   1.000  F
  F149     1.0000 0.37160  0.64440  0.79520  Biso   1.000  F
  F150     1.0000 0.62840  0.14440  0.70480  Biso   1.000  F
  F151     1.0000 0.62840  0.35560  0.20480  Biso   1.000  F
  F152     1.0000 0.37160  0.85560  0.29520  Biso   1.000  F
  F153     1.0000 0.32810  0.72380  0.81920  Biso   1.000  F
  F154     1.0000 0.67190  0.22380  0.68080  Biso   1.000  F
  F155     1.0000 0.67190  0.27620  0.18080  Biso   1.000  F
  F156     1.0000 0.32810  0.77620  0.31920  Biso   1.000  F
  F157     1.0000 0.45750  0.98890  0.03540  Biso   1.000  F
  F158     1.0000 0.54250  0.48890  0.46460  Biso   1.000  F
  F159     1.0000 0.54250  0.01110  0.96460  Biso   1.000  F
  F160     1.0000 0.45750  0.51110  0.53540  Biso   1.000  F
  F161     1.0000 0.52480  0.88040  0.11050  Biso   1.000  F
  F162     1.0000 0.47520  0.38040  0.38950  Biso   1.000  F
  F163     1.0000 0.47520  0.11960  0.88950  Biso   1.000  F
  F164     1.0000 0.52480  0.61960  0.61050  Biso   1.000  F
  F165     1.0000 0.44550  0.87940  0.07560  Biso   1.000  F
  F166     1.0000 0.55450  0.37940  0.42440  Biso   1.000  F
  F167     1.0000 0.55450  0.12060  0.92440  Biso   1.000  F
  F168     1.0000 0.44550  0.62060  0.57560  Biso   1.000  F
