data_image0
_cell_length_a       30.907
_cell_length_b       9.582
_cell_length_c       26.204
_cell_angle_alpha    90
_cell_angle_beta     125.19
_cell_angle_gamma    90

_symmetry_space_group_name_H-M    "P 1"
_symmetry_int_tables_number       1

loop_
  _symmetry_equiv_pos_as_xyz
  'x, y, z'

loop_
  _atom_site_label
  _atom_site_occupancy
  _atom_site_fract_x
  _atom_site_fract_y
  _atom_site_fract_z
  _atom_site_thermal_displace_type
  _atom_site_B_iso_or_equiv
  _atom_site_type_symbol
  Cu1      1.0000 0.00000  0.00000  0.00000  Biso   1.000  Cu
  Cu2      1.0000 0.50000  0.50000  0.00000  Biso   1.000  Cu
  Cu3      1.0000 0.00000  0.00000  0.50000  Biso   1.000  Cu
  Cu4      1.0000 0.50000  0.50000  0.50000  Biso   1.000  Cu
  O1       1.0000 0.99362  0.90370  0.92930  Biso   1.000  O
  O2       1.0000 0.49362  0.40370  0.92930  Biso   1.000  O
  O3       1.0000 0.00638  0.90370  0.57070  Biso   1.000  O
  O4       1.0000 0.50638  0.40370  0.57070  Biso   1.000  O
  O5       1.0000 0.00638  0.09630  0.07070  Biso   1.000  O
  O6       1.0000 0.50638  0.59630  0.07070  Biso   1.000  O
  O7       1.0000 0.99362  0.09630  0.42930  Biso   1.000  O
  O8       1.0000 0.49362  0.59630  0.42930  Biso   1.000  O
  C1       1.0000 0.98400  0.72330  0.86340  Biso   1.000  C
  C2       1.0000 0.48400  0.22330  0.86340  Biso   1.000  C
  C3       1.0000 0.01600  0.72330  0.63660  Biso   1.000  C
  C4       1.0000 0.51600  0.22330  0.63660  Biso   1.000  C
  C5       1.0000 0.01600  0.27670  0.13660  Biso   1.000  C
  C6       1.0000 0.51600  0.77670  0.13660  Biso   1.000  C
  C7       1.0000 0.98400  0.27670  0.36340  Biso   1.000  C
  C8       1.0000 0.48400  0.77670  0.36340  Biso   1.000  C
  F1       1.0000 0.96110  0.60830  0.83920  Biso   1.000  F
  F2       1.0000 0.46110  0.10830  0.83920  Biso   1.000  F
  F3       1.0000 0.03890  0.60830  0.66080  Biso   1.000  F
  F4       1.0000 0.53890  0.10830  0.66080  Biso   1.000  F
  F5       1.0000 0.03890  0.39170  0.16080  Biso   1.000  F
  F6       1.0000 0.53890  0.89170  0.16080  Biso   1.000  F
  F7       1.0000 0.96110  0.39170  0.33920  Biso   1.000  F
  F8       1.0000 0.46110  0.89170  0.33920  Biso   1.000  F
  F9       1.0000 0.03470  0.70230  0.88770  Biso   1.000  F
  F10      1.0000 0.53470  0.20230  0.88770  Biso   1.000  F
  F11      1.0000 0.96530  0.70230  0.61230  Biso   1.000  F
  F12      1.0000 0.46530  0.20230  0.61230  Biso   1.000  F
  F13      1.0000 0.96530  0.29770  0.11230  Biso   1.000  F
  F14      1.0000 0.46530  0.79770  0.11230  Biso   1.000  F
  F15      1.0000 0.03470  0.29770  0.38770  Biso   1.000  F
  F16      1.0000 0.53470  0.79770  0.38770  Biso   1.000  F
  F17      1.0000 0.96770  0.81260  0.81850  Biso   1.000  F
  F18      1.0000 0.46770  0.31260  0.81850  Biso   1.000  F
  F19      1.0000 0.03230  0.81260  0.68150  Biso   1.000  F
  F20      1.0000 0.53230  0.31260  0.68150  Biso   1.000  F
  F21      1.0000 0.03230  0.18740  0.18150  Biso   1.000  F
  F22      1.0000 0.53230  0.68740  0.18150  Biso   1.000  F
  F23      1.0000 0.96770  0.18740  0.31850  Biso   1.000  F
  F24      1.0000 0.46770  0.68740  0.31850  Biso   1.000  F
  C9       1.0000 0.97760  0.78190  0.91290  Biso   1.000  C
  C10      1.0000 0.47760  0.28190  0.91290  Biso   1.000  C
  C11      1.0000 0.02240  0.78190  0.58710  Biso   1.000  C
  C12      1.0000 0.52240  0.28190  0.58710  Biso   1.000  C
  C13      1.0000 0.02240  0.21810  0.08710  Biso   1.000  C
  C14      1.0000 0.52240  0.71810  0.08710  Biso   1.000  C
  C15      1.0000 0.97760  0.21810  0.41290  Biso   1.000  C
  C16      1.0000 0.47760  0.71810  0.41290  Biso   1.000  C
  C17      1.0000 0.95570  0.69450  0.93430  Biso   1.000  C
  C18      1.0000 0.45570  0.19450  0.93430  Biso   1.000  C
  C19      1.0000 0.04430  0.69450  0.56570  Biso   1.000  C
  C20      1.0000 0.54430  0.19450  0.56570  Biso   1.000  C
  C21      1.0000 0.04430  0.30550  0.06570  Biso   1.000  C
  C22      1.0000 0.54430  0.80550  0.06570  Biso   1.000  C
  C23      1.0000 0.95570  0.30550  0.43430  Biso   1.000  C
  C24      1.0000 0.45570  0.80550  0.43430  Biso   1.000  C
  H1       1.0000 0.94600  0.61000  0.91500  Biso   1.000  H
  H2       1.0000 0.44600  0.11000  0.91500  Biso   1.000  H
  H3       1.0000 0.05400  0.61000  0.58500  Biso   1.000  H
  H4       1.0000 0.55400  0.11000  0.58500  Biso   1.000  H
  H5       1.0000 0.05400  0.39000  0.08500  Biso   1.000  H
  H6       1.0000 0.55400  0.89000  0.08500  Biso   1.000  H
  H7       1.0000 0.94600  0.39000  0.41500  Biso   1.000  H
  H8       1.0000 0.44600  0.89000  0.41500  Biso   1.000  H
  C25      1.0000 0.94990  0.73380  0.98020  Biso   1.000  C
  C26      1.0000 0.44990  0.23380  0.98020  Biso   1.000  C
  C27      1.0000 0.05010  0.73380  0.51980  Biso   1.000  C
  C28      1.0000 0.55010  0.23380  0.51980  Biso   1.000  C
  C29      1.0000 0.05010  0.26620  0.01980  Biso   1.000  C
  C30      1.0000 0.55010  0.76620  0.01980  Biso   1.000  C
  C31      1.0000 0.94990  0.26620  0.48020  Biso   1.000  C
  C32      1.0000 0.44990  0.76620  0.48020  Biso   1.000  C
  C33      1.0000 0.92470  0.62970  0.99900  Biso   1.000  C
  C34      1.0000 0.42470  0.12970  0.99900  Biso   1.000  C
  C35      1.0000 0.07530  0.62970  0.50100  Biso   1.000  C
  C36      1.0000 0.57530  0.12970  0.50100  Biso   1.000  C
  C37      1.0000 0.07530  0.37030  0.00100  Biso   1.000  C
  C38      1.0000 0.57530  0.87030  0.00100  Biso   1.000  C
  C39      1.0000 0.92470  0.37030  0.49900  Biso   1.000  C
  C40      1.0000 0.42470  0.87030  0.49900  Biso   1.000  C
  F25      1.0000 0.92950  0.50320  0.99060  Biso   1.000  F
  F26      1.0000 0.42950  0.00320  0.99060  Biso   1.000  F
  F27      1.0000 0.07050  0.50320  0.50940  Biso   1.000  F
  F28      1.0000 0.57050  0.00320  0.50940  Biso   1.000  F
  F29      1.0000 0.07050  0.49680  0.00940  Biso   1.000  F
  F30      1.0000 0.57050  0.99680  0.00940  Biso   1.000  F
  F31      1.0000 0.92950  0.49680  0.49060  Biso   1.000  F
  F32      1.0000 0.42950  0.99680  0.49060  Biso   1.000  F
  F33      1.0000 0.87810  0.65460  0.97550  Biso   1.000  F
  F34      1.0000 0.37810  0.15460  0.97550  Biso   1.000  F
  F35      1.0000 0.12190  0.65460  0.52450  Biso   1.000  F
  F36      1.0000 0.62190  0.15460  0.52450  Biso   1.000  F
  F37      1.0000 0.12190  0.34540  0.02450  Biso   1.000  F
  F38      1.0000 0.62190  0.84540  0.02450  Biso   1.000  F
  F39      1.0000 0.87810  0.34540  0.47550  Biso   1.000  F
  F40      1.0000 0.37810  0.84540  0.47550  Biso   1.000  F
  F41      1.0000 0.94510  0.63730  0.05720  Biso   1.000  F
  F42      1.0000 0.44510  0.13730  0.05720  Biso   1.000  F
  F43      1.0000 0.05490  0.63730  0.44280  Biso   1.000  F
  F44      1.0000 0.55490  0.13730  0.44280  Biso   1.000  F
  F45      1.0000 0.05490  0.36270  0.94280  Biso   1.000  F
  F46      1.0000 0.55490  0.86270  0.94280  Biso   1.000  F
  F47      1.0000 0.94510  0.36270  0.55720  Biso   1.000  F
  F48      1.0000 0.44510  0.86270  0.55720  Biso   1.000  F
  O9       1.0000 0.96269  0.84780  0.00890  Biso   1.000  O
  O10      1.0000 0.46269  0.34780  0.00890  Biso   1.000  O
  O11      1.0000 0.03731  0.84780  0.49110  Biso   1.000  O
  O12      1.0000 0.53731  0.34780  0.49110  Biso   1.000  O
  O13      1.0000 0.03731  0.15220  0.99110  Biso   1.000  O
  O14      1.0000 0.53731  0.65220  0.99110  Biso   1.000  O
  O15      1.0000 0.96269  0.15220  0.50890  Biso   1.000  O
  O16      1.0000 0.46269  0.65220  0.50890  Biso   1.000  O
  Cu5      1.0000 0.25000  0.25000  0.00000  Biso   1.000  Cu
  Cu6      1.0000 0.75000  0.75000  0.00000  Biso   1.000  Cu
  Cu7      1.0000 0.75000  0.25000  0.50000  Biso   1.000  Cu
  Cu8      1.0000 0.25000  0.75000  0.50000  Biso   1.000  Cu
  O17      1.0000 0.25680  0.09190  0.95810  Biso   1.000  O
  O18      1.0000 0.75680  0.59190  0.95810  Biso   1.000  O
  O19      1.0000 0.74320  0.09190  0.54190  Biso   1.000  O
  O20      1.0000 0.24320  0.59190  0.54190  Biso   1.000  O
  O21      1.0000 0.74320  0.90810  0.04190  Biso   1.000  O
  O22      1.0000 0.24320  0.40810  0.04190  Biso   1.000  O
  O23      1.0000 0.25680  0.90810  0.45810  Biso   1.000  O
  O24      1.0000 0.75680  0.40810  0.45810  Biso   1.000  O
  C41      1.0000 0.27590  0.86970  0.94100  Biso   1.000  C
  C42      1.0000 0.77590  0.36970  0.94100  Biso   1.000  C
  C43      1.0000 0.72410  0.86970  0.55900  Biso   1.000  C
  C44      1.0000 0.22410  0.36970  0.55900  Biso   1.000  C
  C45      1.0000 0.72410  0.13030  0.05900  Biso   1.000  C
  C46      1.0000 0.22410  0.63030  0.05900  Biso   1.000  C
  C47      1.0000 0.27590  0.13030  0.44100  Biso   1.000  C
  C48      1.0000 0.77590  0.63030  0.44100  Biso   1.000  C
  F49      1.0000 0.24270  0.88100  0.89000  Biso   1.000  F
  F50      1.0000 0.74270  0.38100  0.89000  Biso   1.000  F
  F51      1.0000 0.75730  0.88100  0.61000  Biso   1.000  F
  F52      1.0000 0.25730  0.38100  0.61000  Biso   1.000  F
  F53      1.0000 0.75730  0.11900  0.11000  Biso   1.000  F
  F54      1.0000 0.25730  0.61900  0.11000  Biso   1.000  F
  F55      1.0000 0.24270  0.11900  0.39000  Biso   1.000  F
  F56      1.0000 0.74270  0.61900  0.39000  Biso   1.000  F
  F57      1.0000 0.27460  0.75330  0.95830  Biso   1.000  F
  F58      1.0000 0.77460  0.25330  0.95830  Biso   1.000  F
  F59      1.0000 0.72540  0.75330  0.54170  Biso   1.000  F
  F60      1.0000 0.22540  0.25330  0.54170  Biso   1.000  F
  F61      1.0000 0.72540  0.24670  0.04170  Biso   1.000  F
  F62      1.0000 0.22540  0.74670  0.04170  Biso   1.000  F
  F63      1.0000 0.27460  0.24670  0.45830  Biso   1.000  F
  F64      1.0000 0.77460  0.74670  0.45830  Biso   1.000  F
  F65      1.0000 0.31730  0.85720  0.94120  Biso   1.000  F
  F66      1.0000 0.81730  0.35720  0.94120  Biso   1.000  F
  F67      1.0000 0.68270  0.85720  0.55880  Biso   1.000  F
  F68      1.0000 0.18270  0.35720  0.55880  Biso   1.000  F
  F69      1.0000 0.68270  0.14280  0.05880  Biso   1.000  F
  F70      1.0000 0.18270  0.64280  0.05880  Biso   1.000  F
  F71      1.0000 0.31730  0.14280  0.44120  Biso   1.000  F
  F72      1.0000 0.81730  0.64280  0.44120  Biso   1.000  F
  C49      1.0000 0.28570  0.98810  0.98620  Biso   1.000  C
  C50      1.0000 0.78570  0.48810  0.98620  Biso   1.000  C
  C51      1.0000 0.71430  0.98810  0.51380  Biso   1.000  C
  C52      1.0000 0.21430  0.48810  0.51380  Biso   1.000  C
  C53      1.0000 0.71430  0.01190  0.01380  Biso   1.000  C
  C54      1.0000 0.21430  0.51190  0.01380  Biso   1.000  C
  C55      1.0000 0.28570  0.01190  0.48620  Biso   1.000  C
  C56      1.0000 0.78570  0.51190  0.48620  Biso   1.000  C
  C57      1.0000 0.32090  0.96720  0.04830  Biso   1.000  C
  C58      1.0000 0.82090  0.46720  0.04830  Biso   1.000  C
  C59      1.0000 0.67910  0.96720  0.45170  Biso   1.000  C
  C60      1.0000 0.17910  0.46720  0.45170  Biso   1.000  C
  C61      1.0000 0.67910  0.03280  0.95170  Biso   1.000  C
  C62      1.0000 0.17910  0.53280  0.95170  Biso   1.000  C
  C63      1.0000 0.32090  0.03280  0.54830  Biso   1.000  C
  C64      1.0000 0.82090  0.53280  0.54830  Biso   1.000  C
  H9       1.0000 0.34200  0.88400  0.06300  Biso   1.000  H
  H10      1.0000 0.84200  0.38400  0.06300  Biso   1.000  H
  H11      1.0000 0.65800  0.88400  0.43700  Biso   1.000  H
  H12      1.0000 0.15800  0.38400  0.43700  Biso   1.000  H
  H13      1.0000 0.65800  0.11600  0.93700  Biso   1.000  H
  H14      1.0000 0.15800  0.61600  0.93700  Biso   1.000  H
  H15      1.0000 0.34200  0.11600  0.56300  Biso   1.000  H
  H16      1.0000 0.84200  0.61600  0.56300  Biso   1.000  H
  C65      1.0000 0.32940  0.06650  0.09210  Biso   1.000  C
  C66      1.0000 0.82940  0.56650  0.09210  Biso   1.000  C
  C67      1.0000 0.67060  0.06650  0.40790  Biso   1.000  C
  C68      1.0000 0.17060  0.56650  0.40790  Biso   1.000  C
  C69      1.0000 0.67060  0.93350  0.90790  Biso   1.000  C
  C70      1.0000 0.17060  0.43350  0.90790  Biso   1.000  C
  C71      1.0000 0.32940  0.93350  0.59210  Biso   1.000  C
  C72      1.0000 0.82940  0.43350  0.59210  Biso   1.000  C
  C73      1.0000 0.36880  0.03150  0.15930  Biso   1.000  C
  C74      1.0000 0.86880  0.53150  0.15930  Biso   1.000  C
  C75      1.0000 0.63120  0.03150  0.34070  Biso   1.000  C
  C76      1.0000 0.13120  0.53150  0.34070  Biso   1.000  C
  C77      1.0000 0.63120  0.96850  0.84070  Biso   1.000  C
  C78      1.0000 0.13120  0.46850  0.84070  Biso   1.000  C
  C79      1.0000 0.36880  0.96850  0.65930  Biso   1.000  C
  C80      1.0000 0.86880  0.46850  0.65930  Biso   1.000  C
  F73      1.0000 0.35300  0.04140  0.19190  Biso   1.000  F
  F74      1.0000 0.85300  0.54140  0.19190  Biso   1.000  F
  F75      1.0000 0.64700  0.04140  0.30810  Biso   1.000  F
  F76      1.0000 0.14700  0.54140  0.30810  Biso   1.000  F
  F77      1.0000 0.64700  0.95860  0.80810  Biso   1.000  F
  F78      1.0000 0.14700  0.45860  0.80810  Biso   1.000  F
  F79      1.0000 0.35300  0.95860  0.69190  Biso   1.000  F
  F80      1.0000 0.85300  0.45860  0.69190  Biso   1.000  F
  F81      1.0000 0.39340  0.92360  0.17280  Biso   1.000  F
  F82      1.0000 0.89340  0.42360  0.17280  Biso   1.000  F
  F83      1.0000 0.60660  0.92360  0.32720  Biso   1.000  F
  F84      1.0000 0.10660  0.42360  0.32720  Biso   1.000  F
  F85      1.0000 0.60660  0.07640  0.82720  Biso   1.000  F
  F86      1.0000 0.10660  0.57640  0.82720  Biso   1.000  F
  F87      1.0000 0.39340  0.07640  0.67280  Biso   1.000  F
  F88      1.0000 0.89340  0.57640  0.67280  Biso   1.000  F
  F89      1.0000 0.40620  0.11700  0.18650  Biso   1.000  F
  F90      1.0000 0.90620  0.61700  0.18650  Biso   1.000  F
  F91      1.0000 0.59380  0.11700  0.31350  Biso   1.000  F
  F92      1.0000 0.09380  0.61700  0.31350  Biso   1.000  F
  F93      1.0000 0.59380  0.88300  0.81350  Biso   1.000  F
  F94      1.0000 0.09380  0.38300  0.81350  Biso   1.000  F
  F95      1.0000 0.40620  0.88300  0.68650  Biso   1.000  F
  F96      1.0000 0.90620  0.38300  0.68650  Biso   1.000  F
  O25      1.0000 0.30778  0.18150  0.08280  Biso   1.000  O
  O26      1.0000 0.80778  0.68150  0.08280  Biso   1.000  O
  O27      1.0000 0.69222  0.18150  0.41720  Biso   1.000  O
  O28      1.0000 0.19222  0.68150  0.41720  Biso   1.000  O
  O29      1.0000 0.69222  0.81850  0.91720  Biso   1.000  O
  O30      1.0000 0.19222  0.31850  0.91720  Biso   1.000  O
  O31      1.0000 0.30778  0.81850  0.58280  Biso   1.000  O
  O32      1.0000 0.80778  0.31850  0.58280  Biso   1.000  O
  O33      1.0000 0.24570  0.00860  0.20260  Biso   1.000  O
  O34      1.0000 0.74570  0.50860  0.20260  Biso   1.000  O
  O35      1.0000 0.75430  0.00860  0.29740  Biso   1.000  O
  O36      1.0000 0.25430  0.50860  0.29740  Biso   1.000  O
  O37      1.0000 0.75430  0.99140  0.79740  Biso   1.000  O
  O38      1.0000 0.25430  0.49140  0.79740  Biso   1.000  O
  O39      1.0000 0.24570  0.99140  0.70260  Biso   1.000  O
  O40      1.0000 0.74570  0.49140  0.70260  Biso   1.000  O
  N1       1.0000 0.20020  0.95880  0.17950  Biso   1.000  N
  N2       1.0000 0.70020  0.45880  0.17950  Biso   1.000  N
  N3       1.0000 0.79980  0.95880  0.32050  Biso   1.000  N
  N4       1.0000 0.29980  0.45880  0.32050  Biso   1.000  N
  N5       1.0000 0.79980  0.04120  0.82050  Biso   1.000  N
  N6       1.0000 0.29980  0.54120  0.82050  Biso   1.000  N
  N7       1.0000 0.20020  0.04120  0.67950  Biso   1.000  N
  N8       1.0000 0.70020  0.54120  0.67950  Biso   1.000  N
  C81      1.0000 0.18010  0.92210  0.21830  Biso   1.000  C
  C82      1.0000 0.68010  0.42210  0.21830  Biso   1.000  C
  C83      1.0000 0.81990  0.92210  0.28170  Biso   1.000  C
  C84      1.0000 0.31990  0.42210  0.28170  Biso   1.000  C
  C85      1.0000 0.81990  0.07790  0.78170  Biso   1.000  C
  C86      1.0000 0.31990  0.57790  0.78170  Biso   1.000  C
  C87      1.0000 0.18010  0.07790  0.71830  Biso   1.000  C
  C88      1.0000 0.68010  0.57790  0.71830  Biso   1.000  C
  C89      1.0000 0.16540  0.05880  0.23340  Biso   1.000  C
  C90      1.0000 0.66540  0.55880  0.23340  Biso   1.000  C
  C91      1.0000 0.83460  0.05880  0.26660  Biso   1.000  C
  C92      1.0000 0.33460  0.55880  0.26660  Biso   1.000  C
  C93      1.0000 0.83460  0.94120  0.76660  Biso   1.000  C
  C94      1.0000 0.33460  0.44120  0.76660  Biso   1.000  C
  C95      1.0000 0.16540  0.94120  0.73340  Biso   1.000  C
  C96      1.0000 0.66540  0.44120  0.73340  Biso   1.000  C
  H17      1.0000 0.20200  0.12900  0.26300  Biso   1.000  H
  H18      1.0000 0.70200  0.62900  0.26300  Biso   1.000  H
  H19      1.0000 0.79800  0.12900  0.23700  Biso   1.000  H
  H20      1.0000 0.29800  0.62900  0.23700  Biso   1.000  H
  H21      1.0000 0.79800  0.87100  0.73700  Biso   1.000  H
  H22      1.0000 0.29800  0.37100  0.73700  Biso   1.000  H
  H23      1.0000 0.20200  0.87100  0.76300  Biso   1.000  H
  H24      1.0000 0.70200  0.37100  0.76300  Biso   1.000  H
  H25      1.0000 0.14400  0.09500  0.20500  Biso   1.000  H
  H26      1.0000 0.64400  0.59500  0.20500  Biso   1.000  H
  H27      1.0000 0.85600  0.09500  0.29500  Biso   1.000  H
  H28      1.0000 0.35600  0.59500  0.29500  Biso   1.000  H
  H29      1.0000 0.85600  0.90500  0.79500  Biso   1.000  H
  H30      1.0000 0.35600  0.40500  0.79500  Biso   1.000  H
  H31      1.0000 0.14400  0.90500  0.70500  Biso   1.000  H
  H32      1.0000 0.64400  0.40500  0.70500  Biso   1.000  H
  H33      1.0000 0.15700  0.04600  0.26100  Biso   1.000  H
  H34      1.0000 0.65700  0.54600  0.26100  Biso   1.000  H
  H35      1.0000 0.84300  0.04600  0.23900  Biso   1.000  H
  H36      1.0000 0.34300  0.54600  0.23900  Biso   1.000  H
  H37      1.0000 0.84300  0.95400  0.73900  Biso   1.000  H
  H38      1.0000 0.34300  0.45400  0.73900  Biso   1.000  H
  H39      1.0000 0.15700  0.95400  0.76100  Biso   1.000  H
  H40      1.0000 0.65700  0.45400  0.76100  Biso   1.000  H
  C97      1.0000 0.22270  0.85060  0.27780  Biso   1.000  C
  C98      1.0000 0.72270  0.35060  0.27780  Biso   1.000  C
  C99      1.0000 0.77730  0.85060  0.22220  Biso   1.000  C
  C100     1.0000 0.27730  0.35060  0.22220  Biso   1.000  C
  C101     1.0000 0.77730  0.14940  0.72220  Biso   1.000  C
  C102     1.0000 0.27730  0.64940  0.72220  Biso   1.000  C
  C103     1.0000 0.22270  0.14940  0.77780  Biso   1.000  C
  C104     1.0000 0.72270  0.64940  0.77780  Biso   1.000  C
  H41      1.0000 0.23700  0.76100  0.27600  Biso   1.000  H
  H42      1.0000 0.73700  0.26100  0.27600  Biso   1.000  H
  H43      1.0000 0.76300  0.76100  0.22400  Biso   1.000  H
  H44      1.0000 0.26300  0.26100  0.22400  Biso   1.000  H
  H45      1.0000 0.76300  0.23900  0.72400  Biso   1.000  H
  H46      1.0000 0.26300  0.73900  0.72400  Biso   1.000  H
  H47      1.0000 0.23700  0.23900  0.77600  Biso   1.000  H
  H48      1.0000 0.73700  0.73900  0.77600  Biso   1.000  H
  H49      1.0000 0.24900  0.88700  0.29800  Biso   1.000  H
  H50      1.0000 0.74900  0.38700  0.29800  Biso   1.000  H
  H51      1.0000 0.75100  0.88700  0.20200  Biso   1.000  H
  H52      1.0000 0.25100  0.38700  0.20200  Biso   1.000  H
  H53      1.0000 0.75100  0.11300  0.70200  Biso   1.000  H
  H54      1.0000 0.25100  0.61300  0.70200  Biso   1.000  H
  H55      1.0000 0.24900  0.11300  0.79800  Biso   1.000  H
  H56      1.0000 0.74900  0.61300  0.79800  Biso   1.000  H
  H57      1.0000 0.20800  0.81900  0.30200  Biso   1.000  H
  H58      1.0000 0.70800  0.31900  0.30200  Biso   1.000  H
  H59      1.0000 0.79200  0.81900  0.19800  Biso   1.000  H
  H60      1.0000 0.29200  0.31900  0.19800  Biso   1.000  H
  H61      1.0000 0.79200  0.18100  0.69800  Biso   1.000  H
  H62      1.0000 0.29200  0.68100  0.69800  Biso   1.000  H
  H63      1.0000 0.20800  0.18100  0.80200  Biso   1.000  H
  H64      1.0000 0.70800  0.68100  0.80200  Biso   1.000  H
  C105     1.0000 0.13240  0.82810  0.17110  Biso   1.000  C
  C106     1.0000 0.63240  0.32810  0.17110  Biso   1.000  C
  C107     1.0000 0.86760  0.82810  0.32890  Biso   1.000  C
  C108     1.0000 0.36760  0.32810  0.32890  Biso   1.000  C
  C109     1.0000 0.86760  0.17190  0.82890  Biso   1.000  C
  C110     1.0000 0.36760  0.67190  0.82890  Biso   1.000  C
  C111     1.0000 0.13240  0.17190  0.67110  Biso   1.000  C
  C112     1.0000 0.63240  0.67190  0.67110  Biso   1.000  C
  C113     1.0000 0.08470  0.83940  0.17410  Biso   1.000  C
  C114     1.0000 0.58470  0.33940  0.17410  Biso   1.000  C
  C115     1.0000 0.91530  0.83940  0.32590  Biso   1.000  C
  C116     1.0000 0.41530  0.33940  0.32590  Biso   1.000  C
  C117     1.0000 0.91530  0.16060  0.82590  Biso   1.000  C
  C118     1.0000 0.41530  0.66060  0.82590  Biso   1.000  C
  C119     1.0000 0.08470  0.16060  0.67410  Biso   1.000  C
  C120     1.0000 0.58470  0.66060  0.67410  Biso   1.000  C
  H65      1.0000 0.06400  0.77900  0.14500  Biso   1.000  H
  H66      1.0000 0.56400  0.27900  0.14500  Biso   1.000  H
  H67      1.0000 0.93600  0.77900  0.35500  Biso   1.000  H
  H68      1.0000 0.43600  0.27900  0.35500  Biso   1.000  H
  H69      1.0000 0.93600  0.22100  0.85500  Biso   1.000  H
  H70      1.0000 0.43600  0.72100  0.85500  Biso   1.000  H
  H71      1.0000 0.06400  0.22100  0.64500  Biso   1.000  H
  H72      1.0000 0.56400  0.72100  0.64500  Biso   1.000  H
  H73      1.0000 0.10100  0.82900  0.21900  Biso   1.000  H
  H74      1.0000 0.60100  0.32900  0.21900  Biso   1.000  H
  H75      1.0000 0.89900  0.82900  0.28100  Biso   1.000  H
  H76      1.0000 0.39900  0.32900  0.28100  Biso   1.000  H
  H77      1.0000 0.89900  0.17100  0.78100  Biso   1.000  H
  H78      1.0000 0.39900  0.67100  0.78100  Biso   1.000  H
  H79      1.0000 0.10100  0.17100  0.71900  Biso   1.000  H
  H80      1.0000 0.60100  0.67100  0.71900  Biso   1.000  H
  H81      1.0000 0.07200  0.93600  0.16500  Biso   1.000  H
  H82      1.0000 0.57200  0.43600  0.16500  Biso   1.000  H
  H83      1.0000 0.92800  0.93600  0.33500  Biso   1.000  H
  H84      1.0000 0.42800  0.43600  0.33500  Biso   1.000  H
  H85      1.0000 0.92800  0.06400  0.83500  Biso   1.000  H
  H86      1.0000 0.42800  0.56400  0.83500  Biso   1.000  H
  H87      1.0000 0.07200  0.06400  0.66500  Biso   1.000  H
  H88      1.0000 0.57200  0.56400  0.66500  Biso   1.000  H
  C121     1.0000 0.14820  0.67800  0.17220  Biso   1.000  C
  C122     1.0000 0.64820  0.17800  0.17220  Biso   1.000  C
  C123     1.0000 0.85180  0.67800  0.32780  Biso   1.000  C
  C124     1.0000 0.35180  0.17800  0.32780  Biso   1.000  C
  C125     1.0000 0.85180  0.32200  0.82780  Biso   1.000  C
  C126     1.0000 0.35180  0.82200  0.82780  Biso   1.000  C
  C127     1.0000 0.14820  0.32200  0.67220  Biso   1.000  C
  C128     1.0000 0.64820  0.82200  0.67220  Biso   1.000  C
  H89      1.0000 0.12200  0.63000  0.14400  Biso   1.000  H
  H90      1.0000 0.62200  0.13000  0.14400  Biso   1.000  H
  H91      1.0000 0.87800  0.63000  0.35600  Biso   1.000  H
  H92      1.0000 0.37800  0.13000  0.35600  Biso   1.000  H
  H93      1.0000 0.87800  0.37000  0.85600  Biso   1.000  H
  H94      1.0000 0.37800  0.87000  0.85600  Biso   1.000  H
  H95      1.0000 0.12200  0.37000  0.64400  Biso   1.000  H
  H96      1.0000 0.62200  0.87000  0.64400  Biso   1.000  H
  H97      1.0000 0.18500  0.67200  0.17100  Biso   1.000  H
  H98      1.0000 0.68500  0.17200  0.17100  Biso   1.000  H
  H99      1.0000 0.81500  0.67200  0.32900  Biso   1.000  H
  H100     1.0000 0.31500  0.17200  0.32900  Biso   1.000  H
  H101     1.0000 0.81500  0.32800  0.82900  Biso   1.000  H
  H102     1.0000 0.31500  0.82800  0.82900  Biso   1.000  H
  H103     1.0000 0.18500  0.32800  0.67100  Biso   1.000  H
  H104     1.0000 0.68500  0.82800  0.67100  Biso   1.000  H
  H105     1.0000 0.15200  0.64100  0.21000  Biso   1.000  H
  H106     1.0000 0.65200  0.14100  0.21000  Biso   1.000  H
  H107     1.0000 0.84800  0.64100  0.29000  Biso   1.000  H
  H108     1.0000 0.34800  0.14100  0.29000  Biso   1.000  H
  H109     1.0000 0.84800  0.35900  0.79000  Biso   1.000  H
  H110     1.0000 0.34800  0.85900  0.79000  Biso   1.000  H
  H111     1.0000 0.15200  0.35900  0.71000  Biso   1.000  H
  H112     1.0000 0.65200  0.85900  0.71000  Biso   1.000  H
  N9       1.0000 0.11930  0.89000  0.11100  Biso   1.000  N
  N10      1.0000 0.61930  0.39000  0.11100  Biso   1.000  N
  N11      1.0000 0.88070  0.89000  0.38900  Biso   1.000  N
  N12      1.0000 0.38070  0.39000  0.38900  Biso   1.000  N
  N13      1.0000 0.88070  0.11000  0.88900  Biso   1.000  N
  N14      1.0000 0.38070  0.61000  0.88900  Biso   1.000  N
  N15      1.0000 0.11930  0.11000  0.61100  Biso   1.000  N
  N16      1.0000 0.61930  0.61000  0.61100  Biso   1.000  N
  O41      1.0000 0.07492  0.86150  0.05746  Biso   1.000  O
  O42      1.0000 0.57492  0.36150  0.05746  Biso   1.000  O
  O43      1.0000 0.92508  0.86150  0.44254  Biso   1.000  O
  O44      1.0000 0.42508  0.36150  0.44254  Biso   1.000  O
  O45      1.0000 0.92508  0.13850  0.94254  Biso   1.000  O
  O46      1.0000 0.42508  0.63850  0.94254  Biso   1.000  O
  O47      1.0000 0.07492  0.13850  0.55746  Biso   1.000  O
  O48      1.0000 0.57492  0.63850  0.55746  Biso   1.000  O
  C129     1.0000 0.16090  0.95140  0.11750  Biso   1.000  C
  C130     1.0000 0.66090  0.45140  0.11750  Biso   1.000  C
  C131     1.0000 0.83910  0.95140  0.38250  Biso   1.000  C
  C132     1.0000 0.33910  0.45140  0.38250  Biso   1.000  C
  C133     1.0000 0.83910  0.04860  0.88250  Biso   1.000  C
  C134     1.0000 0.33910  0.54860  0.88250  Biso   1.000  C
  C135     1.0000 0.16090  0.04860  0.61750  Biso   1.000  C
  C136     1.0000 0.66090  0.54860  0.61750  Biso   1.000  C
  C137     1.0000 0.16340  0.00100  0.06770  Biso   1.000  C
  C138     1.0000 0.66340  0.50100  0.06770  Biso   1.000  C
  C139     1.0000 0.83660  0.00100  0.43230  Biso   1.000  C
  C140     1.0000 0.33660  0.50100  0.43230  Biso   1.000  C
  C141     1.0000 0.83660  0.99900  0.93230  Biso   1.000  C
  C142     1.0000 0.33660  0.49900  0.93230  Biso   1.000  C
  C143     1.0000 0.16340  0.99900  0.56770  Biso   1.000  C
  C144     1.0000 0.66340  0.49900  0.56770  Biso   1.000  C
  C145     1.0000 0.12700  0.97900  0.00590  Biso   1.000  C
  C146     1.0000 0.62700  0.47900  0.00590  Biso   1.000  C
  C147     1.0000 0.87300  0.97900  0.49410  Biso   1.000  C
  C148     1.0000 0.37300  0.47900  0.49410  Biso   1.000  C
  C149     1.0000 0.87300  0.02100  0.99410  Biso   1.000  C
  C150     1.0000 0.37300  0.52100  0.99410  Biso   1.000  C
  C151     1.0000 0.12700  0.02100  0.50590  Biso   1.000  C
  C152     1.0000 0.62700  0.52100  0.50590  Biso   1.000  C
  H113     1.0000 0.09000  0.94100  0.98300  Biso   1.000  H
  H114     1.0000 0.59000  0.44100  0.98300  Biso   1.000  H
  H115     1.0000 0.91000  0.94100  0.51700  Biso   1.000  H
  H116     1.0000 0.41000  0.44100  0.51700  Biso   1.000  H
  H117     1.0000 0.91000  0.05900  0.01700  Biso   1.000  H
  H118     1.0000 0.41000  0.55900  0.01700  Biso   1.000  H
  H119     1.0000 0.09000  0.05900  0.48300  Biso   1.000  H
  H120     1.0000 0.59000  0.55900  0.48300  Biso   1.000  H
  N17      1.0000 0.14520  0.04410  0.97550  Biso   1.000  N
  N18      1.0000 0.64520  0.54410  0.97550  Biso   1.000  N
  N19      1.0000 0.85480  0.04410  0.52450  Biso   1.000  N
  N20      1.0000 0.35480  0.54410  0.52450  Biso   1.000  N
  N21      1.0000 0.85480  0.95590  0.02450  Biso   1.000  N
  N22      1.0000 0.35480  0.45590  0.02450  Biso   1.000  N
  N23      1.0000 0.14520  0.95590  0.47550  Biso   1.000  N
  N24      1.0000 0.64520  0.45590  0.47550  Biso   1.000  N
  C153     1.0000 0.12050  0.04720  0.90900  Biso   1.000  C
  C154     1.0000 0.62050  0.54720  0.90900  Biso   1.000  C
  C155     1.0000 0.87950  0.04720  0.59100  Biso   1.000  C
  C156     1.0000 0.37950  0.54720  0.59100  Biso   1.000  C
  C157     1.0000 0.87950  0.95280  0.09100  Biso   1.000  C
  C158     1.0000 0.37950  0.45280  0.09100  Biso   1.000  C
  C159     1.0000 0.12050  0.95280  0.40900  Biso   1.000  C
  C160     1.0000 0.62050  0.45280  0.40900  Biso   1.000  C
  C161     1.0000 0.12110  0.92300  0.88310  Biso   1.000  C
  C162     1.0000 0.62110  0.42300  0.88310  Biso   1.000  C
  C163     1.0000 0.87890  0.92300  0.61690  Biso   1.000  C
  C164     1.0000 0.37890  0.42300  0.61690  Biso   1.000  C
  C165     1.0000 0.87890  0.07700  0.11690  Biso   1.000  C
  C166     1.0000 0.37890  0.57700  0.11690  Biso   1.000  C
  C167     1.0000 0.12110  0.07700  0.38310  Biso   1.000  C
  C168     1.0000 0.62110  0.57700  0.38310  Biso   1.000  C
  C169     1.0000 0.09540  0.92800  0.82080  Biso   1.000  C
  C170     1.0000 0.59540  0.42800  0.82080  Biso   1.000  C
  C171     1.0000 0.90460  0.92800  0.67920  Biso   1.000  C
  C172     1.0000 0.40460  0.42800  0.67920  Biso   1.000  C
  C173     1.0000 0.90460  0.07200  0.17920  Biso   1.000  C
  C174     1.0000 0.40460  0.57200  0.17920  Biso   1.000  C
  C175     1.0000 0.09540  0.07200  0.32080  Biso   1.000  C
  C176     1.0000 0.59540  0.57200  0.32080  Biso   1.000  C
  N25      1.0000 0.19250  0.10680  0.01670  Biso   1.000  N
  N26      1.0000 0.69250  0.60680  0.01670  Biso   1.000  N
  N27      1.0000 0.80750  0.10680  0.48330  Biso   1.000  N
  N28      1.0000 0.30750  0.60680  0.48330  Biso   1.000  N
  N29      1.0000 0.80750  0.89320  0.98330  Biso   1.000  N
  N30      1.0000 0.30750  0.39320  0.98330  Biso   1.000  N
  N31      1.0000 0.19250  0.89320  0.51670  Biso   1.000  N
  N32      1.0000 0.69250  0.39320  0.51670  Biso   1.000  N
  C177     1.0000 0.20390  0.08220  0.07220  Biso   1.000  C
  C178     1.0000 0.70390  0.58220  0.07220  Biso   1.000  C
  C179     1.0000 0.79610  0.08220  0.42780  Biso   1.000  C
  C180     1.0000 0.29610  0.58220  0.42780  Biso   1.000  C
  C181     1.0000 0.79610  0.91780  0.92780  Biso   1.000  C
  C182     1.0000 0.29610  0.41780  0.92780  Biso   1.000  C
  C183     1.0000 0.20390  0.91780  0.57220  Biso   1.000  C
  C184     1.0000 0.70390  0.41780  0.57220  Biso   1.000  C
  H121     1.0000 0.23700  0.12100  0.11400  Biso   1.000  H
  H122     1.0000 0.73700  0.62100  0.11400  Biso   1.000  H
  H123     1.0000 0.76300  0.12100  0.38600  Biso   1.000  H
  H124     1.0000 0.26300  0.62100  0.38600  Biso   1.000  H
  H125     1.0000 0.76300  0.87900  0.88600  Biso   1.000  H
  H126     1.0000 0.26300  0.37900  0.88600  Biso   1.000  H
  H127     1.0000 0.23700  0.87900  0.61400  Biso   1.000  H
  H128     1.0000 0.73700  0.37900  0.61400  Biso   1.000  H
  C185     1.0000 0.07540  0.10100  0.87050  Biso   1.000  C
  C186     1.0000 0.57540  0.60100  0.87050  Biso   1.000  C
  C187     1.0000 0.92460  0.10100  0.62950  Biso   1.000  C
  C188     1.0000 0.42460  0.60100  0.62950  Biso   1.000  C
  C189     1.0000 0.92460  0.89900  0.12950  Biso   1.000  C
  C190     1.0000 0.42460  0.39900  0.12950  Biso   1.000  C
  C191     1.0000 0.07540  0.89900  0.37050  Biso   1.000  C
  C192     1.0000 0.57540  0.39900  0.37050  Biso   1.000  C
  C193     1.0000 0.05420  0.05800  0.80050  Biso   1.000  C
  C194     1.0000 0.55420  0.55800  0.80050  Biso   1.000  C
  C195     1.0000 0.94580  0.05800  0.69950  Biso   1.000  C
  C196     1.0000 0.44580  0.55800  0.69950  Biso   1.000  C
  C197     1.0000 0.94580  0.94200  0.19950  Biso   1.000  C
  C198     1.0000 0.44580  0.44200  0.19950  Biso   1.000  C
  C199     1.0000 0.05420  0.94200  0.30050  Biso   1.000  C
  C200     1.0000 0.55420  0.44200  0.30050  Biso   1.000  C
