data_image0
_cell_length_a       30.032
_cell_length_b       9.6811
_cell_length_c       25.641
_cell_angle_alpha    90
_cell_angle_beta     127.23
_cell_angle_gamma    90

_symmetry_space_group_name_H-M    "P 1"
_symmetry_int_tables_number       1

loop_
  _symmetry_equiv_pos_as_xyz
  'x, y, z'

loop_
  _atom_site_label
  _atom_site_occupancy
  _atom_site_fract_x
  _atom_site_fract_y
  _atom_site_fract_z
  _atom_site_thermal_displace_type
  _atom_site_B_iso_or_equiv
  _atom_site_type_symbol
  Cu1      1.0000 0.24831  0.25638  0.00103  Biso   1.000  Cu
  Cu2      1.0000 0.75169  0.75638  0.49897  Biso   1.000  Cu
  Cu3      1.0000 0.75169  0.74362  0.99897  Biso   1.000  Cu
  Cu4      1.0000 0.24831  0.24362  0.50103  Biso   1.000  Cu
  O1       1.0000 0.06508  0.56592  0.08644  Biso   1.000  O
  O2       1.0000 0.93492  0.06592  0.41356  Biso   1.000  O
  O3       1.0000 0.93492  0.43408  0.91356  Biso   1.000  O
  O4       1.0000 0.06508  0.93408  0.58644  Biso   1.000  O
  C1       1.0000 0.12753  0.72270  0.16895  Biso   1.000  C
  C2       1.0000 0.87247  0.22270  0.33105  Biso   1.000  C
  C3       1.0000 0.87247  0.27730  0.83105  Biso   1.000  C
  C4       1.0000 0.12753  0.77730  0.66895  Biso   1.000  C
  F1       1.0000 0.10977  0.69260  0.20244  Biso   1.000  F
  F2       1.0000 0.89023  0.19260  0.29756  Biso   1.000  F
  F3       1.0000 0.89023  0.30740  0.79756  Biso   1.000  F
  F4       1.0000 0.10977  0.80740  0.70244  Biso   1.000  F
  F5       1.0000 0.14271  0.85070  0.18012  Biso   1.000  F
  F6       1.0000 0.85729  0.35070  0.31988  Biso   1.000  F
  F7       1.0000 0.85729  0.14930  0.81988  Biso   1.000  F
  F8       1.0000 0.14271  0.64930  0.68012  Biso   1.000  F
  F9       1.0000 0.17277  0.65190  0.19522  Biso   1.000  F
  F10      1.0000 0.82723  0.15190  0.30478  Biso   1.000  F
  F11      1.0000 0.82723  0.34810  0.80478  Biso   1.000  F
  F12      1.0000 0.17277  0.84810  0.69522  Biso   1.000  F
  C5       1.0000 0.08403  0.68710  0.09656  Biso   1.000  C
  C6       1.0000 0.91597  0.18710  0.40344  Biso   1.000  C
  C7       1.0000 0.91597  0.31290  0.90344  Biso   1.000  C
  C8       1.0000 0.08403  0.81290  0.59656  Biso   1.000  C
  C9       1.0000 0.06964  0.78920  0.05063  Biso   1.000  C
  C10      1.0000 0.93036  0.28920  0.44937  Biso   1.000  C
  C11      1.0000 0.93036  0.21080  0.94937  Biso   1.000  C
  C12      1.0000 0.06964  0.71080  0.55063  Biso   1.000  C
  H1       1.0000 0.08380  0.87000  0.06300  Biso   1.000  H
  H2       1.0000 0.91620  0.37000  0.43700  Biso   1.000  H
  H3       1.0000 0.91620  0.13000  0.93700  Biso   1.000  H
  H4       1.0000 0.08380  0.63000  0.56300  Biso   1.000  H
  C13      1.0000 0.03097  0.76670  0.98371  Biso   1.000  C
  C14      1.0000 0.96903  0.26670  0.51629  Biso   1.000  C
  C15      1.0000 0.96903  0.23330  0.01629  Biso   1.000  C
  C16      1.0000 0.03097  0.73330  0.48371  Biso   1.000  C
  C17      1.0000 0.01763  0.88760  0.93765  Biso   1.000  C
  C18      1.0000 0.98237  0.38760  0.56235  Biso   1.000  C
  C19      1.0000 0.98237  0.11240  0.06235  Biso   1.000  C
  C20      1.0000 0.01763  0.61240  0.43765  Biso   1.000  C
  F13      1.0000 0.04050  0.87040  0.90718  Biso   1.000  F
  F14      1.0000 0.95950  0.37040  0.59282  Biso   1.000  F
  F15      1.0000 0.95950  0.12960  0.09282  Biso   1.000  F
  F16      1.0000 0.04050  0.62960  0.40718  Biso   1.000  F
  F17      1.0000 0.03448  0.00903  0.96832  Biso   1.000  F
  F18      1.0000 0.96552  0.50903  0.53168  Biso   1.000  F
  F19      1.0000 0.96552  0.99097  0.03168  Biso   1.000  F
  F20      1.0000 0.03448  0.49097  0.46832  Biso   1.000  F
  F21      1.0000 0.96266  0.89948  0.89113  Biso   1.000  F
  F22      1.0000 0.03734  0.39948  0.60887  Biso   1.000  F
  F23      1.0000 0.03734  0.10052  0.10887  Biso   1.000  F
  F24      1.0000 0.96266  0.60052  0.39113  Biso   1.000  F
  O5       1.0000 0.00458  0.65792  0.95441  Biso   1.000  O
  O6       1.0000 0.99542  0.15792  0.54559  Biso   1.000  O
  O7       1.0000 0.99542  0.34208  0.04559  Biso   1.000  O
  O8       1.0000 0.00458  0.84208  0.45441  Biso   1.000  O
  Cu5      1.0000 0.50000  0.00000  0.00000  Biso   1.000  Cu
  Cu6      1.0000 0.50000  0.50000  0.50000  Biso   1.000  Cu
  O9       1.0000 0.20351  0.40684  0.99948  Biso   1.000  O
  O10      1.0000 0.79649  0.90684  0.50052  Biso   1.000  O
  O11      1.0000 0.79649  0.59316  0.00052  Biso   1.000  O
  O12      1.0000 0.20351  0.09316  0.49948  Biso   1.000  O
  C21      1.0000 0.17101  0.62550  0.99883  Biso   1.000  C
  C22      1.0000 0.82899  0.12550  0.50117  Biso   1.000  C
  C23      1.0000 0.82899  0.37450  0.00117  Biso   1.000  C
  C24      1.0000 0.17101  0.87450  0.49883  Biso   1.000  C
  F25      1.0000 0.20683  0.63480  0.06455  Biso   1.000  F
  F26      1.0000 0.79317  0.13480  0.43545  Biso   1.000  F
  F27      1.0000 0.79317  0.36520  0.93545  Biso   1.000  F
  F28      1.0000 0.20683  0.86520  0.56455  Biso   1.000  F
  F29      1.0000 0.12432  0.58470  0.98551  Biso   1.000  F
  F30      1.0000 0.87568  0.08470  0.51449  Biso   1.000  F
  F31      1.0000 0.87568  0.41530  0.01449  Biso   1.000  F
  F32      1.0000 0.12432  0.91530  0.48551  Biso   1.000  F
  F33      1.0000 0.16607  0.75446  0.97912  Biso   1.000  F
  F34      1.0000 0.83393  0.25446  0.52088  Biso   1.000  F
  F35      1.0000 0.83393  0.24554  0.02088  Biso   1.000  F
  F36      1.0000 0.16607  0.74554  0.47912  Biso   1.000  F
  C25      1.0000 0.19378  0.52540  0.97392  Biso   1.000  C
  C26      1.0000 0.80622  0.02540  0.52608  Biso   1.000  C
  C27      1.0000 0.80622  0.47460  0.02608  Biso   1.000  C
  C28      1.0000 0.19378  0.97460  0.47392  Biso   1.000  C
  C29      1.0000 0.20116  0.57320  0.92869  Biso   1.000  C
  C30      1.0000 0.79884  0.07320  0.57131  Biso   1.000  C
  C31      1.0000 0.79884  0.42680  0.07131  Biso   1.000  C
  C32      1.0000 0.20116  0.92680  0.42869  Biso   1.000  C
  H5       1.0000 0.19290  0.66200  0.91650  Biso   1.000  H
  H6       1.0000 0.80710  0.16200  0.58350  Biso   1.000  H
  H7       1.0000 0.80710  0.33800  0.08350  Biso   1.000  H
  H8       1.0000 0.19290  0.83800  0.41650  Biso   1.000  H
  C33      1.0000 0.22203  0.49040  0.90318  Biso   1.000  C
  C34      1.0000 0.77797  0.99040  0.59682  Biso   1.000  C
  C35      1.0000 0.77797  0.50960  0.09682  Biso   1.000  C
  C36      1.0000 0.22203  0.00960  0.40318  Biso   1.000  C
  C37      1.0000 0.23319  0.55890  0.85807  Biso   1.000  C
  C38      1.0000 0.76681  0.05890  0.64193  Biso   1.000  C
  C39      1.0000 0.76681  0.44110  0.14193  Biso   1.000  C
  C40      1.0000 0.23319  0.94110  0.35807  Biso   1.000  C
  F37      1.0000 0.28810  0.57010  0.88889  Biso   1.000  F
  F38      1.0000 0.71190  0.07010  0.61111  Biso   1.000  F
  F39      1.0000 0.71190  0.42990  0.11111  Biso   1.000  F
  F40      1.0000 0.28810  0.92990  0.38889  Biso   1.000  F
  F41      1.0000 0.21162  0.68450  0.83777  Biso   1.000  F
  F42      1.0000 0.78838  0.18450  0.66223  Biso   1.000  F
  F43      1.0000 0.78838  0.31550  0.16223  Biso   1.000  F
  F44      1.0000 0.21162  0.81550  0.33777  Biso   1.000  F
  F45      1.0000 0.21310  0.48290  0.80482  Biso   1.000  F
  F46      1.0000 0.78690  0.98290  0.69518  Biso   1.000  F
  F47      1.0000 0.78690  0.51710  0.19518  Biso   1.000  F
  F48      1.0000 0.21310  0.01710  0.30482  Biso   1.000  F
  O13      1.0000 0.23410  0.36547  0.91326  Biso   1.000  O
  O14      1.0000 0.76590  0.86547  0.58674  Biso   1.000  O
  O15      1.0000 0.76590  0.63453  0.08674  Biso   1.000  O
  O16      1.0000 0.23410  0.13453  0.41326  Biso   1.000  O
  O17      1.0000 0.25891  0.14913  0.08696  Biso   1.000  O
  O18      1.0000 0.74109  0.64913  0.41304  Biso   1.000  O
  O19      1.0000 0.74109  0.85087  0.91304  Biso   1.000  O
  O20      1.0000 0.25891  0.35087  0.58696  Biso   1.000  O
  C41      1.0000 0.26255  0.96250  0.14689  Biso   1.000  C
  C42      1.0000 0.73745  0.46250  0.35311  Biso   1.000  C
  C43      1.0000 0.73745  0.03750  0.85311  Biso   1.000  C
  C44      1.0000 0.26255  0.53750  0.64689  Biso   1.000  C
  F49      1.0000 0.28087  0.83370  0.16514  Biso   1.000  F
  F50      1.0000 0.71913  0.33370  0.33486  Biso   1.000  F
  F51      1.0000 0.71913  0.16630  0.83486  Biso   1.000  F
  F52      1.0000 0.28087  0.66630  0.66514  Biso   1.000  F
  F53      1.0000 0.20811  0.96180  0.12003  Biso   1.000  F
  F54      1.0000 0.79189  0.46180  0.37997  Biso   1.000  F
  F55      1.0000 0.79189  0.03820  0.87997  Biso   1.000  F
  F56      1.0000 0.20811  0.53820  0.62003  Biso   1.000  F
  F57      1.0000 0.28811  0.03790  0.20165  Biso   1.000  F
  F58      1.0000 0.71189  0.53790  0.29835  Biso   1.000  F
  F59      1.0000 0.71189  0.96210  0.79835  Biso   1.000  F
  F60      1.0000 0.28811  0.46210  0.70165  Biso   1.000  F
  C45      1.0000 0.27163  0.02550  0.09910  Biso   1.000  C
  C46      1.0000 0.72837  0.52550  0.40090  Biso   1.000  C
  C47      1.0000 0.72837  0.97450  0.90090  Biso   1.000  C
  C48      1.0000 0.27163  0.47450  0.59910  Biso   1.000  C
  C49      1.0000 0.29291  0.93930  0.07454  Biso   1.000  C
  C50      1.0000 0.70709  0.43930  0.42546  Biso   1.000  C
  C51      1.0000 0.70709  0.06070  0.92546  Biso   1.000  C
  C52      1.0000 0.29291  0.56070  0.57454  Biso   1.000  C
  H9       1.0000 0.29950  0.85200  0.08680  Biso   1.000  H
  H10      1.0000 0.70050  0.35200  0.41320  Biso   1.000  H
  H11      1.0000 0.70050  0.14800  0.91320  Biso   1.000  H
  H12      1.0000 0.29950  0.64800  0.58680  Biso   1.000  H
  C53      1.0000 0.30208  0.98640  0.03087  Biso   1.000  C
  C54      1.0000 0.69792  0.48640  0.46913  Biso   1.000  C
  C55      1.0000 0.69792  0.01360  0.96913  Biso   1.000  C
  C56      1.0000 0.30208  0.51360  0.53087  Biso   1.000  C
  C57      1.0000 0.32802  0.88450  0.01017  Biso   1.000  C
  C58      1.0000 0.67198  0.38450  0.48983  Biso   1.000  C
  C59      1.0000 0.67198  0.11550  0.98983  Biso   1.000  C
  C60      1.0000 0.32802  0.61550  0.51017  Biso   1.000  C
  F61      1.0000 0.31542  0.75354  0.01129  Biso   1.000  F
  F62      1.0000 0.68458  0.25354  0.48871  Biso   1.000  F
  F63      1.0000 0.68458  0.24646  0.98871  Biso   1.000  F
  F64      1.0000 0.31542  0.74646  0.51129  Biso   1.000  F
  F65      1.0000 0.38327  0.89350  0.04968  Biso   1.000  F
  F66      1.0000 0.61673  0.39350  0.45032  Biso   1.000  F
  F67      1.0000 0.61673  0.10650  0.95032  Biso   1.000  F
  F68      1.0000 0.38327  0.60650  0.54968  Biso   1.000  F
  F69      1.0000 0.31204  0.90950  0.95057  Biso   1.000  F
  F70      1.0000 0.68796  0.40950  0.54943  Biso   1.000  F
  F71      1.0000 0.68796  0.09050  0.04943  Biso   1.000  F
  F72      1.0000 0.31204  0.59050  0.45057  Biso   1.000  F
  O21      1.0000 0.29372  0.10423  0.00561  Biso   1.000  O
  O22      1.0000 0.70628  0.60423  0.49439  Biso   1.000  O
  O23      1.0000 0.70628  0.89577  0.99439  Biso   1.000  O
  O24      1.0000 0.29372  0.39577  0.50561  Biso   1.000  O
  Cu7      1.0000 0.00000  0.50000  0.00000  Biso   1.000  Cu
  Cu8      1.0000 0.00000  0.00000  0.50000  Biso   1.000  Cu
  O25      1.0000 0.55919  0.06409  0.08894  Biso   1.000  O
  O26      1.0000 0.44081  0.56409  0.41106  Biso   1.000  O
  O27      1.0000 0.44081  0.93591  0.91106  Biso   1.000  O
  O28      1.0000 0.55919  0.43591  0.58894  Biso   1.000  O
  C61      1.0000 0.63237  0.19460  0.17560  Biso   1.000  C
  C62      1.0000 0.36763  0.69460  0.32440  Biso   1.000  C
  C63      1.0000 0.36763  0.80540  0.82440  Biso   1.000  C
  C64      1.0000 0.63237  0.30540  0.67560  Biso   1.000  C
  F73      1.0000 0.59510  0.41090  0.97099  Biso   1.000  F
  F74      1.0000 0.40490  0.91090  0.52901  Biso   1.000  F
  F75      1.0000 0.40490  0.58910  0.02901  Biso   1.000  F
  F76      1.0000 0.59510  0.08910  0.47099  Biso   1.000  F
  F77      1.0000 0.51981  0.47979  0.95503  Biso   1.000  F
  F78      1.0000 0.48019  0.97979  0.54497  Biso   1.000  F
  F79      1.0000 0.48019  0.52021  0.04497  Biso   1.000  F
  F80      1.0000 0.51981  0.02021  0.45503  Biso   1.000  F
  F81      1.0000 0.51541  0.33871  0.88752  Biso   1.000  F
  F82      1.0000 0.48459  0.83871  0.61248  Biso   1.000  F
  F83      1.0000 0.48459  0.66129  0.11248  Biso   1.000  F
  F84      1.0000 0.51541  0.16129  0.38752  Biso   1.000  F
  C65      1.0000 0.58928  0.16930  0.10201  Biso   1.000  C
  C66      1.0000 0.41072  0.66930  0.39799  Biso   1.000  C
  C67      1.0000 0.41072  0.83070  0.89799  Biso   1.000  C
  C68      1.0000 0.58928  0.33070  0.60201  Biso   1.000  C
  C69      1.0000 0.58691  0.26150  0.05924  Biso   1.000  C
  C70      1.0000 0.41309  0.76150  0.44076  Biso   1.000  C
  C71      1.0000 0.41309  0.73850  0.94076  Biso   1.000  C
  C72      1.0000 0.58691  0.23850  0.55924  Biso   1.000  C
  H13      1.0000 0.61040  0.33100  0.07490  Biso   1.000  H
  H14      1.0000 0.38960  0.83100  0.42510  Biso   1.000  H
  H15      1.0000 0.38960  0.66900  0.92510  Biso   1.000  H
  H16      1.0000 0.61040  0.16900  0.57490  Biso   1.000  H
  C73      1.0000 0.54699  0.24970  0.99145  Biso   1.000  C
  C74      1.0000 0.45301  0.74970  0.50855  Biso   1.000  C
  C75      1.0000 0.45301  0.75030  0.00855  Biso   1.000  C
  C76      1.0000 0.54699  0.25030  0.49145  Biso   1.000  C
  C77      1.0000 0.54422  0.36980  0.95030  Biso   1.000  C
  C78      1.0000 0.45578  0.86980  0.54970  Biso   1.000  C
  C79      1.0000 0.45578  0.63020  0.04970  Biso   1.000  C
  C80      1.0000 0.54422  0.13020  0.45030  Biso   1.000  C
  F85      1.0000 0.66461  0.08296  0.20578  Biso   1.000  F
  F86      1.0000 0.33539  0.58296  0.29422  Biso   1.000  F
  F87      1.0000 0.33539  0.91704  0.79422  Biso   1.000  F
  F88      1.0000 0.66461  0.41704  0.70578  Biso   1.000  F
  F89      1.0000 0.66685  0.29847  0.19030  Biso   1.000  F
  F90      1.0000 0.33315  0.79847  0.30970  Biso   1.000  F
  F91      1.0000 0.33315  0.70153  0.80970  Biso   1.000  F
  F92      1.0000 0.66685  0.20153  0.69030  Biso   1.000  F
  F93      1.0000 0.60738  0.21870  0.20304  Biso   1.000  F
  F94      1.0000 0.39262  0.71870  0.29696  Biso   1.000  F
  F95      1.0000 0.39262  0.78130  0.79696  Biso   1.000  F
  F96      1.0000 0.60738  0.28130  0.70304  Biso   1.000  F
  O29      1.0000 0.51178  0.15611  0.95969  Biso   1.000  O
  O30      1.0000 0.48822  0.65611  0.54031  Biso   1.000  O
  O31      1.0000 0.48822  0.84389  0.04031  Biso   1.000  O
  O32      1.0000 0.51178  0.34389  0.45969  Biso   1.000  O
  O33      1.0000 0.31398  0.38799  0.04750  Biso   1.000  O
  O34      1.0000 0.68602  0.88799  0.45250  Biso   1.000  O
  O35      1.0000 0.68602  0.61201  0.95250  Biso   1.000  O
  O36      1.0000 0.31398  0.11201  0.54750  Biso   1.000  O
  N1       1.0000 0.36246  0.36220  0.10352  Biso   1.000  N
  N2       1.0000 0.63754  0.86220  0.39648  Biso   1.000  N
  N3       1.0000 0.63754  0.63780  0.89648  Biso   1.000  N
  N4       1.0000 0.36246  0.13780  0.60352  Biso   1.000  N
  C81      1.0000 0.37859  0.42550  0.16661  Biso   1.000  C
  C82      1.0000 0.62141  0.92550  0.33339  Biso   1.000  C
  C83      1.0000 0.62141  0.57450  0.83339  Biso   1.000  C
  C84      1.0000 0.37859  0.07450  0.66661  Biso   1.000  C
  C85      1.0000 0.39209  0.57720  0.16449  Biso   1.000  C
  C86      1.0000 0.60791  0.07720  0.33551  Biso   1.000  C
  C87      1.0000 0.60791  0.42280  0.83551  Biso   1.000  C
  C88      1.0000 0.39209  0.92280  0.66449  Biso   1.000  C
  H17      1.0000 0.36130  0.61700  0.12580  Biso   1.000  H
  H18      1.0000 0.63870  0.11700  0.37420  Biso   1.000  H
  H19      1.0000 0.63870  0.38300  0.87420  Biso   1.000  H
  H20      1.0000 0.36130  0.88300  0.62580  Biso   1.000  H
  H21      1.0000 0.42430  0.59000  0.16240  Biso   1.000  H
  H22      1.0000 0.57570  0.09000  0.33760  Biso   1.000  H
  H23      1.0000 0.57570  0.41000  0.83760  Biso   1.000  H
  H24      1.0000 0.42430  0.91000  0.66240  Biso   1.000  H
  H25      1.0000 0.40170  0.61900  0.20100  Biso   1.000  H
  H26      1.0000 0.59830  0.11900  0.29900  Biso   1.000  H
  H27      1.0000 0.59830  0.38100  0.79900  Biso   1.000  H
  H28      1.0000 0.40170  0.88100  0.70100  Biso   1.000  H
  C89      1.0000 0.33083  0.41490  0.17169  Biso   1.000  C
  C90      1.0000 0.66917  0.91490  0.32831  Biso   1.000  C
  C91      1.0000 0.66917  0.58510  0.82831  Biso   1.000  C
  C92      1.0000 0.33083  0.08510  0.67169  Biso   1.000  C
  H29      1.0000 0.30060  0.46900  0.13890  Biso   1.000  H
  H30      1.0000 0.69940  0.96900  0.36110  Biso   1.000  H
  H31      1.0000 0.69940  0.53100  0.86110  Biso   1.000  H
  H32      1.0000 0.30060  0.03100  0.63890  Biso   1.000  H
  H33      1.0000 0.34300  0.45200  0.21260  Biso   1.000  H
  H34      1.0000 0.65700  0.95200  0.28740  Biso   1.000  H
  H35      1.0000 0.65700  0.54800  0.78740  Biso   1.000  H
  H36      1.0000 0.34300  0.04800  0.71260  Biso   1.000  H
  H37      1.0000 0.31750  0.32600  0.16620  Biso   1.000  H
  H38      1.0000 0.68250  0.82600  0.33380  Biso   1.000  H
  H39      1.0000 0.68250  0.67400  0.83380  Biso   1.000  H
  H40      1.0000 0.31750  0.17400  0.66620  Biso   1.000  H
  C93      1.0000 0.43104  0.33620  0.21664  Biso   1.000  C
  C94      1.0000 0.56896  0.83620  0.28336  Biso   1.000  C
  C95      1.0000 0.56896  0.66380  0.78336  Biso   1.000  C
  C96      1.0000 0.43104  0.16380  0.71664  Biso   1.000  C
  C97      1.0000 0.47715  0.41030  0.27891  Biso   1.000  C
  C98      1.0000 0.52285  0.91030  0.22109  Biso   1.000  C
  C99      1.0000 0.52285  0.58970  0.72109  Biso   1.000  C
  C100     1.0000 0.47715  0.08970  0.77891  Biso   1.000  C
  H41      1.0000 0.51170  0.35000  0.30590  Biso   1.000  H
  H42      1.0000 0.48830  0.85000  0.19410  Biso   1.000  H
  H43      1.0000 0.48830  0.65000  0.69410  Biso   1.000  H
  H44      1.0000 0.51170  0.15000  0.80590  Biso   1.000  H
  H45      1.0000 0.46590  0.42900  0.30540  Biso   1.000  H
  H46      1.0000 0.53410  0.92900  0.19460  Biso   1.000  H
  H47      1.0000 0.53410  0.57100  0.69460  Biso   1.000  H
  H48      1.0000 0.46590  0.07100  0.80540  Biso   1.000  H
  H49      1.0000 0.48740  0.49300  0.26850  Biso   1.000  H
  H50      1.0000 0.51260  0.99300  0.23150  Biso   1.000  H
  H51      1.0000 0.51260  0.50700  0.73150  Biso   1.000  H
  H52      1.0000 0.48740  0.00700  0.76850  Biso   1.000  H
  C101     1.0000 0.41659  0.19780  0.23209  Biso   1.000  C
  C102     1.0000 0.58341  0.69780  0.26791  Biso   1.000  C
  C103     1.0000 0.58341  0.80220  0.76791  Biso   1.000  C
  C104     1.0000 0.41659  0.30220  0.73209  Biso   1.000  C
  H53      1.0000 0.44820  0.14200  0.25510  Biso   1.000  H
  H54      1.0000 0.55180  0.64200  0.24490  Biso   1.000  H
  H55      1.0000 0.55180  0.85800  0.74490  Biso   1.000  H
  H56      1.0000 0.44820  0.35800  0.75510  Biso   1.000  H
  H57      1.0000 0.38850  0.15800  0.19120  Biso   1.000  H
  H58      1.0000 0.61150  0.65800  0.30880  Biso   1.000  H
  H59      1.0000 0.61150  0.84200  0.80880  Biso   1.000  H
  H60      1.0000 0.38850  0.34200  0.69120  Biso   1.000  H
  H61      1.0000 0.40670  0.21300  0.25970  Biso   1.000  H
  H62      1.0000 0.59330  0.71300  0.24030  Biso   1.000  H
  H63      1.0000 0.59330  0.78700  0.74030  Biso   1.000  H
  H64      1.0000 0.40670  0.28700  0.75970  Biso   1.000  H
  N5       1.0000 0.44978  0.30170  0.17538  Biso   1.000  N
  N6       1.0000 0.55022  0.80170  0.32462  Biso   1.000  N
  N7       1.0000 0.55022  0.69830  0.82462  Biso   1.000  N
  N8       1.0000 0.44978  0.19830  0.67538  Biso   1.000  N
  O37      1.0000 0.49868  0.25730  0.19965  Biso   1.000  O
  O38      1.0000 0.50132  0.75730  0.30035  Biso   1.000  O
  O39      1.0000 0.50132  0.74270  0.80035  Biso   1.000  O
  O40      1.0000 0.49868  0.24270  0.69965  Biso   1.000  O
  C105     1.0000 0.40641  0.30580  0.11031  Biso   1.000  C
  C106     1.0000 0.59359  0.80580  0.38969  Biso   1.000  C
  C107     1.0000 0.59359  0.69420  0.88969  Biso   1.000  C
  C108     1.0000 0.40641  0.19420  0.61031  Biso   1.000  C
  C109     1.0000 0.40802  0.25640  0.05854  Biso   1.000  C
  C110     1.0000 0.59198  0.75640  0.44146  Biso   1.000  C
  C111     1.0000 0.59198  0.74360  0.94146  Biso   1.000  C
  C112     1.0000 0.40802  0.24360  0.55854  Biso   1.000  C
  C113     1.0000 0.45020  0.17850  0.06359  Biso   1.000  C
  C114     1.0000 0.54980  0.67850  0.43641  Biso   1.000  C
  C115     1.0000 0.54980  0.82150  0.93641  Biso   1.000  C
  C116     1.0000 0.45020  0.32150  0.56359  Biso   1.000  C
  H65      1.0000 0.48480  0.15000  0.10180  Biso   1.000  H
  H66      1.0000 0.51520  0.65000  0.39820  Biso   1.000  H
  H67      1.0000 0.51520  0.85000  0.89820  Biso   1.000  H
  H68      1.0000 0.48480  0.35000  0.60180  Biso   1.000  H
  N9       1.0000 0.43534  0.14280  0.00510  Biso   1.000  N
  N10      1.0000 0.56466  0.64280  0.49490  Biso   1.000  N
  N11      1.0000 0.56466  0.85720  0.99490  Biso   1.000  N
  N12      1.0000 0.43534  0.35720  0.50510  Biso   1.000  N
  N13      1.0000 0.38306  0.19820  0.96151  Biso   1.000  N
  N14      1.0000 0.61694  0.69820  0.53849  Biso   1.000  N
  N15      1.0000 0.61694  0.80180  0.03849  Biso   1.000  N
  N16      1.0000 0.38306  0.30180  0.46151  Biso   1.000  N
  C117     1.0000 0.34990  0.17150  0.89093  Biso   1.000  C
  C118     1.0000 0.65010  0.67150  0.60907  Biso   1.000  C
  C119     1.0000 0.65010  0.82850  0.10907  Biso   1.000  C
  C120     1.0000 0.34990  0.32850  0.39093  Biso   1.000  C
  H69      1.0000 0.31400  0.20900  0.87300  Biso   1.000  H
  H70      1.0000 0.68600  0.70900  0.62700  Biso   1.000  H
  H71      1.0000 0.68600  0.79100  0.12700  Biso   1.000  H
  H72      1.0000 0.31400  0.29100  0.37300  Biso   1.000  H
  H73      1.0000 0.34480  0.07400  0.88410  Biso   1.000  H
  H74      1.0000 0.65520  0.57400  0.61590  Biso   1.000  H
  H75      1.0000 0.65520  0.92600  0.11590  Biso   1.000  H
  H76      1.0000 0.34480  0.42600  0.38410  Biso   1.000  H
  C121     1.0000 0.37400  0.23560  0.85890  Biso   1.000  C
  C122     1.0000 0.62600  0.73560  0.64110  Biso   1.000  C
  C123     1.0000 0.62600  0.76440  0.14110  Biso   1.000  C
  C124     1.0000 0.37400  0.26440  0.35890  Biso   1.000  C
  H77      1.0000 0.34830  0.20900  0.81310  Biso   1.000  H
  H78      1.0000 0.65170  0.70900  0.68690  Biso   1.000  H
  H79      1.0000 0.65170  0.79100  0.18690  Biso   1.000  H
  H80      1.0000 0.34830  0.29100  0.31310  Biso   1.000  H
  H81      1.0000 0.40900  0.19400  0.87550  Biso   1.000  H
  H82      1.0000 0.59100  0.69400  0.62450  Biso   1.000  H
  H83      1.0000 0.59100  0.80600  0.12450  Biso   1.000  H
  H84      1.0000 0.40900  0.30600  0.37550  Biso   1.000  H
  C125     1.0000 0.38025  0.39090  0.86709  Biso   1.000  C
  C126     1.0000 0.61975  0.89090  0.63291  Biso   1.000  C
  C127     1.0000 0.61975  0.60910  0.13291  Biso   1.000  C
  C128     1.0000 0.38025  0.10910  0.36709  Biso   1.000  C
  H85      1.0000 0.39330  0.43100  0.84590  Biso   1.000  H
  H86      1.0000 0.60670  0.93100  0.65410  Biso   1.000  H
  H87      1.0000 0.60670  0.56900  0.15410  Biso   1.000  H
  H88      1.0000 0.39330  0.06900  0.34590  Biso   1.000  H
  H89      1.0000 0.40400  0.41300  0.91120  Biso   1.000  H
  H90      1.0000 0.59600  0.91300  0.58880  Biso   1.000  H
  H91      1.0000 0.59600  0.58700  0.08880  Biso   1.000  H
  H92      1.0000 0.40400  0.08700  0.41120  Biso   1.000  H
  H93      1.0000 0.34460  0.43300  0.84820  Biso   1.000  H
  H94      1.0000 0.65540  0.93300  0.65180  Biso   1.000  H
  H95      1.0000 0.65540  0.56700  0.15180  Biso   1.000  H
  H96      1.0000 0.34460  0.06700  0.34820  Biso   1.000  H
  C129     1.0000 0.36610  0.26640  0.99197  Biso   1.000  C
  C130     1.0000 0.63390  0.76640  0.50803  Biso   1.000  C
  C131     1.0000 0.63390  0.73360  0.00803  Biso   1.000  C
  C132     1.0000 0.36610  0.23360  0.49197  Biso   1.000  C
  H97      1.0000 0.33320  0.30700  0.96900  Biso   1.000  H
  H98      1.0000 0.66680  0.80700  0.53100  Biso   1.000  H
  H99      1.0000 0.66680  0.69300  0.03100  Biso   1.000  H
  H100     1.0000 0.33320  0.19300  0.46900  Biso   1.000  H
  O41      1.0000 0.18310  0.12389  0.94993  Biso   1.000  O
  O42      1.0000 0.81690  0.62389  0.55007  Biso   1.000  O
  O43      1.0000 0.81690  0.87611  0.05007  Biso   1.000  O
  O44      1.0000 0.18310  0.37611  0.44993  Biso   1.000  O
  N17      1.0000 0.13671  0.15270  0.89203  Biso   1.000  N
  N18      1.0000 0.86329  0.65270  0.60797  Biso   1.000  N
  N19      1.0000 0.86329  0.84730  0.10797  Biso   1.000  N
  N20      1.0000 0.13671  0.34730  0.39203  Biso   1.000  N
  C133     1.0000 0.12345  0.08760  0.83073  Biso   1.000  C
  C134     1.0000 0.87655  0.58760  0.66927  Biso   1.000  C
  C135     1.0000 0.87655  0.91240  0.16927  Biso   1.000  C
  C136     1.0000 0.12345  0.41240  0.33073  Biso   1.000  C
  C137     1.0000 0.10778  0.93760  0.83172  Biso   1.000  C
  C138     1.0000 0.89222  0.43760  0.66828  Biso   1.000  C
  C139     1.0000 0.89222  0.06240  0.16828  Biso   1.000  C
  C140     1.0000 0.10778  0.56240  0.33172  Biso   1.000  C
  H101     1.0000 0.13840  0.90000  0.87020  Biso   1.000  H
  H102     1.0000 0.86160  0.40000  0.62980  Biso   1.000  H
  H103     1.0000 0.86160  0.10000  0.12980  Biso   1.000  H
  H104     1.0000 0.13840  0.60000  0.37020  Biso   1.000  H
  H105     1.0000 0.09850  0.89000  0.79550  Biso   1.000  H
  H106     1.0000 0.90150  0.39000  0.70450  Biso   1.000  H
  H107     1.0000 0.90150  0.11000  0.20450  Biso   1.000  H
  H108     1.0000 0.09850  0.61000  0.29550  Biso   1.000  H
  H109     1.0000 0.07420  0.92800  0.83150  Biso   1.000  H
  H110     1.0000 0.92580  0.42800  0.66850  Biso   1.000  H
  H111     1.0000 0.92580  0.07200  0.16850  Biso   1.000  H
  H112     1.0000 0.07420  0.57200  0.33150  Biso   1.000  H
  C141     1.0000 0.17322  0.09300  0.82959  Biso   1.000  C
  C142     1.0000 0.82678  0.59300  0.67041  Biso   1.000  C
  C143     1.0000 0.82678  0.90700  0.17041  Biso   1.000  C
  C144     1.0000 0.17322  0.40700  0.32959  Biso   1.000  C
  H113     1.0000 0.20310  0.04600  0.86400  Biso   1.000  H
  H114     1.0000 0.79690  0.54600  0.63600  Biso   1.000  H
  H115     1.0000 0.79690  0.95400  0.13600  Biso   1.000  H
  H116     1.0000 0.20310  0.45400  0.36400  Biso   1.000  H
  H117     1.0000 0.18550  0.18000  0.83130  Biso   1.000  H
  H118     1.0000 0.81450  0.68000  0.66870  Biso   1.000  H
  H119     1.0000 0.81450  0.82000  0.16870  Biso   1.000  H
  H120     1.0000 0.18550  0.32000  0.33130  Biso   1.000  H
  H121     1.0000 0.16270  0.05300  0.78900  Biso   1.000  H
  H122     1.0000 0.83730  0.55300  0.71100  Biso   1.000  H
  H123     1.0000 0.83730  0.94700  0.21100  Biso   1.000  H
  H124     1.0000 0.16270  0.44700  0.28900  Biso   1.000  H
  C145     1.0000 0.07224  0.17860  0.77827  Biso   1.000  C
  C146     1.0000 0.92776  0.67860  0.72173  Biso   1.000  C
  C147     1.0000 0.92776  0.82140  0.22173  Biso   1.000  C
  C148     1.0000 0.07224  0.32140  0.27827  Biso   1.000  C
  C149     1.0000 0.02760  0.10510  0.71520  Biso   1.000  C
  C150     1.0000 0.97240  0.60510  0.78480  Biso   1.000  C
  C151     1.0000 0.97240  0.89490  0.28480  Biso   1.000  C
  C152     1.0000 0.02760  0.39490  0.21520  Biso   1.000  C
  H125     1.0000 0.99740  0.16500  0.68850  Biso   1.000  H
  H126     1.0000 0.00260  0.66500  0.81150  Biso   1.000  H
  H127     1.0000 0.00260  0.83500  0.31150  Biso   1.000  H
  H128     1.0000 0.99740  0.33500  0.18850  Biso   1.000  H
  H129     1.0000 0.01360  0.02300  0.72320  Biso   1.000  H
  H130     1.0000 0.98640  0.52300  0.77680  Biso   1.000  H
  H131     1.0000 0.98640  0.97700  0.27680  Biso   1.000  H
  H132     1.0000 0.01360  0.47700  0.22320  Biso   1.000  H
  H133     1.0000 0.04280  0.08000  0.69260  Biso   1.000  H
  H134     1.0000 0.95720  0.58000  0.80740  Biso   1.000  H
  H135     1.0000 0.95720  0.92000  0.30740  Biso   1.000  H
  H136     1.0000 0.04280  0.42000  0.19260  Biso   1.000  H
  C153     1.0000 0.08864  0.31530  0.76422  Biso   1.000  C
  C154     1.0000 0.91136  0.81530  0.73578  Biso   1.000  C
  C155     1.0000 0.91136  0.68470  0.23578  Biso   1.000  C
  C156     1.0000 0.08864  0.18470  0.26422  Biso   1.000  C
  H137     1.0000 0.05540  0.37500  0.73830  Biso   1.000  H
  H138     1.0000 0.94460  0.87500  0.76170  Biso   1.000  H
  H139     1.0000 0.94460  0.62500  0.26170  Biso   1.000  H
  H140     1.0000 0.05540  0.12500  0.23830  Biso   1.000  H
  H141     1.0000 0.10100  0.30000  0.74040  Biso   1.000  H
  H142     1.0000 0.89900  0.80000  0.75960  Biso   1.000  H
  H143     1.0000 0.89900  0.70000  0.25960  Biso   1.000  H
  H144     1.0000 0.10100  0.20000  0.24040  Biso   1.000  H
  H145     1.0000 0.11640  0.35900  0.80270  Biso   1.000  H
  H146     1.0000 0.88360  0.85900  0.69730  Biso   1.000  H
  H147     1.0000 0.88360  0.64100  0.19730  Biso   1.000  H
  H148     1.0000 0.11640  0.14100  0.30270  Biso   1.000  H
  N21      1.0000 0.05053  0.21640  0.81614  Biso   1.000  N
  N22      1.0000 0.94947  0.71640  0.68386  Biso   1.000  N
  N23      1.0000 0.94947  0.78360  0.18386  Biso   1.000  N
  N24      1.0000 0.05053  0.28360  0.31614  Biso   1.000  N
  O45      1.0000 0.00136  0.26260  0.78891  Biso   1.000  O
  O46      1.0000 0.99864  0.76260  0.71109  Biso   1.000  O
  O47      1.0000 0.99864  0.73740  0.21109  Biso   1.000  O
  O48      1.0000 0.00136  0.23740  0.28891  Biso   1.000  O
  C157     1.0000 0.09138  0.20980  0.88187  Biso   1.000  C
  C158     1.0000 0.90862  0.70980  0.61813  Biso   1.000  C
  C159     1.0000 0.90862  0.79020  0.11813  Biso   1.000  C
  C160     1.0000 0.09138  0.29020  0.38187  Biso   1.000  C
  C161     1.0000 0.08637  0.25280  0.93167  Biso   1.000  C
  C162     1.0000 0.91363  0.75280  0.56833  Biso   1.000  C
  C163     1.0000 0.91363  0.74720  0.06833  Biso   1.000  C
  C164     1.0000 0.08637  0.24720  0.43167  Biso   1.000  C
  C165     1.0000 0.04358  0.33110  0.92542  Biso   1.000  C
  C166     1.0000 0.95642  0.83110  0.57458  Biso   1.000  C
  C167     1.0000 0.95642  0.66890  0.07458  Biso   1.000  C
  C168     1.0000 0.04358  0.16890  0.42542  Biso   1.000  C
  H149     1.0000 0.01130  0.36500  0.88840  Biso   1.000  H
  H150     1.0000 0.98870  0.86500  0.61160  Biso   1.000  H
  H151     1.0000 0.98870  0.63500  0.11160  Biso   1.000  H
  H152     1.0000 0.01130  0.13500  0.38840  Biso   1.000  H
  N25      1.0000 0.05380  0.34910  0.98306  Biso   1.000  N
  N26      1.0000 0.94620  0.84910  0.51694  Biso   1.000  N
  N27      1.0000 0.94620  0.65090  0.01694  Biso   1.000  N
  N28      1.0000 0.05380  0.15090  0.48306  Biso   1.000  N
  N29      1.0000 0.10325  0.28120  0.02695  Biso   1.000  N
  N30      1.0000 0.89675  0.78120  0.47305  Biso   1.000  N
  N31      1.0000 0.89675  0.71880  0.97305  Biso   1.000  N
  N32      1.0000 0.10325  0.21880  0.52695  Biso   1.000  N
  C169     1.0000 0.12910  0.27500  0.09745  Biso   1.000  C
  C170     1.0000 0.87090  0.77500  0.40255  Biso   1.000  C
  C171     1.0000 0.87090  0.72500  0.90255  Biso   1.000  C
  C172     1.0000 0.12910  0.22500  0.59745  Biso   1.000  C
  H153     1.0000 0.13160  0.17800  0.10930  Biso   1.000  H
  H154     1.0000 0.86840  0.67800  0.39070  Biso   1.000  H
  H155     1.0000 0.86840  0.82200  0.89070  Biso   1.000  H
  H156     1.0000 0.13160  0.32200  0.60930  Biso   1.000  H
  H157     1.0000 0.10270  0.31600  0.10060  Biso   1.000  H
  H158     1.0000 0.89730  0.81600  0.39940  Biso   1.000  H
  H159     1.0000 0.89730  0.68400  0.89940  Biso   1.000  H
  H160     1.0000 0.10270  0.18400  0.60060  Biso   1.000  H
  C173     1.0000 0.18519  0.34730  0.13881  Biso   1.000  C
  C174     1.0000 0.81481  0.84730  0.36119  Biso   1.000  C
  C175     1.0000 0.81481  0.65270  0.86119  Biso   1.000  C
  C176     1.0000 0.18519  0.15270  0.63881  Biso   1.000  C
  H161     1.0000 0.20710  0.30900  0.12800  Biso   1.000  H
  H162     1.0000 0.79290  0.80900  0.37200  Biso   1.000  H
  H163     1.0000 0.79290  0.69100  0.87200  Biso   1.000  H
  H164     1.0000 0.20710  0.19100  0.62800  Biso   1.000  H
  H165     1.0000 0.18090  0.44500  0.12830  Biso   1.000  H
  H166     1.0000 0.81910  0.94500  0.37170  Biso   1.000  H
  H167     1.0000 0.81910  0.55500  0.87170  Biso   1.000  H
  H168     1.0000 0.18090  0.05500  0.62830  Biso   1.000  H
  C177     1.0000 0.21292  0.32830  0.21128  Biso   1.000  C
  C178     1.0000 0.78708  0.82830  0.28872  Biso   1.000  C
  C179     1.0000 0.78708  0.67170  0.78872  Biso   1.000  C
  C180     1.0000 0.21292  0.17170  0.71128  Biso   1.000  C
  H169     1.0000 0.24770  0.37600  0.23840  Biso   1.000  H
  H170     1.0000 0.75230  0.87600  0.26160  Biso   1.000  H
  H171     1.0000 0.75230  0.62400  0.76160  Biso   1.000  H
  H172     1.0000 0.24770  0.12400  0.73840  Biso   1.000  H
  H173     1.0000 0.21780  0.22700  0.22240  Biso   1.000  H
  H174     1.0000 0.78220  0.72700  0.27760  Biso   1.000  H
  H175     1.0000 0.78220  0.77300  0.77760  Biso   1.000  H
  H176     1.0000 0.21780  0.27300  0.72240  Biso   1.000  H
  H177     1.0000 0.18910  0.35800  0.22140  Biso   1.000  H
  H178     1.0000 0.81090  0.85800  0.27860  Biso   1.000  H
  H179     1.0000 0.81090  0.64200  0.77860  Biso   1.000  H
  H180     1.0000 0.18910  0.14200  0.72140  Biso   1.000  H
  C181     1.0000 0.12340  0.22350  0.99786  Biso   1.000  C
  C182     1.0000 0.87660  0.72350  0.50214  Biso   1.000  C
  C183     1.0000 0.87660  0.77650  0.00214  Biso   1.000  C
  C184     1.0000 0.12340  0.27650  0.49786  Biso   1.000  C
  H181     1.0000 0.15490  0.17500  0.02070  Biso   1.000  H
  H182     1.0000 0.84510  0.67500  0.47930  Biso   1.000  H
  H183     1.0000 0.84510  0.82500  0.97930  Biso   1.000  H
  H184     1.0000 0.15490  0.32500  0.52070  Biso   1.000  H
