data_image0
_cell_length_a       30.024
_cell_length_b       9.6599
_cell_length_c       25.5727
_cell_angle_alpha    90
_cell_angle_beta     127.055
_cell_angle_gamma    90

_symmetry_space_group_name_H-M    "P 1"
_symmetry_int_tables_number       1

loop_
  _symmetry_equiv_pos_as_xyz
  'x, y, z'

loop_
  _atom_site_label
  _atom_site_occupancy
  _atom_site_fract_x
  _atom_site_fract_y
  _atom_site_fract_z
  _atom_site_thermal_displace_type
  _atom_site_B_iso_or_equiv
  _atom_site_type_symbol
  Cu1      1.0000 0.00000  0.00000  0.00000  Biso   1.000  Cu
  Cu2      1.0000 0.00000  0.50000  0.50000  Biso   1.000  Cu
  O1       1.0000 0.94116  0.06410  0.91135  Biso   1.000  O
  O2       1.0000 0.05884  0.56410  0.58865  Biso   1.000  O
  O3       1.0000 0.05884  0.93590  0.08865  Biso   1.000  O
  O4       1.0000 0.94116  0.43590  0.41135  Biso   1.000  O
  C1       1.0000 0.86860  0.19510  0.82516  Biso   1.000  C
  C2       1.0000 0.13140  0.69510  0.67484  Biso   1.000  C
  C3       1.0000 0.13140  0.80490  0.17484  Biso   1.000  C
  C4       1.0000 0.86860  0.30490  0.32516  Biso   1.000  C
  F1       1.0000 0.83447  0.29860  0.81048  Biso   1.000  F
  F2       1.0000 0.16553  0.79860  0.68952  Biso   1.000  F
  F3       1.0000 0.16553  0.70140  0.18952  Biso   1.000  F
  F4       1.0000 0.83447  0.20140  0.31048  Biso   1.000  F
  F5       1.0000 0.83638  0.08350  0.79493  Biso   1.000  F
  F6       1.0000 0.16362  0.58350  0.70507  Biso   1.000  F
  F7       1.0000 0.16362  0.91650  0.20507  Biso   1.000  F
  F8       1.0000 0.83638  0.41650  0.29493  Biso   1.000  F
  F9       1.0000 0.89307  0.21700  0.79734  Biso   1.000  F
  F10      1.0000 0.10693  0.71700  0.70266  Biso   1.000  F
  F11      1.0000 0.10693  0.78300  0.20266  Biso   1.000  F
  F12      1.0000 0.89307  0.28300  0.29734  Biso   1.000  F
  C5       1.0000 0.91121  0.16930  0.89829  Biso   1.000  C
  C6       1.0000 0.08879  0.66930  0.60171  Biso   1.000  C
  C7       1.0000 0.08879  0.83070  0.10171  Biso   1.000  C
  C8       1.0000 0.91121  0.33070  0.39829  Biso   1.000  C
  C9       1.0000 0.91357  0.26080  0.94076  Biso   1.000  C
  C10      1.0000 0.08643  0.76080  0.55924  Biso   1.000  C
  C11      1.0000 0.08643  0.73920  0.05924  Biso   1.000  C
  C12      1.0000 0.91357  0.23920  0.44076  Biso   1.000  C
  H1       1.0000 0.89270  0.32400  0.92710  Biso   1.000  H
  H2       1.0000 0.10730  0.82400  0.57290  Biso   1.000  H
  H3       1.0000 0.10730  0.67600  0.07290  Biso   1.000  H
  H4       1.0000 0.89270  0.17600  0.42710  Biso   1.000  H
  C13      1.0000 0.95332  0.24960  0.00879  Biso   1.000  C
  C14      1.0000 0.04668  0.74960  0.49121  Biso   1.000  C
  C15      1.0000 0.04668  0.75040  0.99121  Biso   1.000  C
  C16      1.0000 0.95332  0.25040  0.50879  Biso   1.000  C
  C17      1.0000 0.95600  0.36870  0.04979  Biso   1.000  C
  C18      1.0000 0.04400  0.86870  0.45021  Biso   1.000  C
  C19      1.0000 0.04400  0.63130  0.95021  Biso   1.000  C
  C20      1.0000 0.95600  0.13130  0.54979  Biso   1.000  C
  F13      1.0000 0.90530  0.41084  0.02876  Biso   1.000  F
  F14      1.0000 0.09470  0.91084  0.47124  Biso   1.000  F
  F15      1.0000 0.09470  0.58916  0.97124  Biso   1.000  F
  F16      1.0000 0.90530  0.08916  0.52876  Biso   1.000  F
  F17      1.0000 0.98363  0.33720  0.11185  Biso   1.000  F
  F18      1.0000 0.01637  0.83720  0.38815  Biso   1.000  F
  F19      1.0000 0.01637  0.66280  0.88815  Biso   1.000  F
  F20      1.0000 0.98363  0.16280  0.61185  Biso   1.000  F
  F21      1.0000 0.98041  0.47830  0.04536  Biso   1.000  F
  F22      1.0000 0.01959  0.97830  0.45464  Biso   1.000  F
  F23      1.0000 0.01959  0.52170  0.95464  Biso   1.000  F
  F24      1.0000 0.98041  0.02170  0.54536  Biso   1.000  F
  O5       1.0000 0.98808  0.15590  0.04005  Biso   1.000  O
  O6       1.0000 0.01192  0.65590  0.45995  Biso   1.000  O
  O7       1.0000 0.01192  0.84410  0.95995  Biso   1.000  O
  O8       1.0000 0.98808  0.34410  0.54005  Biso   1.000  O
  Cu3      1.0000 0.25181  0.25599  0.99893  Biso   1.000  Cu
  Cu4      1.0000 0.74819  0.75599  0.50107  Biso   1.000  Cu
  Cu5      1.0000 0.74819  0.74401  0.00107  Biso   1.000  Cu
  Cu6      1.0000 0.25181  0.24401  0.49893  Biso   1.000  Cu
  O9       1.0000 0.24127  0.15010  0.91435  Biso   1.000  O
  O10      1.0000 0.75873  0.65010  0.58565  Biso   1.000  O
  O11      1.0000 0.75873  0.84990  0.08565  Biso   1.000  O
  O12      1.0000 0.24127  0.34990  0.41435  Biso   1.000  O
  C21      1.0000 0.23674  0.96460  0.85343  Biso   1.000  C
  C22      1.0000 0.76326  0.46460  0.64657  Biso   1.000  C
  C23      1.0000 0.76326  0.03540  0.14657  Biso   1.000  C
  C24      1.0000 0.23674  0.53540  0.35343  Biso   1.000  C
  F25      1.0000 0.21137  0.04130  0.79931  Biso   1.000  F
  F26      1.0000 0.78863  0.54130  0.70069  Biso   1.000  F
  F27      1.0000 0.78863  0.95870  0.20069  Biso   1.000  F
  F28      1.0000 0.21137  0.45870  0.29931  Biso   1.000  F
  F29      1.0000 0.21865  0.83670  0.83516  Biso   1.000  F
  F30      1.0000 0.78135  0.33670  0.66484  Biso   1.000  F
  F31      1.0000 0.78135  0.16330  0.16484  Biso   1.000  F
  F32      1.0000 0.21865  0.66330  0.33516  Biso   1.000  F
  F33      1.0000 0.29061  0.96470  0.87947  Biso   1.000  F
  F34      1.0000 0.70939  0.46470  0.62053  Biso   1.000  F
  F35      1.0000 0.70939  0.03530  0.12053  Biso   1.000  F
  F36      1.0000 0.29061  0.53530  0.37947  Biso   1.000  F
  C25      1.0000 0.22809  0.02740  0.90163  Biso   1.000  C
  C26      1.0000 0.77191  0.52740  0.59837  Biso   1.000  C
  C27      1.0000 0.77191  0.97260  0.09837  Biso   1.000  C
  C28      1.0000 0.22809  0.47260  0.40163  Biso   1.000  C
  C29      1.0000 0.20703  0.94130  0.92602  Biso   1.000  C
  C30      1.0000 0.79297  0.44130  0.57398  Biso   1.000  C
  C31      1.0000 0.79297  0.05870  0.07398  Biso   1.000  C
  C32      1.0000 0.20703  0.55870  0.42602  Biso   1.000  C
  H5       1.0000 0.19830  0.85300  0.91300  Biso   1.000  H
  H6       1.0000 0.80170  0.35300  0.58700  Biso   1.000  H
  H7       1.0000 0.80170  0.14700  0.08700  Biso   1.000  H
  H8       1.0000 0.19830  0.64700  0.41300  Biso   1.000  H
  C33      1.0000 0.19821  0.98610  0.97008  Biso   1.000  C
  C34      1.0000 0.80179  0.48610  0.52992  Biso   1.000  C
  C35      1.0000 0.80179  0.01390  0.02992  Biso   1.000  C
  C36      1.0000 0.19821  0.51390  0.47008  Biso   1.000  C
  C37      1.0000 0.17305  0.88500  0.99130  Biso   1.000  C
  C38      1.0000 0.82695  0.38500  0.50870  Biso   1.000  C
  C39      1.0000 0.82695  0.11500  0.00870  Biso   1.000  C
  C40      1.0000 0.17305  0.61500  0.49130  Biso   1.000  C
  F37      1.0000 0.18873  0.90850  0.05024  Biso   1.000  F
  F38      1.0000 0.81127  0.40850  0.44976  Biso   1.000  F
  F39      1.0000 0.81127  0.09150  0.94976  Biso   1.000  F
  F40      1.0000 0.18873  0.59150  0.55024  Biso   1.000  F
  F41      1.0000 0.11817  0.89610  0.95313  Biso   1.000  F
  F42      1.0000 0.88183  0.39610  0.54687  Biso   1.000  F
  F43      1.0000 0.88183  0.10390  0.04687  Biso   1.000  F
  F44      1.0000 0.11817  0.60390  0.45313  Biso   1.000  F
  F45      1.0000 0.18441  0.75494  0.98884  Biso   1.000  F
  F46      1.0000 0.81559  0.25494  0.51116  Biso   1.000  F
  F47      1.0000 0.81559  0.24506  0.01116  Biso   1.000  F
  F48      1.0000 0.18441  0.74506  0.48884  Biso   1.000  F
  O13      1.0000 0.20718  0.10390  0.99593  Biso   1.000  O
  O14      1.0000 0.79282  0.60390  0.50407  Biso   1.000  O
  O15      1.0000 0.79282  0.89610  0.00407  Biso   1.000  O
  O16      1.0000 0.20718  0.39610  0.49593  Biso   1.000  O
  O17      1.0000 0.29590  0.40660  0.99936  Biso   1.000  O
  O18      1.0000 0.70410  0.90660  0.50064  Biso   1.000  O
  O19      1.0000 0.70410  0.59340  0.00064  Biso   1.000  O
  O20      1.0000 0.29590  0.09340  0.49936  Biso   1.000  O
  C41      1.0000 0.32878  0.62490  0.00089  Biso   1.000  C
  C42      1.0000 0.67122  0.12490  0.49911  Biso   1.000  C
  C43      1.0000 0.67122  0.37510  0.99911  Biso   1.000  C
  C44      1.0000 0.32878  0.87510  0.50089  Biso   1.000  C
  F49      1.0000 0.37413  0.58560  0.01300  Biso   1.000  F
  F50      1.0000 0.62587  0.08560  0.48700  Biso   1.000  F
  F51      1.0000 0.62587  0.41440  0.98700  Biso   1.000  F
  F52      1.0000 0.37413  0.91440  0.51300  Biso   1.000  F
  F53      1.0000 0.29371  0.63400  0.93531  Biso   1.000  F
  F54      1.0000 0.70629  0.13400  0.56469  Biso   1.000  F
  F55      1.0000 0.70629  0.36600  0.06469  Biso   1.000  F
  F56      1.0000 0.29371  0.86600  0.43531  Biso   1.000  F
  F57      1.0000 0.33238  0.75360  0.01927  Biso   1.000  F
  F58      1.0000 0.66762  0.25360  0.48073  Biso   1.000  F
  F59      1.0000 0.66762  0.24640  0.98073  Biso   1.000  F
  F60      1.0000 0.33238  0.74640  0.51927  Biso   1.000  F
  C45      1.0000 0.30569  0.52470  0.02509  Biso   1.000  C
  C46      1.0000 0.69431  0.02470  0.47491  Biso   1.000  C
  C47      1.0000 0.69431  0.47530  0.97491  Biso   1.000  C
  C48      1.0000 0.30569  0.97530  0.52509  Biso   1.000  C
  C49      1.0000 0.29864  0.57120  0.07069  Biso   1.000  C
  C50      1.0000 0.70136  0.07120  0.42931  Biso   1.000  C
  C51      1.0000 0.70136  0.42880  0.92931  Biso   1.000  C
  C52      1.0000 0.29864  0.92880  0.57069  Biso   1.000  C
  H9       1.0000 0.30780  0.66400  0.08480  Biso   1.000  H
  H10      1.0000 0.69220  0.16400  0.41520  Biso   1.000  H
  H11      1.0000 0.69220  0.33600  0.91520  Biso   1.000  H
  H12      1.0000 0.30780  0.83600  0.58480  Biso   1.000  H
  C53      1.0000 0.27774  0.48730  0.09581  Biso   1.000  C
  C54      1.0000 0.72226  0.98730  0.40419  Biso   1.000  C
  C55      1.0000 0.72226  0.51270  0.90419  Biso   1.000  C
  C56      1.0000 0.27774  0.01270  0.59581  Biso   1.000  C
  C57      1.0000 0.26732  0.55430  0.14179  Biso   1.000  C
  C58      1.0000 0.73268  0.05430  0.35821  Biso   1.000  C
  C59      1.0000 0.73268  0.44570  0.85821  Biso   1.000  C
  C60      1.0000 0.26732  0.94570  0.64179  Biso   1.000  C
  F61      1.0000 0.28705  0.47780  0.19424  Biso   1.000  F
  F62      1.0000 0.71295  0.97780  0.30576  Biso   1.000  F
  F63      1.0000 0.71295  0.52220  0.80576  Biso   1.000  F
  F64      1.0000 0.28705  0.02220  0.69424  Biso   1.000  F
  F65      1.0000 0.28890  0.67920  0.16240  Biso   1.000  F
  F66      1.0000 0.71110  0.17920  0.33760  Biso   1.000  F
  F67      1.0000 0.71110  0.32080  0.83760  Biso   1.000  F
  F68      1.0000 0.28890  0.82080  0.66240  Biso   1.000  F
  F69      1.0000 0.21293  0.56650  0.11183  Biso   1.000  F
  F70      1.0000 0.78707  0.06650  0.38817  Biso   1.000  F
  F71      1.0000 0.78707  0.43350  0.88817  Biso   1.000  F
  F72      1.0000 0.21293  0.93350  0.61183  Biso   1.000  F
  O21      1.0000 0.26544  0.36350  0.08520  Biso   1.000  O
  O22      1.0000 0.73456  0.86350  0.41480  Biso   1.000  O
  O23      1.0000 0.73456  0.63650  0.91480  Biso   1.000  O
  O24      1.0000 0.26544  0.13650  0.58520  Biso   1.000  O
  Cu7      1.0000 0.50000  0.50000  0.00000  Biso   1.000  Cu
  Cu8      1.0000 0.50000  0.00000  0.50000  Biso   1.000  Cu
  O25      1.0000 0.43561  0.56670  0.91375  Biso   1.000  O
  O26      1.0000 0.56439  0.06670  0.58625  Biso   1.000  O
  O27      1.0000 0.56439  0.43330  0.08625  Biso   1.000  O
  O28      1.0000 0.43561  0.93330  0.41375  Biso   1.000  O
  C61      1.0000 0.37374  0.72330  0.83174  Biso   1.000  C
  C62      1.0000 0.62626  0.22330  0.66826  Biso   1.000  C
  C63      1.0000 0.62626  0.27670  0.16826  Biso   1.000  C
  C64      1.0000 0.37374  0.77670  0.33174  Biso   1.000  C
  F73      1.0000 0.35794  0.84940  0.82074  Biso   1.000  F
  F74      1.0000 0.64206  0.34940  0.67926  Biso   1.000  F
  F75      1.0000 0.64206  0.15060  0.17926  Biso   1.000  F
  F76      1.0000 0.35794  0.65060  0.32074  Biso   1.000  F
  F77      1.0000 0.39076  0.69410  0.79844  Biso   1.000  F
  F78      1.0000 0.60924  0.19410  0.70156  Biso   1.000  F
  F79      1.0000 0.60924  0.30590  0.20156  Biso   1.000  F
  F80      1.0000 0.39076  0.80590  0.29844  Biso   1.000  F
  F81      1.0000 0.32863  0.65350  0.80572  Biso   1.000  F
  F82      1.0000 0.67137  0.15350  0.69428  Biso   1.000  F
  F83      1.0000 0.67137  0.34650  0.19428  Biso   1.000  F
  F84      1.0000 0.32863  0.84650  0.30572  Biso   1.000  F
  C65      1.0000 0.41667  0.68740  0.90407  Biso   1.000  C
  C66      1.0000 0.58333  0.18740  0.59593  Biso   1.000  C
  C67      1.0000 0.58333  0.31260  0.09593  Biso   1.000  C
  C68      1.0000 0.41667  0.81260  0.40407  Biso   1.000  C
  C69      1.0000 0.43054  0.78850  0.94945  Biso   1.000  C
  C70      1.0000 0.56946  0.28850  0.55055  Biso   1.000  C
  C71      1.0000 0.56946  0.21150  0.05055  Biso   1.000  C
  C72      1.0000 0.43054  0.71150  0.44945  Biso   1.000  C
  H13      1.0000 0.41820  0.87100  0.93810  Biso   1.000  H
  H14      1.0000 0.58180  0.37100  0.56190  Biso   1.000  H
  H15      1.0000 0.58180  0.12900  0.06190  Biso   1.000  H
  H16      1.0000 0.41820  0.62900  0.43810  Biso   1.000  H
  C73      1.0000 0.46896  0.76570  0.01649  Biso   1.000  C
  C74      1.0000 0.53104  0.26570  0.48351  Biso   1.000  C
  C75      1.0000 0.53104  0.23430  0.98351  Biso   1.000  C
  C76      1.0000 0.46896  0.73430  0.51649  Biso   1.000  C
  C77      1.0000 0.48179  0.88650  0.06199  Biso   1.000  C
  C78      1.0000 0.51821  0.38650  0.43801  Biso   1.000  C
  C79      1.0000 0.51821  0.11350  0.93801  Biso   1.000  C
  C80      1.0000 0.48179  0.61350  0.56199  Biso   1.000  C
  F85      1.0000 0.45953  0.86930  0.09283  Biso   1.000  F
  F86      1.0000 0.54047  0.36930  0.40717  Biso   1.000  F
  F87      1.0000 0.54047  0.13070  0.90717  Biso   1.000  F
  F88      1.0000 0.45953  0.63070  0.59283  Biso   1.000  F
  F89      1.0000 0.53678  0.89860  0.10882  Biso   1.000  F
  F90      1.0000 0.46322  0.39860  0.39118  Biso   1.000  F
  F91      1.0000 0.46322  0.10140  0.89118  Biso   1.000  F
  F92      1.0000 0.53678  0.60140  0.60882  Biso   1.000  F
  F93      1.0000 0.46574  0.00760  0.03229  Biso   1.000  F
  F94      1.0000 0.53426  0.50760  0.46771  Biso   1.000  F
  F95      1.0000 0.53426  0.99240  0.96771  Biso   1.000  F
  F96      1.0000 0.46574  0.49240  0.53229  Biso   1.000  F
  O29      1.0000 0.49537  0.65750  0.04547  Biso   1.000  O
  O30      1.0000 0.50463  0.15750  0.45453  Biso   1.000  O
  O31      1.0000 0.50463  0.34250  0.95453  Biso   1.000  O
  O32      1.0000 0.49537  0.84250  0.54547  Biso   1.000  O
  O33      1.0000 0.18517  0.38850  0.95203  Biso   1.000  O
  O34      1.0000 0.81483  0.88850  0.54797  Biso   1.000  O
  O35      1.0000 0.81483  0.61150  0.04797  Biso   1.000  O
  O36      1.0000 0.18517  0.11150  0.45203  Biso   1.000  O
  N1       1.0000 0.13715  0.36290  0.89599  Biso   1.000  N
  N2       1.0000 0.86285  0.86290  0.60401  Biso   1.000  N
  N3       1.0000 0.86285  0.63710  0.10401  Biso   1.000  N
  N4       1.0000 0.13715  0.13710  0.39599  Biso   1.000  N
  C81      1.0000 0.12121  0.42600  0.83346  Biso   1.000  C
  C82      1.0000 0.87879  0.92600  0.66654  Biso   1.000  C
  C83      1.0000 0.87879  0.57400  0.16654  Biso   1.000  C
  C84      1.0000 0.12121  0.07400  0.33346  Biso   1.000  C
  C85      1.0000 0.10781  0.57720  0.83561  Biso   1.000  C
  C86      1.0000 0.89219  0.07720  0.66439  Biso   1.000  C
  C87      1.0000 0.89219  0.42280  0.16439  Biso   1.000  C
  C88      1.0000 0.10781  0.92280  0.33561  Biso   1.000  C
  H17      1.0000 0.07710  0.59300  0.83780  Biso   1.000  H
  H18      1.0000 0.92290  0.09300  0.66220  Biso   1.000  H
  H19      1.0000 0.92290  0.40700  0.16220  Biso   1.000  H
  H20      1.0000 0.07710  0.90700  0.33780  Biso   1.000  H
  H21      1.0000 0.09770  0.62400  0.79740  Biso   1.000  H
  H22      1.0000 0.90230  0.12400  0.70260  Biso   1.000  H
  H23      1.0000 0.90230  0.37600  0.20260  Biso   1.000  H
  H24      1.0000 0.09770  0.87600  0.29740  Biso   1.000  H
  H25      1.0000 0.13880  0.61500  0.87490  Biso   1.000  H
  H26      1.0000 0.86120  0.11500  0.62510  Biso   1.000  H
  H27      1.0000 0.86120  0.38500  0.12510  Biso   1.000  H
  H28      1.0000 0.13880  0.88500  0.37490  Biso   1.000  H
  C89      1.0000 0.16890  0.41410  0.82826  Biso   1.000  C
  C90      1.0000 0.83110  0.91410  0.67174  Biso   1.000  C
  C91      1.0000 0.83110  0.58590  0.17174  Biso   1.000  C
  C92      1.0000 0.16890  0.08590  0.32826  Biso   1.000  C
  H29      1.0000 0.18090  0.32200  0.83590  Biso   1.000  H
  H30      1.0000 0.81910  0.82200  0.66410  Biso   1.000  H
  H31      1.0000 0.81910  0.67800  0.16410  Biso   1.000  H
  H32      1.0000 0.18090  0.17800  0.33590  Biso   1.000  H
  H33      1.0000 0.19780  0.47300  0.85720  Biso   1.000  H
  H34      1.0000 0.80220  0.97300  0.64280  Biso   1.000  H
  H35      1.0000 0.80220  0.52700  0.14280  Biso   1.000  H
  H36      1.0000 0.19780  0.02700  0.35720  Biso   1.000  H
  H37      1.0000 0.15720  0.45100  0.78850  Biso   1.000  H
  H38      1.0000 0.84280  0.95100  0.71150  Biso   1.000  H
  H39      1.0000 0.84280  0.54900  0.21150  Biso   1.000  H
  H40      1.0000 0.15720  0.04900  0.28850  Biso   1.000  H
  C93      1.0000 0.06890  0.33700  0.78345  Biso   1.000  C
  C94      1.0000 0.93110  0.83700  0.71655  Biso   1.000  C
  C95      1.0000 0.93110  0.66300  0.21655  Biso   1.000  C
  C96      1.0000 0.06890  0.16300  0.28345  Biso   1.000  C
  C97      1.0000 0.02308  0.41100  0.72126  Biso   1.000  C
  C98      1.0000 0.97692  0.91100  0.77874  Biso   1.000  C
  C99      1.0000 0.97692  0.58900  0.27874  Biso   1.000  C
  C100     1.0000 0.02308  0.08900  0.22126  Biso   1.000  C
  H41      1.0000 0.01040  0.48600  0.73230  Biso   1.000  H
  H42      1.0000 0.98960  0.98600  0.76770  Biso   1.000  H
  H43      1.0000 0.98960  0.51400  0.26770  Biso   1.000  H
  H44      1.0000 0.01040  0.01400  0.23230  Biso   1.000  H
  H45      1.0000 0.98890  0.34600  0.69210  Biso   1.000  H
  H46      1.0000 0.01110  0.84600  0.80790  Biso   1.000  H
  H47      1.0000 0.01110  0.65400  0.30790  Biso   1.000  H
  H48      1.0000 0.98890  0.15400  0.19210  Biso   1.000  H
  H49      1.0000 0.03400  0.42600  0.69420  Biso   1.000  H
  H50      1.0000 0.96600  0.92600  0.80580  Biso   1.000  H
  H51      1.0000 0.96600  0.57400  0.30580  Biso   1.000  H
  H52      1.0000 0.03400  0.07400  0.19420  Biso   1.000  H
  C101     1.0000 0.08309  0.19870  0.76788  Biso   1.000  C
  C102     1.0000 0.91691  0.69870  0.73212  Biso   1.000  C
  C103     1.0000 0.91691  0.80130  0.23212  Biso   1.000  C
  C104     1.0000 0.08309  0.30130  0.26788  Biso   1.000  C
  H53      1.0000 0.11240  0.15900  0.80900  Biso   1.000  H
  H54      1.0000 0.88760  0.65900  0.69100  Biso   1.000  H
  H55      1.0000 0.88760  0.84100  0.19100  Biso   1.000  H
  H56      1.0000 0.11240  0.34100  0.30900  Biso   1.000  H
  H57      1.0000 0.09310  0.21800  0.74210  Biso   1.000  H
  H58      1.0000 0.90690  0.71800  0.75790  Biso   1.000  H
  H59      1.0000 0.90690  0.78200  0.25790  Biso   1.000  H
  H60      1.0000 0.09310  0.28200  0.24210  Biso   1.000  H
  H61      1.0000 0.05000  0.14100  0.74310  Biso   1.000  H
  H62      1.0000 0.95000  0.64100  0.75690  Biso   1.000  H
  H63      1.0000 0.95000  0.85900  0.25690  Biso   1.000  H
  H64      1.0000 0.05000  0.35900  0.24310  Biso   1.000  H
  N5       1.0000 0.05025  0.30260  0.82459  Biso   1.000  N
  N6       1.0000 0.94975  0.80260  0.67541  Biso   1.000  N
  N7       1.0000 0.94975  0.69740  0.17541  Biso   1.000  N
  N8       1.0000 0.05025  0.19740  0.32459  Biso   1.000  N
  O37      1.0000 0.00129  0.25820  0.80038  Biso   1.000  O
  O38      1.0000 0.99871  0.75820  0.69962  Biso   1.000  O
  O39      1.0000 0.99871  0.74180  0.19962  Biso   1.000  O
  O40      1.0000 0.00129  0.24180  0.30038  Biso   1.000  O
  C105     1.0000 0.09313  0.30710  0.88931  Biso   1.000  C
  C106     1.0000 0.90687  0.80710  0.61069  Biso   1.000  C
  C107     1.0000 0.90687  0.69290  0.11069  Biso   1.000  C
  C108     1.0000 0.09313  0.19290  0.38931  Biso   1.000  C
  C109     1.0000 0.09171  0.25650  0.94127  Biso   1.000  C
  C110     1.0000 0.90829  0.75650  0.55873  Biso   1.000  C
  C111     1.0000 0.90829  0.74350  0.05873  Biso   1.000  C
  C112     1.0000 0.09171  0.24350  0.44127  Biso   1.000  C
  C113     1.0000 0.04976  0.17930  0.93613  Biso   1.000  C
  C114     1.0000 0.95024  0.67930  0.56387  Biso   1.000  C
  C115     1.0000 0.95024  0.82070  0.06387  Biso   1.000  C
  C116     1.0000 0.04976  0.32070  0.43613  Biso   1.000  C
  H65      1.0000 0.01570  0.15200  0.89940  Biso   1.000  H
  H66      1.0000 0.98430  0.65200  0.60060  Biso   1.000  H
  H67      1.0000 0.98430  0.84800  0.10060  Biso   1.000  H
  H68      1.0000 0.01570  0.34800  0.39940  Biso   1.000  H
  N9       1.0000 0.06447  0.14270  0.99453  Biso   1.000  N
  N10      1.0000 0.93553  0.64270  0.50547  Biso   1.000  N
  N11      1.0000 0.93553  0.85730  0.00547  Biso   1.000  N
  N12      1.0000 0.06447  0.35730  0.49453  Biso   1.000  N
  N13      1.0000 0.11665  0.19790  0.03778  Biso   1.000  N
  N14      1.0000 0.88335  0.69790  0.46222  Biso   1.000  N
  N15      1.0000 0.88335  0.80210  0.96222  Biso   1.000  N
  N16      1.0000 0.11665  0.30210  0.53778  Biso   1.000  N
  C117     1.0000 0.14940  0.17090  0.10823  Biso   1.000  C
  C118     1.0000 0.85060  0.67090  0.39177  Biso   1.000  C
  C119     1.0000 0.85060  0.82910  0.89177  Biso   1.000  C
  C120     1.0000 0.14940  0.32910  0.60823  Biso   1.000  C
  H69      1.0000 0.18160  0.21200  0.12290  Biso   1.000  H
  H70      1.0000 0.81840  0.71200  0.37710  Biso   1.000  H
  H71      1.0000 0.81840  0.78800  0.87710  Biso   1.000  H
  H72      1.0000 0.18160  0.28800  0.62290  Biso   1.000  H
  H73      1.0000 0.15180  0.07000  0.11250  Biso   1.000  H
  H74      1.0000 0.84820  0.57000  0.38750  Biso   1.000  H
  H75      1.0000 0.84820  0.93000  0.88750  Biso   1.000  H
  H76      1.0000 0.15180  0.43000  0.61250  Biso   1.000  H
  C121     1.0000 0.12610  0.23560  0.14054  Biso   1.000  C
  C122     1.0000 0.87390  0.73560  0.35946  Biso   1.000  C
  C123     1.0000 0.87390  0.76440  0.85946  Biso   1.000  C
  C124     1.0000 0.12610  0.26440  0.64054  Biso   1.000  C
  H77      1.0000 0.15230  0.21000  0.18790  Biso   1.000  H
  H78      1.0000 0.84770  0.71000  0.31210  Biso   1.000  H
  H79      1.0000 0.84770  0.79000  0.81210  Biso   1.000  H
  H80      1.0000 0.15230  0.29000  0.68790  Biso   1.000  H
  H81      1.0000 0.09360  0.19400  0.12670  Biso   1.000  H
  H82      1.0000 0.90640  0.69400  0.37330  Biso   1.000  H
  H83      1.0000 0.90640  0.80600  0.87330  Biso   1.000  H
  H84      1.0000 0.09360  0.30600  0.62670  Biso   1.000  H
  C125     1.0000 0.12031  0.38980  0.13279  Biso   1.000  C
  C126     1.0000 0.87969  0.88980  0.36721  Biso   1.000  C
  C127     1.0000 0.87969  0.61020  0.86721  Biso   1.000  C
  C128     1.0000 0.12031  0.11020  0.63279  Biso   1.000  C
  H85      1.0000 0.10740  0.43100  0.15440  Biso   1.000  H
  H86      1.0000 0.89260  0.93100  0.34560  Biso   1.000  H
  H87      1.0000 0.89260  0.56900  0.84560  Biso   1.000  H
  H88      1.0000 0.10740  0.06900  0.65440  Biso   1.000  H
  H89      1.0000 0.09490  0.41800  0.08760  Biso   1.000  H
  H90      1.0000 0.90510  0.91800  0.41240  Biso   1.000  H
  H91      1.0000 0.90510  0.58200  0.91240  Biso   1.000  H
  H92      1.0000 0.09490  0.08200  0.58760  Biso   1.000  H
  H93      1.0000 0.15590  0.43500  0.15120  Biso   1.000  H
  H94      1.0000 0.84410  0.93500  0.34880  Biso   1.000  H
  H95      1.0000 0.84410  0.56500  0.84880  Biso   1.000  H
  H96      1.0000 0.15590  0.06500  0.65120  Biso   1.000  H
  C129     1.0000 0.13352  0.26610  0.00747  Biso   1.000  C
  C130     1.0000 0.86648  0.76610  0.49253  Biso   1.000  C
  C131     1.0000 0.86648  0.73390  0.99253  Biso   1.000  C
  C132     1.0000 0.13352  0.23390  0.50747  Biso   1.000  C
  H97      1.0000 0.16520  0.30800  0.02990  Biso   1.000  H
  H98      1.0000 0.83480  0.80800  0.47010  Biso   1.000  H
  H99      1.0000 0.83480  0.69200  0.97010  Biso   1.000  H
  H100     1.0000 0.16520  0.19200  0.52990  Biso   1.000  H
  O41      1.0000 0.31767  0.12210  0.05035  Biso   1.000  O
  O42      1.0000 0.68233  0.62210  0.44965  Biso   1.000  O
  O43      1.0000 0.68233  0.87790  0.94965  Biso   1.000  O
  O44      1.0000 0.31767  0.37790  0.55035  Biso   1.000  O
  N17      1.0000 0.36384  0.15090  0.10790  Biso   1.000  N
  N18      1.0000 0.63616  0.65090  0.39210  Biso   1.000  N
  N19      1.0000 0.63616  0.84910  0.89210  Biso   1.000  N
  N20      1.0000 0.36384  0.34910  0.60790  Biso   1.000  N
  C133     1.0000 0.37738  0.08680  0.16919  Biso   1.000  C
  C134     1.0000 0.62262  0.58680  0.33081  Biso   1.000  C
  C135     1.0000 0.62262  0.91320  0.83081  Biso   1.000  C
  C136     1.0000 0.37738  0.41320  0.66919  Biso   1.000  C
  C137     1.0000 0.39252  0.93640  0.16807  Biso   1.000  C
  C138     1.0000 0.60748  0.43640  0.33193  Biso   1.000  C
  C139     1.0000 0.60748  0.06360  0.83193  Biso   1.000  C
  C140     1.0000 0.39252  0.56360  0.66807  Biso   1.000  C
  H101     1.0000 0.42450  0.92200  0.16710  Biso   1.000  H
  H102     1.0000 0.57550  0.42200  0.33290  Biso   1.000  H
  H103     1.0000 0.57550  0.07800  0.83290  Biso   1.000  H
  H104     1.0000 0.42450  0.57800  0.66710  Biso   1.000  H
  H105     1.0000 0.36350  0.89800  0.12790  Biso   1.000  H
  H106     1.0000 0.63650  0.39800  0.37210  Biso   1.000  H
  H107     1.0000 0.63650  0.10200  0.87210  Biso   1.000  H
  H108     1.0000 0.36350  0.60200  0.62790  Biso   1.000  H
  H109     1.0000 0.40220  0.88700  0.20670  Biso   1.000  H
  H110     1.0000 0.59780  0.38700  0.29330  Biso   1.000  H
  H111     1.0000 0.59780  0.11300  0.79330  Biso   1.000  H
  H112     1.0000 0.40220  0.61300  0.70670  Biso   1.000  H
  C141     1.0000 0.32768  0.09210  0.17042  Biso   1.000  C
  C142     1.0000 0.67232  0.59210  0.32958  Biso   1.000  C
  C143     1.0000 0.67232  0.90790  0.82958  Biso   1.000  C
  C144     1.0000 0.32768  0.40790  0.67042  Biso   1.000  C
  H113     1.0000 0.31610  0.17800  0.16610  Biso   1.000  H
  H114     1.0000 0.68390  0.67800  0.33390  Biso   1.000  H
  H115     1.0000 0.68390  0.82200  0.83390  Biso   1.000  H
  H116     1.0000 0.31610  0.32200  0.66610  Biso   1.000  H
  H117     1.0000 0.33740  0.05300  0.20850  Biso   1.000  H
  H118     1.0000 0.66260  0.55300  0.29150  Biso   1.000  H
  H119     1.0000 0.66260  0.94700  0.79150  Biso   1.000  H
  H120     1.0000 0.33740  0.44700  0.70850  Biso   1.000  H
  H121     1.0000 0.29940  0.04000  0.13900  Biso   1.000  H
  H122     1.0000 0.70060  0.54000  0.36100  Biso   1.000  H
  H123     1.0000 0.70060  0.96000  0.86100  Biso   1.000  H
  H124     1.0000 0.29940  0.46000  0.63900  Biso   1.000  H
  C145     1.0000 0.42776  0.17760  0.22097  Biso   1.000  C
  C146     1.0000 0.57224  0.67760  0.27903  Biso   1.000  C
  C147     1.0000 0.57224  0.82240  0.77903  Biso   1.000  C
  C148     1.0000 0.42776  0.32240  0.72097  Biso   1.000  C
  C149     1.0000 0.41127  0.31440  0.23493  Biso   1.000  C
  C150     1.0000 0.58873  0.81440  0.26507  Biso   1.000  C
  C151     1.0000 0.58873  0.68560  0.76507  Biso   1.000  C
  C152     1.0000 0.41127  0.18560  0.73493  Biso   1.000  C
  H125     1.0000 0.38110  0.35400  0.19300  Biso   1.000  H
  H126     1.0000 0.61890  0.85400  0.30700  Biso   1.000  H
  H127     1.0000 0.61890  0.64600  0.80700  Biso   1.000  H
  H128     1.0000 0.38110  0.14600  0.69300  Biso   1.000  H
  H129     1.0000 0.44260  0.36900  0.26020  Biso   1.000  H
  H130     1.0000 0.55740  0.86900  0.23980  Biso   1.000  H
  H131     1.0000 0.55740  0.63100  0.73980  Biso   1.000  H
  H132     1.0000 0.44260  0.13100  0.76020  Biso   1.000  H
  H133     1.0000 0.39850  0.29700  0.25870  Biso   1.000  H
  H134     1.0000 0.60150  0.79700  0.24130  Biso   1.000  H
  H135     1.0000 0.60150  0.70300  0.74130  Biso   1.000  H
  H136     1.0000 0.39850  0.20300  0.75870  Biso   1.000  H
  C153     1.0000 0.47274  0.10450  0.28414  Biso   1.000  C
  C154     1.0000 0.52726  0.60450  0.21586  Biso   1.000  C
  C155     1.0000 0.52726  0.89550  0.71586  Biso   1.000  C
  C156     1.0000 0.47274  0.39550  0.78414  Biso   1.000  C
  H137     1.0000 0.48960  0.03600  0.27650  Biso   1.000  H
  H138     1.0000 0.51040  0.53600  0.22350  Biso   1.000  H
  H139     1.0000 0.51040  0.96400  0.72350  Biso   1.000  H
  H140     1.0000 0.48960  0.46400  0.77650  Biso   1.000  H
  H141     1.0000 0.46030  0.08500  0.30920  Biso   1.000  H
  H142     1.0000 0.53970  0.58500  0.19080  Biso   1.000  H
  H143     1.0000 0.53970  0.91500  0.69080  Biso   1.000  H
  H144     1.0000 0.46030  0.41500  0.80920  Biso   1.000  H
  H145     1.0000 0.50530  0.16700  0.31210  Biso   1.000  H
  H146     1.0000 0.49470  0.66700  0.18790  Biso   1.000  H
  H147     1.0000 0.49470  0.83300  0.68790  Biso   1.000  H
  H148     1.0000 0.50530  0.33300  0.81210  Biso   1.000  H
  N21      1.0000 0.44923  0.21540  0.18294  Biso   1.000  N
  N22      1.0000 0.55077  0.71540  0.31706  Biso   1.000  N
  N23      1.0000 0.55077  0.78460  0.81706  Biso   1.000  N
  N24      1.0000 0.44923  0.28460  0.68294  Biso   1.000  N
  O45      1.0000 0.49857  0.26240  0.21008  Biso   1.000  O
  O46      1.0000 0.50143  0.76240  0.28992  Biso   1.000  O
  O47      1.0000 0.50143  0.73760  0.78992  Biso   1.000  O
  O48      1.0000 0.49857  0.23760  0.71008  Biso   1.000  O
  C157     1.0000 0.40888  0.20890  0.11782  Biso   1.000  C
  C158     1.0000 0.59112  0.70890  0.38218  Biso   1.000  C
  C159     1.0000 0.59112  0.79110  0.88218  Biso   1.000  C
  C160     1.0000 0.40888  0.29110  0.61782  Biso   1.000  C
  C161     1.0000 0.41376  0.25300  0.06772  Biso   1.000  C
  C162     1.0000 0.58624  0.75300  0.43228  Biso   1.000  C
  C163     1.0000 0.58624  0.74700  0.93228  Biso   1.000  C
  C164     1.0000 0.41376  0.24700  0.56772  Biso   1.000  C
  C165     1.0000 0.45562  0.33150  0.07378  Biso   1.000  C
  C166     1.0000 0.54438  0.83150  0.42622  Biso   1.000  C
  C167     1.0000 0.54438  0.66850  0.92622  Biso   1.000  C
  C168     1.0000 0.45562  0.16850  0.57378  Biso   1.000  C
  H149     1.0000 0.48660  0.36800  0.10760  Biso   1.000  H
  H150     1.0000 0.51340  0.86800  0.39240  Biso   1.000  H
  H151     1.0000 0.51340  0.63200  0.89240  Biso   1.000  H
  H152     1.0000 0.48660  0.13200  0.60760  Biso   1.000  H
  N25      1.0000 0.44569  0.35020  0.01638  Biso   1.000  N
  N26      1.0000 0.55431  0.85020  0.48362  Biso   1.000  N
  N27      1.0000 0.55431  0.64980  0.98362  Biso   1.000  N
  N28      1.0000 0.44569  0.14980  0.51638  Biso   1.000  N
  N29      1.0000 0.39663  0.28180  0.97275  Biso   1.000  N
  N30      1.0000 0.60337  0.78180  0.52725  Biso   1.000  N
  N31      1.0000 0.60337  0.71820  0.02725  Biso   1.000  N
  N32      1.0000 0.39663  0.21820  0.47275  Biso   1.000  N
  C169     1.0000 0.37076  0.27590  0.90235  Biso   1.000  C
  C170     1.0000 0.62924  0.77590  0.59765  Biso   1.000  C
  C171     1.0000 0.62924  0.72410  0.09765  Biso   1.000  C
  C172     1.0000 0.37076  0.22410  0.40235  Biso   1.000  C
  H153     1.0000 0.39390  0.31800  0.89780  Biso   1.000  H
  H154     1.0000 0.60610  0.81800  0.60220  Biso   1.000  H
  H155     1.0000 0.60610  0.68200  0.10220  Biso   1.000  H
  H156     1.0000 0.39390  0.18200  0.39780  Biso   1.000  H
  H157     1.0000 0.36770  0.17900  0.89000  Biso   1.000  H
  H158     1.0000 0.63230  0.67900  0.61000  Biso   1.000  H
  H159     1.0000 0.63230  0.82100  0.11000  Biso   1.000  H
  H160     1.0000 0.36770  0.32100  0.39000  Biso   1.000  H
  C173     1.0000 0.31508  0.34770  0.86124  Biso   1.000  C
  C174     1.0000 0.68492  0.84770  0.63876  Biso   1.000  C
  C175     1.0000 0.68492  0.65230  0.13876  Biso   1.000  C
  C176     1.0000 0.31508  0.15230  0.36124  Biso   1.000  C
  H161     1.0000 0.32120  0.43900  0.87350  Biso   1.000  H
  H162     1.0000 0.67880  0.93900  0.62650  Biso   1.000  H
  H163     1.0000 0.67880  0.56100  0.12650  Biso   1.000  H
  H164     1.0000 0.32120  0.06100  0.37350  Biso   1.000  H
  H165     1.0000 0.29080  0.31100  0.87000  Biso   1.000  H
  H166     1.0000 0.70920  0.81100  0.63000  Biso   1.000  H
  H167     1.0000 0.70920  0.68900  0.13000  Biso   1.000  H
  H168     1.0000 0.29080  0.18900  0.37000  Biso   1.000  H
  C177     1.0000 0.28760  0.32750  0.78908  Biso   1.000  C
  C178     1.0000 0.71240  0.82750  0.71092  Biso   1.000  C
  C179     1.0000 0.71240  0.67250  0.21092  Biso   1.000  C
  C180     1.0000 0.28760  0.17250  0.28908  Biso   1.000  C
  H169     1.0000 0.25580  0.37900  0.76600  Biso   1.000  H
  H170     1.0000 0.74420  0.87900  0.73400  Biso   1.000  H
  H171     1.0000 0.74420  0.62100  0.23400  Biso   1.000  H
  H172     1.0000 0.25580  0.12100  0.26600  Biso   1.000  H
  H173     1.0000 0.28420  0.23200  0.77910  Biso   1.000  H
  H174     1.0000 0.71580  0.73200  0.72090  Biso   1.000  H
  H175     1.0000 0.71580  0.76800  0.22090  Biso   1.000  H
  H176     1.0000 0.28420  0.26800  0.27910  Biso   1.000  H
  H177     1.0000 0.31320  0.35500  0.77790  Biso   1.000  H
  H178     1.0000 0.68680  0.85500  0.72210  Biso   1.000  H
  H179     1.0000 0.68680  0.64500  0.22210  Biso   1.000  H
  H180     1.0000 0.31320  0.14500  0.27790  Biso   1.000  H
  C181     1.0000 0.37670  0.22350  0.00170  Biso   1.000  C
  C182     1.0000 0.62330  0.72350  0.49830  Biso   1.000  C
  C183     1.0000 0.62330  0.77650  0.99830  Biso   1.000  C
  C184     1.0000 0.37670  0.27650  0.50170  Biso   1.000  C
  H181     1.0000 0.34490  0.16800  0.97860  Biso   1.000  H
  H182     1.0000 0.65510  0.66800  0.52140  Biso   1.000  H
  H183     1.0000 0.65510  0.83200  0.02140  Biso   1.000  H
  H184     1.0000 0.34490  0.33200  0.47860  Biso   1.000  H
