data_image0
_cell_length_a       30.401
_cell_length_b       9.6628
_cell_length_c       25.7577
_cell_angle_alpha    90
_cell_angle_beta     126.323
_cell_angle_gamma    90

_symmetry_space_group_name_H-M    "P 1"
_symmetry_int_tables_number       1

loop_
  _symmetry_equiv_pos_as_xyz
  'x, y, z'

loop_
  _atom_site_label
  _atom_site_occupancy
  _atom_site_fract_x
  _atom_site_fract_y
  _atom_site_fract_z
  _atom_site_thermal_displace_type
  _atom_site_B_iso_or_equiv
  _atom_site_type_symbol
  Cu1      1.0000 0.00000  0.00000  0.00000  Biso   1.000  Cu
  Cu2      1.0000 0.00000  0.50000  0.50000  Biso   1.000  Cu
  O1       1.0000 0.94188  0.06452  0.91343  Biso   1.000  O
  O2       1.0000 0.05812  0.56452  0.58657  Biso   1.000  O
  O3       1.0000 0.05812  0.93548  0.08657  Biso   1.000  O
  O4       1.0000 0.94188  0.43548  0.41343  Biso   1.000  O
  C1       1.0000 0.87121  0.19690  0.82859  Biso   1.000  C
  C2       1.0000 0.12879  0.69690  0.67141  Biso   1.000  C
  C3       1.0000 0.12879  0.80310  0.17141  Biso   1.000  C
  C4       1.0000 0.87121  0.30310  0.32859  Biso   1.000  C
  F1       1.0000 0.84360  0.30710  0.81460  Biso   1.000  F
  F2       1.0000 0.15640  0.80710  0.68540  Biso   1.000  F
  F3       1.0000 0.15640  0.69290  0.18540  Biso   1.000  F
  F4       1.0000 0.84360  0.19290  0.31460  Biso   1.000  F
  F5       1.0000 0.83552  0.09880  0.80240  Biso   1.000  F
  F6       1.0000 0.16448  0.59880  0.69760  Biso   1.000  F
  F7       1.0000 0.16448  0.90120  0.19760  Biso   1.000  F
  F8       1.0000 0.83552  0.40120  0.30240  Biso   1.000  F
  F9       1.0000 0.89367  0.19910  0.79767  Biso   1.000  F
  F10      1.0000 0.10633  0.69910  0.70233  Biso   1.000  F
  F11      1.0000 0.10633  0.80090  0.20233  Biso   1.000  F
  F12      1.0000 0.89367  0.30090  0.29767  Biso   1.000  F
  C5       1.0000 0.91429  0.17200  0.90124  Biso   1.000  C
  C6       1.0000 0.08571  0.67200  0.59876  Biso   1.000  C
  C7       1.0000 0.08571  0.82800  0.09876  Biso   1.000  C
  C8       1.0000 0.91429  0.32800  0.40124  Biso   1.000  C
  C9       1.0000 0.91744  0.26490  0.94328  Biso   1.000  C
  C10      1.0000 0.08256  0.76490  0.55672  Biso   1.000  C
  C11      1.0000 0.08256  0.73510  0.05672  Biso   1.000  C
  C12      1.0000 0.91744  0.23510  0.44328  Biso   1.000  C
  H1       1.0000 0.89630  0.33500  0.92830  Biso   1.000  H
  H2       1.0000 0.10370  0.83500  0.57170  Biso   1.000  H
  H3       1.0000 0.10370  0.66500  0.07170  Biso   1.000  H
  H4       1.0000 0.89630  0.16500  0.42830  Biso   1.000  H
  C13      1.0000 0.95594  0.25200  0.00981  Biso   1.000  C
  C14      1.0000 0.04406  0.75200  0.49019  Biso   1.000  C
  C15      1.0000 0.04406  0.74800  0.99019  Biso   1.000  C
  C16      1.0000 0.95594  0.24800  0.50981  Biso   1.000  C
  C17      1.0000 0.95854  0.36860  0.05056  Biso   1.000  C
  C18      1.0000 0.04146  0.86860  0.44944  Biso   1.000  C
  C19      1.0000 0.04146  0.63140  0.94944  Biso   1.000  C
  C20      1.0000 0.95854  0.13140  0.55056  Biso   1.000  C
  F13      1.0000 0.90801  0.40910  0.03152  Biso   1.000  F
  F14      1.0000 0.09199  0.90910  0.46848  Biso   1.000  F
  F15      1.0000 0.09199  0.59090  0.96848  Biso   1.000  F
  F16      1.0000 0.90801  0.09090  0.53152  Biso   1.000  F
  F17      1.0000 0.98169  0.32960  0.11406  Biso   1.000  F
  F18      1.0000 0.01831  0.82960  0.38594  Biso   1.000  F
  F19      1.0000 0.01831  0.67040  0.88594  Biso   1.000  F
  F20      1.0000 0.98169  0.17040  0.61406  Biso   1.000  F
  F21      1.0000 0.97720  0.48400  0.04160  Biso   1.000  F
  F22      1.0000 0.02280  0.98400  0.45840  Biso   1.000  F
  F23      1.0000 0.02280  0.51600  0.95840  Biso   1.000  F
  F24      1.0000 0.97720  0.01600  0.54160  Biso   1.000  F
  O5       1.0000 0.98938  0.15659  0.04010  Biso   1.000  O
  O6       1.0000 0.01062  0.65659  0.45990  Biso   1.000  O
  O7       1.0000 0.01062  0.84341  0.95990  Biso   1.000  O
  O8       1.0000 0.98938  0.34341  0.54010  Biso   1.000  O
  Cu3      1.0000 0.25179  0.25266  0.99871  Biso   1.000  Cu
  Cu4      1.0000 0.74821  0.75266  0.50129  Biso   1.000  Cu
  Cu5      1.0000 0.74821  0.74734  0.00129  Biso   1.000  Cu
  Cu6      1.0000 0.25179  0.24734  0.49871  Biso   1.000  Cu
  O9       1.0000 0.24225  0.15260  0.92030  Biso   1.000  O
  O10      1.0000 0.75775  0.65260  0.57970  Biso   1.000  O
  O11      1.0000 0.75775  0.84740  0.07970  Biso   1.000  O
  O12      1.0000 0.24225  0.34740  0.42030  Biso   1.000  O
  C21      1.0000 0.23470  0.97280  0.85628  Biso   1.000  C
  C22      1.0000 0.76530  0.47280  0.64372  Biso   1.000  C
  C23      1.0000 0.76530  0.02720  0.14372  Biso   1.000  C
  C24      1.0000 0.23470  0.52720  0.35628  Biso   1.000  C
  F25      1.0000 0.21143  0.05370  0.80533  Biso   1.000  F
  F26      1.0000 0.78857  0.55370  0.69467  Biso   1.000  F
  F27      1.0000 0.78857  0.94630  0.19467  Biso   1.000  F
  F28      1.0000 0.21143  0.44630  0.30533  Biso   1.000  F
  F29      1.0000 0.21477  0.84810  0.83543  Biso   1.000  F
  F30      1.0000 0.78523  0.34810  0.66457  Biso   1.000  F
  F31      1.0000 0.78523  0.15190  0.16457  Biso   1.000  F
  F32      1.0000 0.21477  0.65190  0.33543  Biso   1.000  F
  F33      1.0000 0.28705  0.96470  0.88057  Biso   1.000  F
  F34      1.0000 0.71295  0.46470  0.61943  Biso   1.000  F
  F35      1.0000 0.71295  0.03530  0.11943  Biso   1.000  F
  F36      1.0000 0.28705  0.53530  0.38057  Biso   1.000  F
  C25      1.0000 0.22786  0.03000  0.90595  Biso   1.000  C
  C26      1.0000 0.77214  0.53000  0.59405  Biso   1.000  C
  C27      1.0000 0.77214  0.97000  0.09405  Biso   1.000  C
  C28      1.0000 0.22786  0.47000  0.40595  Biso   1.000  C
  C29      1.0000 0.20651  0.94380  0.92856  Biso   1.000  C
  C30      1.0000 0.79349  0.44380  0.57144  Biso   1.000  C
  C31      1.0000 0.79349  0.05620  0.07144  Biso   1.000  C
  C32      1.0000 0.20651  0.55620  0.42856  Biso   1.000  C
  H5       1.0000 0.19900  0.84900  0.91560  Biso   1.000  H
  H6       1.0000 0.80100  0.34900  0.58440  Biso   1.000  H
  H7       1.0000 0.80100  0.15100  0.08440  Biso   1.000  H
  H8       1.0000 0.19900  0.65100  0.41560  Biso   1.000  H
  C33      1.0000 0.19979  0.98610  0.97500  Biso   1.000  C
  C34      1.0000 0.80021  0.48610  0.52500  Biso   1.000  C
  C35      1.0000 0.80021  0.01390  0.02500  Biso   1.000  C
  C36      1.0000 0.19979  0.51390  0.47500  Biso   1.000  C
  C37      1.0000 0.17476  0.88460  0.99613  Biso   1.000  C
  C38      1.0000 0.82524  0.38460  0.50387  Biso   1.000  C
  C39      1.0000 0.82524  0.11540  0.00387  Biso   1.000  C
  C40      1.0000 0.17476  0.61540  0.49613  Biso   1.000  C
  F37      1.0000 0.20740  0.88710  0.06550  Biso   1.000  F
  F38      1.0000 0.79260  0.38710  0.43450  Biso   1.000  F
  F39      1.0000 0.79260  0.11290  0.93450  Biso   1.000  F
  F40      1.0000 0.20740  0.61290  0.56550  Biso   1.000  F
  F41      1.0000 0.12970  0.91220  0.98000  Biso   1.000  F
  F42      1.0000 0.87030  0.41220  0.52000  Biso   1.000  F
  F43      1.0000 0.87030  0.08780  0.02000  Biso   1.000  F
  F44      1.0000 0.12970  0.58780  0.48000  Biso   1.000  F
  F45      1.0000 0.18306  0.74790  0.98870  Biso   1.000  F
  F46      1.0000 0.81694  0.24790  0.51130  Biso   1.000  F
  F47      1.0000 0.81694  0.25210  0.01130  Biso   1.000  F
  F48      1.0000 0.18306  0.75210  0.48870  Biso   1.000  F
  O13      1.0000 0.21118  0.10100  0.00266  Biso   1.000  O
  O14      1.0000 0.78882  0.60100  0.49734  Biso   1.000  O
  O15      1.0000 0.78882  0.89900  0.99734  Biso   1.000  O
  O16      1.0000 0.21118  0.39900  0.50266  Biso   1.000  O
  O17      1.0000 0.29210  0.40440  0.99377  Biso   1.000  O
  O18      1.0000 0.70790  0.90440  0.50623  Biso   1.000  O
  O19      1.0000 0.70790  0.59560  0.00623  Biso   1.000  O
  O20      1.0000 0.29210  0.09560  0.49377  Biso   1.000  O
  C41      1.0000 0.32688  0.62200  0.99873  Biso   1.000  C
  C42      1.0000 0.67312  0.12200  0.50127  Biso   1.000  C
  C43      1.0000 0.67312  0.37800  0.00127  Biso   1.000  C
  C44      1.0000 0.32688  0.87800  0.49873  Biso   1.000  C
  F49      1.0000 0.36642  0.58030  0.00094  Biso   1.000  F
  F50      1.0000 0.63358  0.08030  0.49906  Biso   1.000  F
  F51      1.0000 0.63358  0.41970  0.99906  Biso   1.000  F
  F52      1.0000 0.36642  0.91970  0.50094  Biso   1.000  F
  F53      1.0000 0.28527  0.63860  0.93041  Biso   1.000  F
  F54      1.0000 0.71473  0.13860  0.56959  Biso   1.000  F
  F55      1.0000 0.71473  0.36140  0.06959  Biso   1.000  F
  F56      1.0000 0.28527  0.86140  0.43041  Biso   1.000  F
  F57      1.0000 0.32927  0.75350  0.01650  Biso   1.000  F
  F58      1.0000 0.67073  0.25350  0.48350  Biso   1.000  F
  F59      1.0000 0.67073  0.24650  0.98350  Biso   1.000  F
  F60      1.0000 0.32927  0.74650  0.51650  Biso   1.000  F
  C45      1.0000 0.30341  0.51900  0.02127  Biso   1.000  C
  C46      1.0000 0.69659  0.01900  0.47873  Biso   1.000  C
  C47      1.0000 0.69659  0.48100  0.97873  Biso   1.000  C
  C48      1.0000 0.30341  0.98100  0.52127  Biso   1.000  C
  C49      1.0000 0.29753  0.56240  0.06837  Biso   1.000  C
  C50      1.0000 0.70247  0.06240  0.43163  Biso   1.000  C
  C51      1.0000 0.70247  0.43760  0.93163  Biso   1.000  C
  C52      1.0000 0.29753  0.93760  0.56837  Biso   1.000  C
  H9       1.0000 0.30380  0.66000  0.08260  Biso   1.000  H
  H10      1.0000 0.69620  0.16000  0.41740  Biso   1.000  H
  H11      1.0000 0.69620  0.34000  0.91740  Biso   1.000  H
  H12      1.0000 0.30380  0.84000  0.58260  Biso   1.000  H
  C53      1.0000 0.27635  0.47540  0.09134  Biso   1.000  C
  C54      1.0000 0.72365  0.97540  0.40866  Biso   1.000  C
  C55      1.0000 0.72365  0.52460  0.90866  Biso   1.000  C
  C56      1.0000 0.27635  0.02460  0.59134  Biso   1.000  C
  C57      1.0000 0.26877  0.53510  0.14048  Biso   1.000  C
  C58      1.0000 0.73123  0.03510  0.35952  Biso   1.000  C
  C59      1.0000 0.73123  0.46490  0.85952  Biso   1.000  C
  C60      1.0000 0.26877  0.96490  0.64048  Biso   1.000  C
  F61      1.0000 0.28632  0.45280  0.18846  Biso   1.000  F
  F62      1.0000 0.71368  0.95280  0.31154  Biso   1.000  F
  F63      1.0000 0.71368  0.54720  0.81154  Biso   1.000  F
  F64      1.0000 0.28632  0.04720  0.68846  Biso   1.000  F
  F65      1.0000 0.29089  0.65690  0.16280  Biso   1.000  F
  F66      1.0000 0.70911  0.15690  0.33720  Biso   1.000  F
  F67      1.0000 0.70911  0.34310  0.83720  Biso   1.000  F
  F68      1.0000 0.29089  0.84310  0.66280  Biso   1.000  F
  F69      1.0000 0.21609  0.55540  0.11293  Biso   1.000  F
  F70      1.0000 0.78391  0.05540  0.38707  Biso   1.000  F
  F71      1.0000 0.78391  0.44460  0.88707  Biso   1.000  F
  F72      1.0000 0.21609  0.94460  0.61293  Biso   1.000  F
  O21      1.0000 0.26270  0.35240  0.07781  Biso   1.000  O
  O22      1.0000 0.73730  0.85240  0.42219  Biso   1.000  O
  O23      1.0000 0.73730  0.64760  0.92219  Biso   1.000  O
  O24      1.0000 0.26270  0.14760  0.57781  Biso   1.000  O
  Cu7      1.0000 0.50000  0.50000  0.00000  Biso   1.000  Cu
  Cu8      1.0000 0.50000  0.00000  0.50000  Biso   1.000  Cu
  O25      1.0000 0.43807  0.56930  0.91466  Biso   1.000  O
  O26      1.0000 0.56193  0.06930  0.58534  Biso   1.000  O
  O27      1.0000 0.56193  0.43070  0.08534  Biso   1.000  O
  O28      1.0000 0.43807  0.93070  0.41466  Biso   1.000  O
  C61      1.0000 0.37644  0.72490  0.83418  Biso   1.000  C
  C62      1.0000 0.62356  0.22490  0.66582  Biso   1.000  C
  C63      1.0000 0.62356  0.27510  0.16582  Biso   1.000  C
  C64      1.0000 0.37644  0.77510  0.33418  Biso   1.000  C
  F73      1.0000 0.35518  0.84300  0.82440  Biso   1.000  F
  F74      1.0000 0.64482  0.34300  0.67560  Biso   1.000  F
  F75      1.0000 0.64482  0.15700  0.17560  Biso   1.000  F
  F76      1.0000 0.35518  0.65700  0.32440  Biso   1.000  F
  F77      1.0000 0.39947  0.71880  0.80453  Biso   1.000  F
  F78      1.0000 0.60053  0.21880  0.69547  Biso   1.000  F
  F79      1.0000 0.60053  0.28120  0.19547  Biso   1.000  F
  F80      1.0000 0.39947  0.78120  0.30453  Biso   1.000  F
  F81      1.0000 0.33660  0.63760  0.80610  Biso   1.000  F
  F82      1.0000 0.66340  0.13760  0.69390  Biso   1.000  F
  F83      1.0000 0.66340  0.36240  0.19390  Biso   1.000  F
  F84      1.0000 0.33660  0.86240  0.30610  Biso   1.000  F
  C65      1.0000 0.41868  0.68800  0.90525  Biso   1.000  C
  C66      1.0000 0.58132  0.18800  0.59475  Biso   1.000  C
  C67      1.0000 0.58132  0.31200  0.09475  Biso   1.000  C
  C68      1.0000 0.41868  0.81200  0.40525  Biso   1.000  C
  C69      1.0000 0.43081  0.78710  0.95078  Biso   1.000  C
  C70      1.0000 0.56919  0.28710  0.54922  Biso   1.000  C
  C71      1.0000 0.56919  0.21290  0.04922  Biso   1.000  C
  C72      1.0000 0.43081  0.71290  0.45078  Biso   1.000  C
  H13      1.0000 0.41190  0.86100  0.93600  Biso   1.000  H
  H14      1.0000 0.58810  0.36100  0.56400  Biso   1.000  H
  H15      1.0000 0.58810  0.13900  0.06400  Biso   1.000  H
  H16      1.0000 0.41190  0.63900  0.43600  Biso   1.000  H
  C73      1.0000 0.46818  0.76370  0.01660  Biso   1.000  C
  C74      1.0000 0.53182  0.26370  0.48340  Biso   1.000  C
  C75      1.0000 0.53182  0.23630  0.98340  Biso   1.000  C
  C76      1.0000 0.46818  0.73630  0.51660  Biso   1.000  C
  C77      1.0000 0.47889  0.88400  0.06144  Biso   1.000  C
  C78      1.0000 0.52111  0.38400  0.43856  Biso   1.000  C
  C79      1.0000 0.52111  0.11600  0.93856  Biso   1.000  C
  C80      1.0000 0.47889  0.61600  0.56144  Biso   1.000  C
  F85      1.0000 0.46655  0.85430  0.10067  Biso   1.000  F
  F86      1.0000 0.53345  0.35430  0.39933  Biso   1.000  F
  F87      1.0000 0.53345  0.14570  0.89933  Biso   1.000  F
  F88      1.0000 0.46655  0.64570  0.60067  Biso   1.000  F
  F89      1.0000 0.53641  0.89930  0.10860  Biso   1.000  F
  F90      1.0000 0.46359  0.39930  0.39140  Biso   1.000  F
  F91      1.0000 0.46359  0.10070  0.89140  Biso   1.000  F
  F92      1.0000 0.53641  0.60070  0.60860  Biso   1.000  F
  F93      1.0000 0.47194  0.00840  0.03563  Biso   1.000  F
  F94      1.0000 0.52806  0.50840  0.46437  Biso   1.000  F
  F95      1.0000 0.52806  0.99160  0.96437  Biso   1.000  F
  F96      1.0000 0.47194  0.49160  0.53563  Biso   1.000  F
  O29      1.0000 0.49504  0.65614  0.04482  Biso   1.000  O
  O30      1.0000 0.50496  0.15614  0.45518  Biso   1.000  O
  O31      1.0000 0.50496  0.34386  0.95518  Biso   1.000  O
  O32      1.0000 0.49504  0.84386  0.54482  Biso   1.000  O
  O33      1.0000 0.18125  0.38860  0.94812  Biso   1.000  O
  O34      1.0000 0.81875  0.88860  0.55188  Biso   1.000  O
  O35      1.0000 0.81875  0.61140  0.05188  Biso   1.000  O
  O36      1.0000 0.18125  0.11140  0.44812  Biso   1.000  O
  N1       1.0000 0.13449  0.36410  0.89335  Biso   1.000  N
  N2       1.0000 0.86551  0.86410  0.60665  Biso   1.000  N
  N3       1.0000 0.86551  0.63590  0.10665  Biso   1.000  N
  N4       1.0000 0.13449  0.13590  0.39335  Biso   1.000  N
  C81      1.0000 0.11967  0.42560  0.83157  Biso   1.000  C
  C82      1.0000 0.88033  0.92560  0.66843  Biso   1.000  C
  C83      1.0000 0.88033  0.57440  0.16843  Biso   1.000  C
  C84      1.0000 0.11967  0.07440  0.33157  Biso   1.000  C
  C85      1.0000 0.10690  0.57720  0.83328  Biso   1.000  C
  C86      1.0000 0.89310  0.07720  0.66672  Biso   1.000  C
  C87      1.0000 0.89310  0.42280  0.16672  Biso   1.000  C
  C88      1.0000 0.10690  0.92280  0.33328  Biso   1.000  C
  H17      1.0000 0.14570  0.62100  0.87570  Biso   1.000  H
  H18      1.0000 0.85430  0.12100  0.62430  Biso   1.000  H
  H19      1.0000 0.85430  0.37900  0.12430  Biso   1.000  H
  H20      1.0000 0.14570  0.87900  0.37570  Biso   1.000  H
  H21      1.0000 0.08460  0.59100  0.84280  Biso   1.000  H
  H22      1.0000 0.91540  0.09100  0.65720  Biso   1.000  H
  H23      1.0000 0.91540  0.40900  0.15720  Biso   1.000  H
  H24      1.0000 0.08460  0.90900  0.34280  Biso   1.000  H
  H25      1.0000 0.10460  0.62100  0.80000  Biso   1.000  H
  H26      1.0000 0.89540  0.12100  0.70000  Biso   1.000  H
  H27      1.0000 0.89540  0.37900  0.20000  Biso   1.000  H
  H28      1.0000 0.10460  0.87900  0.30000  Biso   1.000  H
  C89      1.0000 0.16655  0.41130  0.82649  Biso   1.000  C
  C90      1.0000 0.83345  0.91130  0.67351  Biso   1.000  C
  C91      1.0000 0.83345  0.58870  0.17351  Biso   1.000  C
  C92      1.0000 0.16655  0.08870  0.32649  Biso   1.000  C
  H29      1.0000 0.19970  0.46400  0.85440  Biso   1.000  H
  H30      1.0000 0.80030  0.96400  0.64560  Biso   1.000  H
  H31      1.0000 0.80030  0.53600  0.14560  Biso   1.000  H
  H32      1.0000 0.19970  0.03600  0.35440  Biso   1.000  H
  H33      1.0000 0.15820  0.44900  0.78960  Biso   1.000  H
  H34      1.0000 0.84180  0.94900  0.71040  Biso   1.000  H
  H35      1.0000 0.84180  0.55100  0.21040  Biso   1.000  H
  H36      1.0000 0.15820  0.05100  0.28960  Biso   1.000  H
  H37      1.0000 0.18890  0.30600  0.83560  Biso   1.000  H
  H38      1.0000 0.81110  0.80600  0.66440  Biso   1.000  H
  H39      1.0000 0.81110  0.69400  0.16440  Biso   1.000  H
  H40      1.0000 0.18890  0.19400  0.33560  Biso   1.000  H
  C93      1.0000 0.06866  0.33750  0.78254  Biso   1.000  C
  C94      1.0000 0.93134  0.83750  0.71746  Biso   1.000  C
  C95      1.0000 0.93134  0.66250  0.21746  Biso   1.000  C
  C96      1.0000 0.06866  0.16250  0.28254  Biso   1.000  C
  C97      1.0000 0.02435  0.40950  0.72095  Biso   1.000  C
  C98      1.0000 0.97565  0.90950  0.77905  Biso   1.000  C
  C99      1.0000 0.97565  0.59050  0.27905  Biso   1.000  C
  C100     1.0000 0.02435  0.09050  0.22095  Biso   1.000  C
  H41      1.0000 0.99400  0.36000  0.69400  Biso   1.000  H
  H42      1.0000 0.00600  0.86000  0.80600  Biso   1.000  H
  H43      1.0000 0.00600  0.64000  0.30600  Biso   1.000  H
  H44      1.0000 0.99400  0.14000  0.19400  Biso   1.000  H
  H45      1.0000 0.01810  0.47600  0.72700  Biso   1.000  H
  H46      1.0000 0.98190  0.97600  0.77300  Biso   1.000  H
  H47      1.0000 0.98190  0.52400  0.27300  Biso   1.000  H
  H48      1.0000 0.01810  0.02400  0.22700  Biso   1.000  H
  C101     1.0000 0.08322  0.20070  0.76662  Biso   1.000  C
  C102     1.0000 0.91678  0.70070  0.73338  Biso   1.000  C
  C103     1.0000 0.91678  0.79930  0.23338  Biso   1.000  C
  C104     1.0000 0.08322  0.29930  0.26662  Biso   1.000  C
  H49      1.0000 0.05660  0.15100  0.75000  Biso   1.000  H
  H50      1.0000 0.94340  0.65100  0.75000  Biso   1.000  H
  H51      1.0000 0.94340  0.84900  0.25000  Biso   1.000  H
  H52      1.0000 0.05660  0.34900  0.25000  Biso   1.000  H
  H53      1.0000 0.11830  0.16000  0.80890  Biso   1.000  H
  H54      1.0000 0.88170  0.66000  0.69110  Biso   1.000  H
  H55      1.0000 0.88170  0.84000  0.19110  Biso   1.000  H
  H56      1.0000 0.11830  0.34000  0.30890  Biso   1.000  H
  H57      1.0000 0.10500  0.24300  0.73710  Biso   1.000  H
  H58      1.0000 0.89500  0.74300  0.76290  Biso   1.000  H
  H59      1.0000 0.89500  0.75700  0.26290  Biso   1.000  H
  H60      1.0000 0.10500  0.25700  0.23710  Biso   1.000  H
  N5       1.0000 0.04969  0.30240  0.82355  Biso   1.000  N
  N6       1.0000 0.95031  0.80240  0.67645  Biso   1.000  N
  N7       1.0000 0.95031  0.69760  0.17645  Biso   1.000  N
  N8       1.0000 0.04969  0.19760  0.32355  Biso   1.000  N
  O37      1.0000 0.00164  0.25710  0.79968  Biso   1.000  O
  O38      1.0000 0.99836  0.75710  0.70032  Biso   1.000  O
  O39      1.0000 0.99836  0.74290  0.20032  Biso   1.000  O
  O40      1.0000 0.00164  0.24290  0.29968  Biso   1.000  O
  C105     1.0000 0.09127  0.30630  0.88691  Biso   1.000  C
  C106     1.0000 0.90873  0.80630  0.61309  Biso   1.000  C
  C107     1.0000 0.90873  0.69370  0.11309  Biso   1.000  C
  C108     1.0000 0.09127  0.19370  0.38691  Biso   1.000  C
  C109     1.0000 0.08991  0.25470  0.93825  Biso   1.000  C
  C110     1.0000 0.91009  0.75470  0.56175  Biso   1.000  C
  C111     1.0000 0.91009  0.74530  0.06175  Biso   1.000  C
  C112     1.0000 0.08991  0.24530  0.43825  Biso   1.000  C
  C113     1.0000 0.04913  0.17760  0.93501  Biso   1.000  C
  C114     1.0000 0.95087  0.67760  0.56499  Biso   1.000  C
  C115     1.0000 0.95087  0.82240  0.06499  Biso   1.000  C
  C116     1.0000 0.04913  0.32240  0.43501  Biso   1.000  C
  H61      1.0000 0.02200  0.15800  0.90410  Biso   1.000  H
  H62      1.0000 0.97800  0.65800  0.59590  Biso   1.000  H
  H63      1.0000 0.97800  0.84200  0.09590  Biso   1.000  H
  H64      1.0000 0.02200  0.34200  0.40410  Biso   1.000  H
  N9       1.0000 0.06272  0.14270  0.99150  Biso   1.000  N
  N10      1.0000 0.93728  0.64270  0.50850  Biso   1.000  N
  N11      1.0000 0.93728  0.85730  0.00850  Biso   1.000  N
  N12      1.0000 0.06272  0.35730  0.49150  Biso   1.000  N
  N13      1.0000 0.11356  0.19720  0.03361  Biso   1.000  N
  N14      1.0000 0.88644  0.69720  0.46639  Biso   1.000  N
  N15      1.0000 0.88644  0.80280  0.96639  Biso   1.000  N
  N16      1.0000 0.11356  0.30280  0.53361  Biso   1.000  N
  C117     1.0000 0.14641  0.17030  0.10354  Biso   1.000  C
  C118     1.0000 0.85359  0.67030  0.39646  Biso   1.000  C
  C119     1.0000 0.85359  0.82970  0.89646  Biso   1.000  C
  C120     1.0000 0.14641  0.32970  0.60354  Biso   1.000  C
  H65      1.0000 0.18310  0.20420  0.12300  Biso   1.000  H
  H66      1.0000 0.81690  0.70420  0.37700  Biso   1.000  H
  H67      1.0000 0.81690  0.79580  0.87700  Biso   1.000  H
  H68      1.0000 0.18310  0.29580  0.62300  Biso   1.000  H
  H69      1.0000 0.14890  0.07090  0.10990  Biso   1.000  H
  H70      1.0000 0.85110  0.57090  0.39010  Biso   1.000  H
  H71      1.0000 0.85110  0.92910  0.89010  Biso   1.000  H
  H72      1.0000 0.14890  0.42910  0.60990  Biso   1.000  H
  C121     1.0000 0.12670  0.23140  0.13883  Biso   1.000  C
  C122     1.0000 0.87330  0.73140  0.36117  Biso   1.000  C
  C123     1.0000 0.87330  0.76860  0.86117  Biso   1.000  C
  C124     1.0000 0.12670  0.26860  0.63883  Biso   1.000  C
  H73      1.0000 0.09070  0.19550  0.12160  Biso   1.000  H
  H74      1.0000 0.90930  0.69550  0.37840  Biso   1.000  H
  H75      1.0000 0.90930  0.80450  0.87840  Biso   1.000  H
  H76      1.0000 0.09070  0.30450  0.62160  Biso   1.000  H
  H77      1.0000 0.15100  0.20560  0.18390  Biso   1.000  H
  H78      1.0000 0.84900  0.70560  0.31610  Biso   1.000  H
  H79      1.0000 0.84900  0.79440  0.81610  Biso   1.000  H
  H80      1.0000 0.15100  0.29440  0.68390  Biso   1.000  H
  C125     1.0000 0.12430  0.38360  0.13290  Biso   1.000  C
  C126     1.0000 0.87570  0.88360  0.36710  Biso   1.000  C
  C127     1.0000 0.87570  0.61640  0.86710  Biso   1.000  C
  C128     1.0000 0.12430  0.11640  0.63290  Biso   1.000  C
  H81      1.0000 0.11090  0.42180  0.15560  Biso   1.000  H
  H82      1.0000 0.88910  0.92180  0.34440  Biso   1.000  H
  H83      1.0000 0.88910  0.57820  0.84440  Biso   1.000  H
  H84      1.0000 0.11090  0.07820  0.65560  Biso   1.000  H
  H85      1.0000 0.10020  0.40890  0.08830  Biso   1.000  H
  H86      1.0000 0.89980  0.90890  0.41170  Biso   1.000  H
  H87      1.0000 0.89980  0.59110  0.91170  Biso   1.000  H
  H88      1.0000 0.10020  0.09110  0.58830  Biso   1.000  H
  H89      1.0000 0.16020  0.41910  0.15110  Biso   1.000  H
  H90      1.0000 0.83980  0.91910  0.34890  Biso   1.000  H
  H91      1.0000 0.83980  0.58090  0.84890  Biso   1.000  H
  H92      1.0000 0.16020  0.08090  0.65110  Biso   1.000  H
  C129     1.0000 0.13096  0.26590  0.00358  Biso   1.000  C
  C130     1.0000 0.86904  0.76590  0.49642  Biso   1.000  C
  C131     1.0000 0.86904  0.73410  0.99642  Biso   1.000  C
  C132     1.0000 0.13096  0.23410  0.50358  Biso   1.000  C
  H93      1.0000 0.16710  0.31300  0.03010  Biso   1.000  H
  H94      1.0000 0.83290  0.81300  0.46990  Biso   1.000  H
  H95      1.0000 0.83290  0.68700  0.96990  Biso   1.000  H
  H96      1.0000 0.16710  0.18700  0.53010  Biso   1.000  H
  O41      1.0000 0.32134  0.11430  0.05238  Biso   1.000  O
  O42      1.0000 0.67866  0.61430  0.44762  Biso   1.000  O
  O43      1.0000 0.67866  0.88570  0.94762  Biso   1.000  O
  O44      1.0000 0.32134  0.38570  0.55238  Biso   1.000  O
  N17      1.0000 0.36665  0.14260  0.10818  Biso   1.000  N
  N18      1.0000 0.63335  0.64260  0.39182  Biso   1.000  N
  N19      1.0000 0.63335  0.85740  0.89182  Biso   1.000  N
  N20      1.0000 0.36665  0.35740  0.60818  Biso   1.000  N
  C133     1.0000 0.38007  0.08100  0.16946  Biso   1.000  C
  C134     1.0000 0.61993  0.58100  0.33054  Biso   1.000  C
  C135     1.0000 0.61993  0.91900  0.83054  Biso   1.000  C
  C136     1.0000 0.38007  0.41900  0.66946  Biso   1.000  C
  C137     1.0000 0.39537  0.93100  0.16906  Biso   1.000  C
  C138     1.0000 0.60463  0.43100  0.33094  Biso   1.000  C
  C139     1.0000 0.60463  0.06900  0.83094  Biso   1.000  C
  C140     1.0000 0.39537  0.56900  0.66906  Biso   1.000  C
  H97      1.0000 0.35610  0.89200  0.12440  Biso   1.000  H
  H98      1.0000 0.64390  0.39200  0.37560  Biso   1.000  H
  H99      1.0000 0.64390  0.10800  0.87560  Biso   1.000  H
  H100     1.0000 0.35610  0.60800  0.62440  Biso   1.000  H
  H101     1.0000 0.39690  0.87900  0.19880  Biso   1.000  H
  H102     1.0000 0.60310  0.37900  0.30120  Biso   1.000  H
  H103     1.0000 0.60310  0.12100  0.80120  Biso   1.000  H
  H104     1.0000 0.39690  0.62100  0.69880  Biso   1.000  H
  H105     1.0000 0.41730  0.91700  0.15920  Biso   1.000  H
  H106     1.0000 0.58270  0.41700  0.34080  Biso   1.000  H
  H107     1.0000 0.58270  0.08300  0.84080  Biso   1.000  H
  H108     1.0000 0.41730  0.58300  0.65920  Biso   1.000  H
  C141     1.0000 0.33086  0.08870  0.17053  Biso   1.000  C
  C142     1.0000 0.66914  0.58870  0.32947  Biso   1.000  C
  C143     1.0000 0.66914  0.91130  0.82947  Biso   1.000  C
  C144     1.0000 0.33086  0.41130  0.67053  Biso   1.000  C
  H109     1.0000 0.29700  0.03800  0.14220  Biso   1.000  H
  H110     1.0000 0.70300  0.53800  0.35780  Biso   1.000  H
  H111     1.0000 0.70300  0.96200  0.85780  Biso   1.000  H
  H112     1.0000 0.29700  0.46200  0.64220  Biso   1.000  H
  H113     1.0000 0.31280  0.19500  0.16280  Biso   1.000  H
  H114     1.0000 0.68720  0.69500  0.33720  Biso   1.000  H
  H115     1.0000 0.68720  0.80500  0.83720  Biso   1.000  H
  H116     1.0000 0.31280  0.30500  0.66280  Biso   1.000  H
  H117     1.0000 0.33750  0.05500  0.20380  Biso   1.000  H
  H118     1.0000 0.66250  0.55500  0.29620  Biso   1.000  H
  H119     1.0000 0.66250  0.94500  0.79620  Biso   1.000  H
  H120     1.0000 0.33750  0.44500  0.70380  Biso   1.000  H
  C145     1.0000 0.42867  0.17360  0.21881  Biso   1.000  C
  C146     1.0000 0.57133  0.67360  0.28119  Biso   1.000  C
  C147     1.0000 0.57133  0.82640  0.78119  Biso   1.000  C
  C148     1.0000 0.42867  0.32640  0.71881  Biso   1.000  C
  C149     1.0000 0.41209  0.30890  0.23288  Biso   1.000  C
  C150     1.0000 0.58791  0.80890  0.26712  Biso   1.000  C
  C151     1.0000 0.58791  0.69110  0.76712  Biso   1.000  C
  C152     1.0000 0.41209  0.19110  0.73288  Biso   1.000  C
  H121     1.0000 0.44210  0.37000  0.25340  Biso   1.000  H
  H122     1.0000 0.55790  0.87000  0.24660  Biso   1.000  H
  H123     1.0000 0.55790  0.63000  0.74660  Biso   1.000  H
  H124     1.0000 0.44210  0.13000  0.75340  Biso   1.000  H
  H125     1.0000 0.39040  0.29100  0.25400  Biso   1.000  H
  H126     1.0000 0.60960  0.79100  0.24600  Biso   1.000  H
  H127     1.0000 0.60960  0.70900  0.74600  Biso   1.000  H
  H128     1.0000 0.39040  0.20900  0.75400  Biso   1.000  H
  H129     1.0000 0.37630  0.34800  0.19020  Biso   1.000  H
  H130     1.0000 0.62370  0.84800  0.30980  Biso   1.000  H
  H131     1.0000 0.62370  0.65200  0.80980  Biso   1.000  H
  H132     1.0000 0.37630  0.15200  0.69020  Biso   1.000  H
  C153     1.0000 0.47318  0.10270  0.28156  Biso   1.000  C
  C154     1.0000 0.52682  0.60270  0.21844  Biso   1.000  C
  C155     1.0000 0.52682  0.89730  0.71844  Biso   1.000  C
  C156     1.0000 0.47318  0.39730  0.78156  Biso   1.000  C
  H133     1.0000 0.50470  0.15200  0.30930  Biso   1.000  H
  H134     1.0000 0.49530  0.65200  0.19070  Biso   1.000  H
  H135     1.0000 0.49530  0.84800  0.69070  Biso   1.000  H
  H136     1.0000 0.50470  0.34800  0.80930  Biso   1.000  H
  H137     1.0000 0.48320  0.03900  0.27610  Biso   1.000  H
  H138     1.0000 0.51680  0.53900  0.22390  Biso   1.000  H
  H139     1.0000 0.51680  0.96100  0.72390  Biso   1.000  H
  H140     1.0000 0.48320  0.46100  0.77610  Biso   1.000  H
  N21      1.0000 0.44957  0.21180  0.18051  Biso   1.000  N
  N22      1.0000 0.55043  0.71180  0.31949  Biso   1.000  N
  N23      1.0000 0.55043  0.78820  0.81949  Biso   1.000  N
  N24      1.0000 0.44957  0.28820  0.68051  Biso   1.000  N
  O45      1.0000 0.49736  0.26140  0.20588  Biso   1.000  O
  O46      1.0000 0.50264  0.76140  0.29412  Biso   1.000  O
  O47      1.0000 0.50264  0.73860  0.79412  Biso   1.000  O
  O48      1.0000 0.49736  0.23860  0.70588  Biso   1.000  O
  C157     1.0000 0.40969  0.20320  0.11664  Biso   1.000  C
  C158     1.0000 0.59031  0.70320  0.38336  Biso   1.000  C
  C159     1.0000 0.59031  0.79680  0.88336  Biso   1.000  C
  C160     1.0000 0.40969  0.29680  0.61664  Biso   1.000  C
  C161     1.0000 0.41349  0.25100  0.06661  Biso   1.000  C
  C162     1.0000 0.58651  0.75100  0.43339  Biso   1.000  C
  C163     1.0000 0.58651  0.74900  0.93339  Biso   1.000  C
  C164     1.0000 0.41349  0.24900  0.56661  Biso   1.000  C
  C165     1.0000 0.45437  0.33190  0.07172  Biso   1.000  C
  C166     1.0000 0.54563  0.83190  0.42828  Biso   1.000  C
  C167     1.0000 0.54563  0.66810  0.92828  Biso   1.000  C
  C168     1.0000 0.45437  0.16810  0.57172  Biso   1.000  C
  H141     1.0000 0.47960  0.37200  0.10590  Biso   1.000  H
  H142     1.0000 0.52040  0.87200  0.39410  Biso   1.000  H
  H143     1.0000 0.52040  0.62800  0.89410  Biso   1.000  H
  H144     1.0000 0.47960  0.12800  0.60590  Biso   1.000  H
  N25      1.0000 0.44377  0.35370  0.01502  Biso   1.000  N
  N26      1.0000 0.55623  0.85370  0.48498  Biso   1.000  N
  N27      1.0000 0.55623  0.64630  0.98498  Biso   1.000  N
  N28      1.0000 0.44377  0.14630  0.51502  Biso   1.000  N
  N29      1.0000 0.39663  0.28470  0.97271  Biso   1.000  N
  N30      1.0000 0.60337  0.78470  0.52729  Biso   1.000  N
  N31      1.0000 0.60337  0.71530  0.02729  Biso   1.000  N
  N32      1.0000 0.39663  0.21530  0.47271  Biso   1.000  N
  C169     1.0000 0.37169  0.28030  0.90263  Biso   1.000  C
  C170     1.0000 0.62831  0.78030  0.59737  Biso   1.000  C
  C171     1.0000 0.62831  0.71970  0.09737  Biso   1.000  C
  C172     1.0000 0.37169  0.21970  0.40263  Biso   1.000  C
  H145     1.0000 0.39590  0.32560  0.89510  Biso   1.000  H
  H146     1.0000 0.60410  0.82560  0.60490  Biso   1.000  H
  H147     1.0000 0.60410  0.67440  0.10490  Biso   1.000  H
  H148     1.0000 0.39590  0.17440  0.39510  Biso   1.000  H
  H149     1.0000 0.36770  0.18460  0.88910  Biso   1.000  H
  H150     1.0000 0.63230  0.68460  0.61090  Biso   1.000  H
  H151     1.0000 0.63230  0.81540  0.11090  Biso   1.000  H
  H152     1.0000 0.36770  0.31540  0.38910  Biso   1.000  H
  C173     1.0000 0.31855  0.34760  0.86402  Biso   1.000  C
  C174     1.0000 0.68145  0.84760  0.63598  Biso   1.000  C
  C175     1.0000 0.68145  0.65240  0.13598  Biso   1.000  C
  C176     1.0000 0.31855  0.15240  0.36402  Biso   1.000  C
  H153     1.0000 0.32300  0.44610  0.87290  Biso   1.000  H
  H154     1.0000 0.67700  0.94610  0.62710  Biso   1.000  H
  H155     1.0000 0.67700  0.55390  0.12710  Biso   1.000  H
  H156     1.0000 0.32300  0.05390  0.37290  Biso   1.000  H
  H157     1.0000 0.29560  0.31080  0.87540  Biso   1.000  H
  H158     1.0000 0.70440  0.81080  0.62460  Biso   1.000  H
  H159     1.0000 0.70440  0.68920  0.12460  Biso   1.000  H
  H160     1.0000 0.29560  0.18920  0.37540  Biso   1.000  H
  C177     1.0000 0.29031  0.32300  0.79032  Biso   1.000  C
  C178     1.0000 0.70969  0.82300  0.70968  Biso   1.000  C
  C179     1.0000 0.70969  0.67700  0.20968  Biso   1.000  C
  C180     1.0000 0.29031  0.17700  0.29032  Biso   1.000  C
  H161     1.0000 0.25560  0.36930  0.76550  Biso   1.000  H
  H162     1.0000 0.74440  0.86930  0.73450  Biso   1.000  H
  H163     1.0000 0.74440  0.63070  0.23450  Biso   1.000  H
  H164     1.0000 0.25560  0.13070  0.26550  Biso   1.000  H
  H165     1.0000 0.28500  0.22560  0.78130  Biso   1.000  H
  H166     1.0000 0.71500  0.72560  0.71870  Biso   1.000  H
  H167     1.0000 0.71500  0.77440  0.21870  Biso   1.000  H
  H168     1.0000 0.28500  0.27440  0.28130  Biso   1.000  H
  H169     1.0000 0.31310  0.35910  0.77910  Biso   1.000  H
  H170     1.0000 0.68690  0.85910  0.72090  Biso   1.000  H
  H171     1.0000 0.68690  0.64090  0.22090  Biso   1.000  H
  H172     1.0000 0.31310  0.14090  0.27910  Biso   1.000  H
  C181     1.0000 0.37700  0.22280  0.00134  Biso   1.000  C
  C182     1.0000 0.62300  0.72280  0.49866  Biso   1.000  C
  C183     1.0000 0.62300  0.77720  0.99866  Biso   1.000  C
  C184     1.0000 0.37700  0.27720  0.50134  Biso   1.000  C
  H173     1.0000 0.34170  0.17200  0.97640  Biso   1.000  H
  H174     1.0000 0.65830  0.67200  0.52360  Biso   1.000  H
  H175     1.0000 0.65830  0.82800  0.02360  Biso   1.000  H
  H176     1.0000 0.34170  0.32800  0.47640  Biso   1.000  H
  F97      1.0000 0.89480  0.25230  0.80740  Biso   1.000  F
  F98      1.0000 0.10520  0.75230  0.69260  Biso   1.000  F
  F99      1.0000 0.10520  0.74770  0.19260  Biso   1.000  F
  F100     1.0000 0.89480  0.24770  0.30740  Biso   1.000  F
  F101     1.0000 0.84600  0.08710  0.79830  Biso   1.000  F
  F102     1.0000 0.15400  0.58710  0.70170  Biso   1.000  F
  F103     1.0000 0.15400  0.91290  0.20170  Biso   1.000  F
  F104     1.0000 0.84600  0.41290  0.29830  Biso   1.000  F
  F105     1.0000 0.83500  0.28810  0.81650  Biso   1.000  F
  F106     1.0000 0.16500  0.78810  0.68350  Biso   1.000  F
  F107     1.0000 0.16500  0.71190  0.18350  Biso   1.000  F
  F108     1.0000 0.83500  0.21190  0.31650  Biso   1.000  F
  F109     1.0000 0.98280  0.34770  0.10230  Biso   1.000  F
  F110     1.0000 0.01720  0.84770  0.39770  Biso   1.000  F
  F111     1.0000 0.01720  0.65230  0.89770  Biso   1.000  F
  F112     1.0000 0.98280  0.15230  0.60230  Biso   1.000  F
  F113     1.0000 0.91250  0.42450  0.02810  Biso   1.000  F
  F114     1.0000 0.08750  0.92450  0.47190  Biso   1.000  F
  F115     1.0000 0.08750  0.57550  0.97190  Biso   1.000  F
  F116     1.0000 0.91250  0.07550  0.52810  Biso   1.000  F
  F117     1.0000 0.99040  0.46430  0.05840  Biso   1.000  F
  F118     1.0000 0.00960  0.96430  0.44160  Biso   1.000  F
  F119     1.0000 0.00960  0.53570  0.94160  Biso   1.000  F
  F120     1.0000 0.99040  0.03570  0.55840  Biso   1.000  F
  F121     1.0000 0.17694  0.91570  0.04180  Biso   1.000  F
  F122     1.0000 0.82306  0.41570  0.45820  Biso   1.000  F
  F123     1.0000 0.82306  0.08430  0.95820  Biso   1.000  F
  F124     1.0000 0.17694  0.58430  0.54180  Biso   1.000  F
  F125     1.0000 0.11716  0.88590  0.94520  Biso   1.000  F
  F126     1.0000 0.88284  0.38590  0.55480  Biso   1.000  F
  F127     1.0000 0.88284  0.11410  0.05480  Biso   1.000  F
  F128     1.0000 0.11716  0.61410  0.44520  Biso   1.000  F
  F129     1.0000 0.18400  0.76790  0.99270  Biso   1.000  F
  F130     1.0000 0.81600  0.26790  0.50730  Biso   1.000  F
  F131     1.0000 0.81600  0.23210  0.00730  Biso   1.000  F
  F132     1.0000 0.18400  0.73210  0.49270  Biso   1.000  F
  F133     1.0000 0.38454  0.61620  0.04640  Biso   1.000  F
  F134     1.0000 0.61546  0.11620  0.45360  Biso   1.000  F
  F135     1.0000 0.61546  0.38380  0.95360  Biso   1.000  F
  F136     1.0000 0.38454  0.88380  0.54640  Biso   1.000  F
  F137     1.0000 0.32240  0.59700  0.95210  Biso   1.000  F
  F138     1.0000 0.67760  0.09700  0.54790  Biso   1.000  F
  F139     1.0000 0.67760  0.40300  0.04790  Biso   1.000  F
  F140     1.0000 0.32240  0.90300  0.45210  Biso   1.000  F
  F141     1.0000 0.32190  0.74150  0.00690  Biso   1.000  F
  F142     1.0000 0.67810  0.24150  0.49310  Biso   1.000  F
  F143     1.0000 0.67810  0.25850  0.99310  Biso   1.000  F
  F144     1.0000 0.32190  0.75850  0.50690  Biso   1.000  F
  F145     1.0000 0.38020  0.85220  0.82360  Biso   1.000  F
  F146     1.0000 0.61980  0.35220  0.67640  Biso   1.000  F
  F147     1.0000 0.61980  0.14780  0.17640  Biso   1.000  F
  F148     1.0000 0.38020  0.64780  0.32360  Biso   1.000  F
  F149     1.0000 0.37140  0.64380  0.79600  Biso   1.000  F
  F150     1.0000 0.62860  0.14380  0.70400  Biso   1.000  F
  F151     1.0000 0.62860  0.35620  0.20400  Biso   1.000  F
  F152     1.0000 0.37140  0.85620  0.29600  Biso   1.000  F
  F153     1.0000 0.32820  0.72150  0.82040  Biso   1.000  F
  F154     1.0000 0.67180  0.22150  0.67960  Biso   1.000  F
  F155     1.0000 0.67180  0.27850  0.17960  Biso   1.000  F
  F156     1.0000 0.32820  0.77850  0.32040  Biso   1.000  F
  F157     1.0000 0.45720  0.98870  0.03510  Biso   1.000  F
  F158     1.0000 0.54280  0.48870  0.46490  Biso   1.000  F
  F159     1.0000 0.54280  0.01130  0.96490  Biso   1.000  F
  F160     1.0000 0.45720  0.51130  0.53510  Biso   1.000  F
  F161     1.0000 0.52350  0.87920  0.11020  Biso   1.000  F
  F162     1.0000 0.47650  0.37920  0.38980  Biso   1.000  F
  F163     1.0000 0.47650  0.12080  0.88980  Biso   1.000  F
  F164     1.0000 0.52350  0.62080  0.61020  Biso   1.000  F
  F165     1.0000 0.44210  0.88320  0.07190  Biso   1.000  F
  F166     1.0000 0.55790  0.38320  0.42810  Biso   1.000  F
  F167     1.0000 0.55790  0.11680  0.92810  Biso   1.000  F
  F168     1.0000 0.44210  0.61680  0.57190  Biso   1.000  F
  H177     1.0000 0.18100  0.62000  0.63800  Biso   1.000  H
  H178     1.0000 0.81900  0.12000  0.86200  Biso   1.000  H
  H179     1.0000 0.81900  0.38000  0.36200  Biso   1.000  H
  H180     1.0000 0.18100  0.88000  0.13800  Biso   1.000  H
  H181     1.0000 0.36600  0.03000  0.25400  Biso   1.000  H
  H182     1.0000 0.63400  0.53000  0.24600  Biso   1.000  H
  H183     1.0000 0.63400  0.97000  0.74600  Biso   1.000  H
  H184     1.0000 0.36600  0.47000  0.75400  Biso   1.000  H
