data_image0
_cell_length_a       30.263
_cell_length_b       9.6656
_cell_length_c       25.6609
_cell_angle_alpha    90
_cell_angle_beta     126.519
_cell_angle_gamma    90

_symmetry_space_group_name_H-M    "P 1"
_symmetry_int_tables_number       1

loop_
  _symmetry_equiv_pos_as_xyz
  'x, y, z'

loop_
  _atom_site_label
  _atom_site_occupancy
  _atom_site_fract_x
  _atom_site_fract_y
  _atom_site_fract_z
  _atom_site_thermal_displace_type
  _atom_site_B_iso_or_equiv
  _atom_site_type_symbol
  Cu1      1.0000 0.00000  0.00000  0.00000  Biso   1.000  Cu
  Cu2      1.0000 0.00000  0.50000  0.50000  Biso   1.000  Cu
  O1       1.0000 0.94178  0.06420  0.91263  Biso   1.000  O
  O2       1.0000 0.05822  0.56420  0.58737  Biso   1.000  O
  O3       1.0000 0.05822  0.93580  0.08737  Biso   1.000  O
  O4       1.0000 0.94178  0.43580  0.41263  Biso   1.000  O
  C1       1.0000 0.87057  0.19500  0.82705  Biso   1.000  C
  C2       1.0000 0.12943  0.69500  0.67295  Biso   1.000  C
  C3       1.0000 0.12943  0.80500  0.17295  Biso   1.000  C
  C4       1.0000 0.87057  0.30500  0.32705  Biso   1.000  C
  F1       1.0000 0.83440  0.29100  0.81590  Biso   1.000  F
  F2       1.0000 0.16560  0.79100  0.68410  Biso   1.000  F
  F3       1.0000 0.16560  0.70900  0.18410  Biso   1.000  F
  F4       1.0000 0.83440  0.20900  0.31590  Biso   1.000  F
  F5       1.0000 0.84340  0.08670  0.79620  Biso   1.000  F
  F6       1.0000 0.15660  0.58670  0.70380  Biso   1.000  F
  F7       1.0000 0.15660  0.91330  0.20380  Biso   1.000  F
  F8       1.0000 0.84340  0.41330  0.29620  Biso   1.000  F
  F9       1.0000 0.89610  0.24100  0.80460  Biso   1.000  F
  F10      1.0000 0.10390  0.74100  0.69540  Biso   1.000  F
  F11      1.0000 0.10390  0.75900  0.19540  Biso   1.000  F
  F12      1.0000 0.89610  0.25900  0.30460  Biso   1.000  F
  C5       1.0000 0.91334  0.17090  0.90026  Biso   1.000  C
  C6       1.0000 0.08666  0.67090  0.59974  Biso   1.000  C
  C7       1.0000 0.08666  0.82910  0.09974  Biso   1.000  C
  C8       1.0000 0.91334  0.32910  0.40026  Biso   1.000  C
  C9       1.0000 0.91639  0.26160  0.94269  Biso   1.000  C
  C10      1.0000 0.08361  0.76160  0.55731  Biso   1.000  C
  C11      1.0000 0.08361  0.73840  0.05731  Biso   1.000  C
  C12      1.0000 0.91639  0.23840  0.44269  Biso   1.000  C
  H1       1.0000 0.89590  0.32400  0.92840  Biso   1.000  H
  H2       1.0000 0.10410  0.82400  0.57160  Biso   1.000  H
  H3       1.0000 0.10410  0.67600  0.07160  Biso   1.000  H
  H4       1.0000 0.89590  0.17600  0.42840  Biso   1.000  H
  C13      1.0000 0.95486  0.25070  0.00936  Biso   1.000  C
  C14      1.0000 0.04514  0.75070  0.49064  Biso   1.000  C
  C15      1.0000 0.04514  0.74930  0.99064  Biso   1.000  C
  C16      1.0000 0.95486  0.24930  0.50936  Biso   1.000  C
  C17      1.0000 0.95717  0.36820  0.05031  Biso   1.000  C
  C18      1.0000 0.04283  0.86820  0.44969  Biso   1.000  C
  C19      1.0000 0.04283  0.63180  0.94969  Biso   1.000  C
  C20      1.0000 0.95717  0.13180  0.55031  Biso   1.000  C
  F13      1.0000 0.90850  0.40600  0.03400  Biso   1.000  F
  F14      1.0000 0.09150  0.90600  0.46600  Biso   1.000  F
  F15      1.0000 0.09150  0.59400  0.96600  Biso   1.000  F
  F16      1.0000 0.90850  0.09400  0.53400  Biso   1.000  F
  F17      1.0000 0.98300  0.33820  0.11440  Biso   1.000  F
  F18      1.0000 0.01700  0.83820  0.38560  Biso   1.000  F
  F19      1.0000 0.01700  0.66180  0.88560  Biso   1.000  F
  F20      1.0000 0.98300  0.16180  0.61440  Biso   1.000  F
  F21      1.0000 0.97670  0.48410  0.04260  Biso   1.000  F
  F22      1.0000 0.02330  0.98410  0.45740  Biso   1.000  F
  F23      1.0000 0.02330  0.51590  0.95740  Biso   1.000  F
  F24      1.0000 0.97670  0.01590  0.54260  Biso   1.000  F
  O5       1.0000 0.98886  0.15640  0.04021  Biso   1.000  O
  O6       1.0000 0.01114  0.65640  0.45979  Biso   1.000  O
  O7       1.0000 0.01114  0.84360  0.95979  Biso   1.000  O
  O8       1.0000 0.98886  0.34360  0.54021  Biso   1.000  O
  Cu3      1.0000 0.25195  0.25393  0.99860  Biso   1.000  Cu
  Cu4      1.0000 0.74805  0.75393  0.50140  Biso   1.000  Cu
  Cu5      1.0000 0.74805  0.74607  0.00140  Biso   1.000  Cu
  Cu6      1.0000 0.25195  0.24607  0.49860  Biso   1.000  Cu
  O9       1.0000 0.24195  0.15330  0.91842  Biso   1.000  O
  O10      1.0000 0.75805  0.65330  0.58158  Biso   1.000  O
  O11      1.0000 0.75805  0.84670  0.08158  Biso   1.000  O
  O12      1.0000 0.24195  0.34670  0.41842  Biso   1.000  O
  C21      1.0000 0.23500  0.97120  0.85480  Biso   1.000  C
  C22      1.0000 0.76500  0.47120  0.64520  Biso   1.000  C
  C23      1.0000 0.76500  0.02880  0.14520  Biso   1.000  C
  C24      1.0000 0.23500  0.52880  0.35480  Biso   1.000  C
  F25      1.0000 0.21025  0.05140  0.80270  Biso   1.000  F
  F26      1.0000 0.78975  0.55140  0.69730  Biso   1.000  F
  F27      1.0000 0.78975  0.94860  0.19730  Biso   1.000  F
  F28      1.0000 0.21025  0.44860  0.30270  Biso   1.000  F
  F29      1.0000 0.21589  0.84630  0.83501  Biso   1.000  F
  F30      1.0000 0.78411  0.34630  0.66499  Biso   1.000  F
  F31      1.0000 0.78411  0.15370  0.16499  Biso   1.000  F
  F32      1.0000 0.21589  0.65370  0.33501  Biso   1.000  F
  F33      1.0000 0.28774  0.96700  0.87937  Biso   1.000  F
  F34      1.0000 0.71226  0.46700  0.62063  Biso   1.000  F
  F35      1.0000 0.71226  0.03300  0.12063  Biso   1.000  F
  F36      1.0000 0.28774  0.53300  0.37937  Biso   1.000  F
  C25      1.0000 0.22756  0.03010  0.90431  Biso   1.000  C
  C26      1.0000 0.77244  0.53010  0.59569  Biso   1.000  C
  C27      1.0000 0.77244  0.96990  0.09569  Biso   1.000  C
  C28      1.0000 0.22756  0.46990  0.40431  Biso   1.000  C
  C29      1.0000 0.20665  0.94440  0.92787  Biso   1.000  C
  C30      1.0000 0.79335  0.44440  0.57213  Biso   1.000  C
  C31      1.0000 0.79335  0.05560  0.07213  Biso   1.000  C
  C32      1.0000 0.20665  0.55560  0.42787  Biso   1.000  C
  H5       1.0000 0.19720  0.85700  0.91360  Biso   1.000  H
  H6       1.0000 0.80280  0.35700  0.58640  Biso   1.000  H
  H7       1.0000 0.80280  0.14300  0.08640  Biso   1.000  H
  H8       1.0000 0.19720  0.64300  0.41360  Biso   1.000  H
  C33      1.0000 0.19946  0.98710  0.97353  Biso   1.000  C
  C34      1.0000 0.80054  0.48710  0.52647  Biso   1.000  C
  C35      1.0000 0.80054  0.01290  0.02647  Biso   1.000  C
  C36      1.0000 0.19946  0.51290  0.47353  Biso   1.000  C
  C37      1.0000 0.17430  0.88560  0.99420  Biso   1.000  C
  C38      1.0000 0.82570  0.38560  0.50580  Biso   1.000  C
  C39      1.0000 0.82570  0.11440  0.00580  Biso   1.000  C
  C40      1.0000 0.17430  0.61440  0.49420  Biso   1.000  C
  F37      1.0000 0.20530  0.88960  0.06180  Biso   1.000  F
  F38      1.0000 0.79470  0.38960  0.43820  Biso   1.000  F
  F39      1.0000 0.79470  0.11040  0.93820  Biso   1.000  F
  F40      1.0000 0.20530  0.61040  0.56180  Biso   1.000  F
  F41      1.0000 0.12760  0.91600  0.97310  Biso   1.000  F
  F42      1.0000 0.87240  0.41600  0.52690  Biso   1.000  F
  F43      1.0000 0.87240  0.08400  0.02690  Biso   1.000  F
  F44      1.0000 0.12760  0.58400  0.47310  Biso   1.000  F
  F45      1.0000 0.18680  0.75780  0.99540  Biso   1.000  F
  F46      1.0000 0.81320  0.25780  0.50460  Biso   1.000  F
  F47      1.0000 0.81320  0.24220  0.00460  Biso   1.000  F
  F48      1.0000 0.18680  0.74220  0.49540  Biso   1.000  F
  O13      1.0000 0.21019  0.10240  0.00069  Biso   1.000  O
  O14      1.0000 0.78981  0.60240  0.49931  Biso   1.000  O
  O15      1.0000 0.78981  0.89760  0.99931  Biso   1.000  O
  O16      1.0000 0.21019  0.39760  0.50069  Biso   1.000  O
  O17      1.0000 0.29338  0.40560  0.99516  Biso   1.000  O
  O18      1.0000 0.70662  0.90560  0.50484  Biso   1.000  O
  O19      1.0000 0.70662  0.59440  0.00484  Biso   1.000  O
  O20      1.0000 0.29338  0.09440  0.49516  Biso   1.000  O
  C41      1.0000 0.32708  0.62320  0.99900  Biso   1.000  C
  C42      1.0000 0.67292  0.12320  0.50100  Biso   1.000  C
  C43      1.0000 0.67292  0.37680  0.00100  Biso   1.000  C
  C44      1.0000 0.32708  0.87680  0.49900  Biso   1.000  C
  F49      1.0000 0.36660  0.58150  0.00090  Biso   1.000  F
  F50      1.0000 0.63340  0.08150  0.49910  Biso   1.000  F
  F51      1.0000 0.63340  0.41850  0.99910  Biso   1.000  F
  F52      1.0000 0.36660  0.91850  0.50090  Biso   1.000  F
  F53      1.0000 0.28560  0.64130  0.93190  Biso   1.000  F
  F54      1.0000 0.71440  0.14130  0.56810  Biso   1.000  F
  F55      1.0000 0.71440  0.35870  0.06810  Biso   1.000  F
  F56      1.0000 0.28560  0.85870  0.43190  Biso   1.000  F
  F57      1.0000 0.33450  0.74810  0.02180  Biso   1.000  F
  F58      1.0000 0.66550  0.24810  0.47820  Biso   1.000  F
  F59      1.0000 0.66550  0.25190  0.97820  Biso   1.000  F
  F60      1.0000 0.33450  0.75190  0.52180  Biso   1.000  F
  C45      1.0000 0.30446  0.52140  0.02228  Biso   1.000  C
  C46      1.0000 0.69554  0.02140  0.47772  Biso   1.000  C
  C47      1.0000 0.69554  0.47860  0.97772  Biso   1.000  C
  C48      1.0000 0.30446  0.97860  0.52228  Biso   1.000  C
  C49      1.0000 0.29784  0.56420  0.06847  Biso   1.000  C
  C50      1.0000 0.70216  0.06420  0.43153  Biso   1.000  C
  C51      1.0000 0.70216  0.43580  0.93153  Biso   1.000  C
  C52      1.0000 0.29784  0.93580  0.56847  Biso   1.000  C
  H9       1.0000 0.30730  0.65500  0.08330  Biso   1.000  H
  H10      1.0000 0.69270  0.15500  0.41670  Biso   1.000  H
  H11      1.0000 0.69270  0.34500  0.91670  Biso   1.000  H
  H12      1.0000 0.30730  0.84500  0.58330  Biso   1.000  H
  C53      1.0000 0.27720  0.47970  0.09272  Biso   1.000  C
  C54      1.0000 0.72280  0.97970  0.40728  Biso   1.000  C
  C55      1.0000 0.72280  0.52030  0.90728  Biso   1.000  C
  C56      1.0000 0.27720  0.02030  0.59272  Biso   1.000  C
  C57      1.0000 0.26867  0.54040  0.14077  Biso   1.000  C
  C58      1.0000 0.73133  0.04040  0.35923  Biso   1.000  C
  C59      1.0000 0.73133  0.45960  0.85923  Biso   1.000  C
  C60      1.0000 0.26867  0.95960  0.64077  Biso   1.000  C
  F61      1.0000 0.28711  0.46000  0.19039  Biso   1.000  F
  F62      1.0000 0.71289  0.96000  0.30961  Biso   1.000  F
  F63      1.0000 0.71289  0.54000  0.80961  Biso   1.000  F
  F64      1.0000 0.28711  0.04000  0.69039  Biso   1.000  F
  F65      1.0000 0.29054  0.66270  0.16274  Biso   1.000  F
  F66      1.0000 0.70946  0.16270  0.33726  Biso   1.000  F
  F67      1.0000 0.70946  0.33730  0.83726  Biso   1.000  F
  F68      1.0000 0.29054  0.83730  0.66274  Biso   1.000  F
  F69      1.0000 0.21542  0.55760  0.11254  Biso   1.000  F
  F70      1.0000 0.78458  0.05760  0.38746  Biso   1.000  F
  F71      1.0000 0.78458  0.44240  0.88746  Biso   1.000  F
  F72      1.0000 0.21542  0.94240  0.61254  Biso   1.000  F
  O21      1.0000 0.26382  0.35580  0.07978  Biso   1.000  O
  O22      1.0000 0.73618  0.85580  0.42022  Biso   1.000  O
  O23      1.0000 0.73618  0.64420  0.92022  Biso   1.000  O
  O24      1.0000 0.26382  0.14420  0.57978  Biso   1.000  O
  Cu7      1.0000 0.50000  0.50000  0.00000  Biso   1.000  Cu
  Cu8      1.0000 0.50000  0.00000  0.50000  Biso   1.000  Cu
  O25      1.0000 0.43746  0.56840  0.91434  Biso   1.000  O
  O26      1.0000 0.56254  0.06840  0.58566  Biso   1.000  O
  O27      1.0000 0.56254  0.43160  0.08566  Biso   1.000  O
  O28      1.0000 0.43746  0.93160  0.41434  Biso   1.000  O
  C61      1.0000 0.37619  0.72610  0.83391  Biso   1.000  C
  C62      1.0000 0.62381  0.22610  0.66609  Biso   1.000  C
  C63      1.0000 0.62381  0.27390  0.16609  Biso   1.000  C
  C64      1.0000 0.37619  0.77390  0.33391  Biso   1.000  C
  F73      1.0000 0.35010  0.83460  0.82210  Biso   1.000  F
  F74      1.0000 0.64990  0.33460  0.67790  Biso   1.000  F
  F75      1.0000 0.64990  0.16540  0.17790  Biso   1.000  F
  F76      1.0000 0.35010  0.66540  0.32210  Biso   1.000  F
  F77      1.0000 0.40100  0.73590  0.80450  Biso   1.000  F
  F78      1.0000 0.59900  0.23590  0.69550  Biso   1.000  F
  F79      1.0000 0.59900  0.26410  0.19550  Biso   1.000  F
  F80      1.0000 0.40100  0.76410  0.30450  Biso   1.000  F
  F81      1.0000 0.34060  0.62920  0.80120  Biso   1.000  F
  F82      1.0000 0.65940  0.12920  0.69880  Biso   1.000  F
  F83      1.0000 0.65940  0.37080  0.19880  Biso   1.000  F
  F84      1.0000 0.34060  0.87080  0.30120  Biso   1.000  F
  C65      1.0000 0.41822  0.68800  0.90490  Biso   1.000  C
  C66      1.0000 0.58178  0.18800  0.59510  Biso   1.000  C
  C67      1.0000 0.58178  0.31200  0.09510  Biso   1.000  C
  C68      1.0000 0.41822  0.81200  0.40490  Biso   1.000  C
  C69      1.0000 0.43118  0.78730  0.95070  Biso   1.000  C
  C70      1.0000 0.56882  0.28730  0.54930  Biso   1.000  C
  C71      1.0000 0.56882  0.21270  0.04930  Biso   1.000  C
  C72      1.0000 0.43118  0.71270  0.45070  Biso   1.000  C
  H13      1.0000 0.41710  0.86600  0.93870  Biso   1.000  H
  H14      1.0000 0.58290  0.36600  0.56130  Biso   1.000  H
  H15      1.0000 0.58290  0.13400  0.06130  Biso   1.000  H
  H16      1.0000 0.41710  0.63400  0.43870  Biso   1.000  H
  C73      1.0000 0.46870  0.76500  0.01689  Biso   1.000  C
  C74      1.0000 0.53130  0.26500  0.48311  Biso   1.000  C
  C75      1.0000 0.53130  0.23500  0.98311  Biso   1.000  C
  C76      1.0000 0.46870  0.73500  0.51689  Biso   1.000  C
  C77      1.0000 0.48023  0.88400  0.06218  Biso   1.000  C
  C78      1.0000 0.51977  0.38400  0.43782  Biso   1.000  C
  C79      1.0000 0.51977  0.11600  0.93782  Biso   1.000  C
  C80      1.0000 0.48023  0.61600  0.56218  Biso   1.000  C
  F85      1.0000 0.46450  0.86130  0.09790  Biso   1.000  F
  F86      1.0000 0.53550  0.36130  0.40210  Biso   1.000  F
  F87      1.0000 0.53550  0.13870  0.90210  Biso   1.000  F
  F88      1.0000 0.46450  0.63870  0.59790  Biso   1.000  F
  F89      1.0000 0.53530  0.90080  0.10630  Biso   1.000  F
  F90      1.0000 0.46470  0.40080  0.39370  Biso   1.000  F
  F91      1.0000 0.46470  0.09920  0.89370  Biso   1.000  F
  F92      1.0000 0.53530  0.59920  0.60630  Biso   1.000  F
  F93      1.0000 0.47400  0.00640  0.03720  Biso   1.000  F
  F94      1.0000 0.52600  0.50640  0.46280  Biso   1.000  F
  F95      1.0000 0.52600  0.99360  0.96280  Biso   1.000  F
  F96      1.0000 0.47400  0.49360  0.53720  Biso   1.000  F
  O29      1.0000 0.49515  0.65660  0.04517  Biso   1.000  O
  O30      1.0000 0.50485  0.15660  0.45483  Biso   1.000  O
  O31      1.0000 0.50485  0.34340  0.95483  Biso   1.000  O
  O32      1.0000 0.49515  0.84340  0.54517  Biso   1.000  O
  O33      1.0000 0.18212  0.38860  0.94912  Biso   1.000  O
  O34      1.0000 0.81788  0.88860  0.55088  Biso   1.000  O
  O35      1.0000 0.81788  0.61140  0.05088  Biso   1.000  O
  O36      1.0000 0.18212  0.11140  0.44912  Biso   1.000  O
  N1       1.0000 0.13498  0.36460  0.89422  Biso   1.000  N
  N2       1.0000 0.86502  0.86460  0.60578  Biso   1.000  N
  N3       1.0000 0.86502  0.63540  0.10578  Biso   1.000  N
  N4       1.0000 0.13498  0.13540  0.39422  Biso   1.000  N
  C81      1.0000 0.11958  0.42650  0.83199  Biso   1.000  C
  C82      1.0000 0.88042  0.92650  0.66801  Biso   1.000  C
  C83      1.0000 0.88042  0.57350  0.16801  Biso   1.000  C
  C84      1.0000 0.11958  0.07350  0.33199  Biso   1.000  C
  C85      1.0000 0.10640  0.57690  0.83350  Biso   1.000  C
  C86      1.0000 0.89360  0.07690  0.66650  Biso   1.000  C
  C87      1.0000 0.89360  0.42310  0.16650  Biso   1.000  C
  C88      1.0000 0.10640  0.92310  0.33350  Biso   1.000  C
  H17      1.0000 0.13760  0.61000  0.87330  Biso   1.000  H
  H18      1.0000 0.86240  0.11000  0.62670  Biso   1.000  H
  H19      1.0000 0.86240  0.39000  0.12670  Biso   1.000  H
  H20      1.0000 0.13760  0.89000  0.37330  Biso   1.000  H
  H21      1.0000 0.07740  0.58900  0.83870  Biso   1.000  H
  H22      1.0000 0.92260  0.08900  0.66130  Biso   1.000  H
  H23      1.0000 0.92260  0.41100  0.16130  Biso   1.000  H
  H24      1.0000 0.07740  0.91100  0.33870  Biso   1.000  H
  H25      1.0000 0.09960  0.61500  0.79800  Biso   1.000  H
  H26      1.0000 0.90040  0.11500  0.70200  Biso   1.000  H
  H27      1.0000 0.90040  0.38500  0.20200  Biso   1.000  H
  H28      1.0000 0.09960  0.88500  0.29800  Biso   1.000  H
  C89      1.0000 0.16714  0.41270  0.82720  Biso   1.000  C
  C90      1.0000 0.83286  0.91270  0.67280  Biso   1.000  C
  C91      1.0000 0.83286  0.58730  0.17280  Biso   1.000  C
  C92      1.0000 0.16714  0.08730  0.32720  Biso   1.000  C
  H29      1.0000 0.19840  0.46800  0.85660  Biso   1.000  H
  H30      1.0000 0.80160  0.96800  0.64340  Biso   1.000  H
  H31      1.0000 0.80160  0.53200  0.14340  Biso   1.000  H
  H32      1.0000 0.19840  0.03200  0.35660  Biso   1.000  H
  H33      1.0000 0.15670  0.44900  0.79090  Biso   1.000  H
  H34      1.0000 0.84330  0.94900  0.70910  Biso   1.000  H
  H35      1.0000 0.84330  0.55100  0.20910  Biso   1.000  H
  H36      1.0000 0.15670  0.05100  0.29090  Biso   1.000  H
  H37      1.0000 0.18090  0.30800  0.83280  Biso   1.000  H
  H38      1.0000 0.81910  0.80800  0.66720  Biso   1.000  H
  H39      1.0000 0.81910  0.69200  0.16720  Biso   1.000  H
  H40      1.0000 0.18090  0.19200  0.33280  Biso   1.000  H
  C93      1.0000 0.06846  0.33780  0.78292  Biso   1.000  C
  C94      1.0000 0.93154  0.83780  0.71708  Biso   1.000  C
  C95      1.0000 0.93154  0.66220  0.21708  Biso   1.000  C
  C96      1.0000 0.06846  0.16220  0.28292  Biso   1.000  C
  C97      1.0000 0.02355  0.41320  0.72200  Biso   1.000  C
  C98      1.0000 0.97645  0.91320  0.77800  Biso   1.000  C
  C99      1.0000 0.97645  0.58680  0.27800  Biso   1.000  C
  C100     1.0000 0.02355  0.08680  0.22200  Biso   1.000  C
  H41      1.0000 0.03580  0.42500  0.69720  Biso   1.000  H
  H42      1.0000 0.96420  0.92500  0.80280  Biso   1.000  H
  H43      1.0000 0.96420  0.57500  0.30280  Biso   1.000  H
  H44      1.0000 0.03580  0.07500  0.19720  Biso   1.000  H
  H45      1.0000 0.99210  0.35700  0.69590  Biso   1.000  H
  H46      1.0000 0.00790  0.85700  0.80410  Biso   1.000  H
  H47      1.0000 0.00790  0.64300  0.30410  Biso   1.000  H
  H48      1.0000 0.99210  0.14300  0.19590  Biso   1.000  H
  H49      1.0000 0.01490  0.49400  0.73250  Biso   1.000  H
  H50      1.0000 0.98510  0.99400  0.76750  Biso   1.000  H
  H51      1.0000 0.98510  0.50600  0.26750  Biso   1.000  H
  H52      1.0000 0.01490  0.00600  0.23250  Biso   1.000  H
  C101     1.0000 0.08200  0.20070  0.76690  Biso   1.000  C
  C102     1.0000 0.91800  0.70070  0.73310  Biso   1.000  C
  C103     1.0000 0.91800  0.79930  0.23310  Biso   1.000  C
  C104     1.0000 0.08200  0.29930  0.26690  Biso   1.000  C
  H53      1.0000 0.04750  0.14300  0.74350  Biso   1.000  H
  H54      1.0000 0.95250  0.64300  0.75650  Biso   1.000  H
  H55      1.0000 0.95250  0.85700  0.25650  Biso   1.000  H
  H56      1.0000 0.04750  0.35700  0.24350  Biso   1.000  H
  H57      1.0000 0.11020  0.15600  0.80430  Biso   1.000  H
  H58      1.0000 0.88980  0.65600  0.69570  Biso   1.000  H
  H59      1.0000 0.88980  0.84400  0.19570  Biso   1.000  H
  H60      1.0000 0.11020  0.34400  0.30430  Biso   1.000  H
  H61      1.0000 0.09350  0.22000  0.74350  Biso   1.000  H
  H62      1.0000 0.90650  0.72000  0.75650  Biso   1.000  H
  H63      1.0000 0.90650  0.78000  0.25650  Biso   1.000  H
  H64      1.0000 0.09350  0.28000  0.24350  Biso   1.000  H
  N5       1.0000 0.04988  0.30330  0.82402  Biso   1.000  N
  N6       1.0000 0.95012  0.80330  0.67598  Biso   1.000  N
  N7       1.0000 0.95012  0.69670  0.17598  Biso   1.000  N
  N8       1.0000 0.04988  0.19670  0.32402  Biso   1.000  N
  O37      1.0000 0.00179  0.25830  0.80018  Biso   1.000  O
  O38      1.0000 0.99821  0.75830  0.69982  Biso   1.000  O
  O39      1.0000 0.99821  0.74170  0.19982  Biso   1.000  O
  O40      1.0000 0.00179  0.24170  0.30018  Biso   1.000  O
  C105     1.0000 0.09196  0.30740  0.88784  Biso   1.000  C
  C106     1.0000 0.90804  0.80740  0.61216  Biso   1.000  C
  C107     1.0000 0.90804  0.69260  0.11216  Biso   1.000  C
  C108     1.0000 0.09196  0.19260  0.38784  Biso   1.000  C
  C109     1.0000 0.09050  0.25610  0.93921  Biso   1.000  C
  C110     1.0000 0.90950  0.75610  0.56079  Biso   1.000  C
  C111     1.0000 0.90950  0.74390  0.06079  Biso   1.000  C
  C112     1.0000 0.09050  0.24390  0.43921  Biso   1.000  C
  C113     1.0000 0.04928  0.17960  0.93539  Biso   1.000  C
  C114     1.0000 0.95072  0.67960  0.56461  Biso   1.000  C
  C115     1.0000 0.95072  0.82040  0.06461  Biso   1.000  C
  C116     1.0000 0.04928  0.32040  0.43539  Biso   1.000  C
  H65      1.0000 0.01880  0.15600  0.90140  Biso   1.000  H
  H66      1.0000 0.98120  0.65600  0.59860  Biso   1.000  H
  H67      1.0000 0.98120  0.84400  0.09860  Biso   1.000  H
  H68      1.0000 0.01880  0.34400  0.40140  Biso   1.000  H
  N9       1.0000 0.06340  0.14280  0.99255  Biso   1.000  N
  N10      1.0000 0.93660  0.64280  0.50745  Biso   1.000  N
  N11      1.0000 0.93660  0.85720  0.00745  Biso   1.000  N
  N12      1.0000 0.06340  0.35720  0.49255  Biso   1.000  N
  N13      1.0000 0.11487  0.19740  0.03518  Biso   1.000  N
  N14      1.0000 0.88513  0.69740  0.46482  Biso   1.000  N
  N15      1.0000 0.88513  0.80260  0.96482  Biso   1.000  N
  N16      1.0000 0.11487  0.30260  0.53518  Biso   1.000  N
  C117     1.0000 0.14733  0.17010  0.10465  Biso   1.000  C
  C118     1.0000 0.85267  0.67010  0.39535  Biso   1.000  C
  C119     1.0000 0.85267  0.82990  0.89535  Biso   1.000  C
  C120     1.0000 0.14733  0.32990  0.60465  Biso   1.000  C
  H69      1.0000 0.18440  0.20360  0.12480  Biso   1.000  H
  H70      1.0000 0.81560  0.70360  0.37520  Biso   1.000  H
  H71      1.0000 0.81560  0.79640  0.87520  Biso   1.000  H
  H72      1.0000 0.18440  0.29640  0.62480  Biso   1.000  H
  H73      1.0000 0.14950  0.07070  0.11110  Biso   1.000  H
  H74      1.0000 0.85050  0.57070  0.38890  Biso   1.000  H
  H75      1.0000 0.85050  0.92930  0.88890  Biso   1.000  H
  H76      1.0000 0.14950  0.42930  0.61110  Biso   1.000  H
  C121     1.0000 0.12606  0.23350  0.13890  Biso   1.000  C
  C122     1.0000 0.87394  0.73350  0.36110  Biso   1.000  C
  C123     1.0000 0.87394  0.76650  0.86110  Biso   1.000  C
  C124     1.0000 0.12606  0.26650  0.63890  Biso   1.000  C
  H77      1.0000 0.09000  0.19560  0.12130  Biso   1.000  H
  H78      1.0000 0.91000  0.69560  0.37870  Biso   1.000  H
  H79      1.0000 0.91000  0.80440  0.87870  Biso   1.000  H
  H80      1.0000 0.09000  0.30440  0.62130  Biso   1.000  H
  H81      1.0000 0.15040  0.20960  0.18450  Biso   1.000  H
  H82      1.0000 0.84960  0.70960  0.31550  Biso   1.000  H
  H83      1.0000 0.84960  0.79040  0.81550  Biso   1.000  H
  H84      1.0000 0.15040  0.29040  0.68450  Biso   1.000  H
  C125     1.0000 0.12200  0.38520  0.13230  Biso   1.000  C
  C126     1.0000 0.87800  0.88520  0.36770  Biso   1.000  C
  C127     1.0000 0.87800  0.61480  0.86770  Biso   1.000  C
  C128     1.0000 0.12200  0.11480  0.63230  Biso   1.000  C
  H85      1.0000 0.10850  0.42180  0.15520  Biso   1.000  H
  H86      1.0000 0.89150  0.92180  0.34480  Biso   1.000  H
  H87      1.0000 0.89150  0.57820  0.84480  Biso   1.000  H
  H88      1.0000 0.10850  0.07820  0.65520  Biso   1.000  H
  H89      1.0000 0.09710  0.40940  0.08720  Biso   1.000  H
  H90      1.0000 0.90290  0.90940  0.41280  Biso   1.000  H
  H91      1.0000 0.90290  0.59060  0.91280  Biso   1.000  H
  H92      1.0000 0.09710  0.09060  0.58720  Biso   1.000  H
  H93      1.0000 0.15760  0.42330  0.15010  Biso   1.000  H
  H94      1.0000 0.84240  0.92330  0.34990  Biso   1.000  H
  H95      1.0000 0.84240  0.57670  0.84990  Biso   1.000  H
  H96      1.0000 0.15760  0.07670  0.65010  Biso   1.000  H
  C129     1.0000 0.13138  0.26570  0.00442  Biso   1.000  C
  C130     1.0000 0.86862  0.76570  0.49558  Biso   1.000  C
  C131     1.0000 0.86862  0.73430  0.99558  Biso   1.000  C
  C132     1.0000 0.13138  0.23430  0.50442  Biso   1.000  C
  H97      1.0000 0.16220  0.30600  0.02670  Biso   1.000  H
  H98      1.0000 0.83780  0.80600  0.47330  Biso   1.000  H
  H99      1.0000 0.83780  0.69400  0.97330  Biso   1.000  H
  H100     1.0000 0.16220  0.19400  0.52670  Biso   1.000  H
  O41      1.0000 0.32065  0.11620  0.05185  Biso   1.000  O
  O42      1.0000 0.67935  0.61620  0.44815  Biso   1.000  O
  O43      1.0000 0.67935  0.88380  0.94815  Biso   1.000  O
  O44      1.0000 0.32065  0.38380  0.55185  Biso   1.000  O
  N17      1.0000 0.36609  0.14510  0.10794  Biso   1.000  N
  N18      1.0000 0.63391  0.64510  0.39206  Biso   1.000  N
  N19      1.0000 0.63391  0.85490  0.89206  Biso   1.000  N
  N20      1.0000 0.36609  0.35490  0.60794  Biso   1.000  N
  C133     1.0000 0.37975  0.08290  0.16945  Biso   1.000  C
  C134     1.0000 0.62025  0.58290  0.33055  Biso   1.000  C
  C135     1.0000 0.62025  0.91710  0.83055  Biso   1.000  C
  C136     1.0000 0.37975  0.41710  0.66945  Biso   1.000  C
  C137     1.0000 0.39530  0.93330  0.16890  Biso   1.000  C
  C138     1.0000 0.60470  0.43330  0.33110  Biso   1.000  C
  C139     1.0000 0.60470  0.06670  0.83110  Biso   1.000  C
  C140     1.0000 0.39530  0.56670  0.66890  Biso   1.000  C
  H101     1.0000 0.36390  0.89600  0.12700  Biso   1.000  H
  H102     1.0000 0.63610  0.39600  0.37300  Biso   1.000  H
  H103     1.0000 0.63610  0.10400  0.87300  Biso   1.000  H
  H104     1.0000 0.36390  0.60400  0.62700  Biso   1.000  H
  H105     1.0000 0.39980  0.89200  0.20320  Biso   1.000  H
  H106     1.0000 0.60020  0.39200  0.29680  Biso   1.000  H
  H107     1.0000 0.60020  0.10800  0.79680  Biso   1.000  H
  H108     1.0000 0.39980  0.60800  0.70320  Biso   1.000  H
  H109     1.0000 0.42400  0.92800  0.16520  Biso   1.000  H
  H110     1.0000 0.57600  0.42800  0.33480  Biso   1.000  H
  H111     1.0000 0.57600  0.07200  0.83480  Biso   1.000  H
  H112     1.0000 0.42400  0.57200  0.66520  Biso   1.000  H
  C141     1.0000 0.33012  0.08960  0.17080  Biso   1.000  C
  C142     1.0000 0.66988  0.58960  0.32920  Biso   1.000  C
  C143     1.0000 0.66988  0.91040  0.82920  Biso   1.000  C
  C144     1.0000 0.33012  0.41040  0.67080  Biso   1.000  C
  H113     1.0000 0.30270  0.03400  0.14100  Biso   1.000  H
  H114     1.0000 0.69730  0.53400  0.35900  Biso   1.000  H
  H115     1.0000 0.69730  0.96600  0.85900  Biso   1.000  H
  H116     1.0000 0.30270  0.46600  0.64100  Biso   1.000  H
  H117     1.0000 0.31940  0.19300  0.16730  Biso   1.000  H
  H118     1.0000 0.68060  0.69300  0.33270  Biso   1.000  H
  H119     1.0000 0.68060  0.80700  0.83270  Biso   1.000  H
  H120     1.0000 0.31940  0.30700  0.66730  Biso   1.000  H
  H121     1.0000 0.33970  0.04800  0.20920  Biso   1.000  H
  H122     1.0000 0.66030  0.54800  0.29080  Biso   1.000  H
  H123     1.0000 0.66030  0.95200  0.79080  Biso   1.000  H
  H124     1.0000 0.33970  0.45200  0.70920  Biso   1.000  H
  C145     1.0000 0.42875  0.17480  0.21957  Biso   1.000  C
  C146     1.0000 0.57125  0.67480  0.28043  Biso   1.000  C
  C147     1.0000 0.57125  0.82520  0.78043  Biso   1.000  C
  C148     1.0000 0.42875  0.32520  0.71957  Biso   1.000  C
  C149     1.0000 0.41260  0.31040  0.23350  Biso   1.000  C
  C150     1.0000 0.58740  0.81040  0.26650  Biso   1.000  C
  C151     1.0000 0.58740  0.68960  0.76650  Biso   1.000  C
  C152     1.0000 0.41260  0.18960  0.73350  Biso   1.000  C
  H125     1.0000 0.44800  0.37000  0.25750  Biso   1.000  H
  H126     1.0000 0.55200  0.87000  0.24250  Biso   1.000  H
  H127     1.0000 0.55200  0.63000  0.74250  Biso   1.000  H
  H128     1.0000 0.44800  0.13000  0.75750  Biso   1.000  H
  H129     1.0000 0.40150  0.29400  0.25460  Biso   1.000  H
  H130     1.0000 0.59850  0.79400  0.24540  Biso   1.000  H
  H131     1.0000 0.59850  0.70600  0.74540  Biso   1.000  H
  H132     1.0000 0.40150  0.20600  0.75460  Biso   1.000  H
  H133     1.0000 0.38350  0.35100  0.19570  Biso   1.000  H
  H134     1.0000 0.61650  0.85100  0.30430  Biso   1.000  H
  H135     1.0000 0.61650  0.64900  0.80430  Biso   1.000  H
  H136     1.0000 0.38350  0.14900  0.69570  Biso   1.000  H
  C153     1.0000 0.47350  0.10230  0.28160  Biso   1.000  C
  C154     1.0000 0.52650  0.60230  0.21840  Biso   1.000  C
  C155     1.0000 0.52650  0.89770  0.71840  Biso   1.000  C
  C156     1.0000 0.47350  0.39770  0.78160  Biso   1.000  C
  H137     1.0000 0.50430  0.16000  0.31040  Biso   1.000  H
  H138     1.0000 0.49570  0.66000  0.18960  Biso   1.000  H
  H139     1.0000 0.49570  0.84000  0.68960  Biso   1.000  H
  H140     1.0000 0.50430  0.34000  0.81040  Biso   1.000  H
  H141     1.0000 0.48650  0.02700  0.27320  Biso   1.000  H
  H142     1.0000 0.51350  0.52700  0.22680  Biso   1.000  H
  H143     1.0000 0.51350  0.97300  0.72680  Biso   1.000  H
  H144     1.0000 0.48650  0.47300  0.77320  Biso   1.000  H
  H145     1.0000 0.46220  0.08900  0.30500  Biso   1.000  H
  H146     1.0000 0.53780  0.58900  0.19500  Biso   1.000  H
  H147     1.0000 0.53780  0.91100  0.69500  Biso   1.000  H
  H148     1.0000 0.46220  0.41100  0.80500  Biso   1.000  H
  N21      1.0000 0.44963  0.21290  0.18128  Biso   1.000  N
  N22      1.0000 0.55037  0.71290  0.31872  Biso   1.000  N
  N23      1.0000 0.55037  0.78710  0.81872  Biso   1.000  N
  N24      1.0000 0.44963  0.28710  0.68128  Biso   1.000  N
  O45      1.0000 0.49750  0.26210  0.20714  Biso   1.000  O
  O46      1.0000 0.50250  0.76210  0.29286  Biso   1.000  O
  O47      1.0000 0.50250  0.73790  0.79286  Biso   1.000  O
  O48      1.0000 0.49750  0.23790  0.70714  Biso   1.000  O
  C157     1.0000 0.40950  0.20520  0.11680  Biso   1.000  C
  C158     1.0000 0.59050  0.70520  0.38320  Biso   1.000  C
  C159     1.0000 0.59050  0.79480  0.88320  Biso   1.000  C
  C160     1.0000 0.40950  0.29480  0.61680  Biso   1.000  C
  C161     1.0000 0.41376  0.25140  0.06699  Biso   1.000  C
  C162     1.0000 0.58624  0.75140  0.43301  Biso   1.000  C
  C163     1.0000 0.58624  0.74860  0.93301  Biso   1.000  C
  C164     1.0000 0.41376  0.24860  0.56699  Biso   1.000  C
  C165     1.0000 0.45460  0.33230  0.07211  Biso   1.000  C
  C166     1.0000 0.54540  0.83230  0.42789  Biso   1.000  C
  C167     1.0000 0.54540  0.66770  0.92789  Biso   1.000  C
  C168     1.0000 0.45460  0.16770  0.57211  Biso   1.000  C
  H149     1.0000 0.48290  0.37500  0.10790  Biso   1.000  H
  H150     1.0000 0.51710  0.87500  0.39210  Biso   1.000  H
  H151     1.0000 0.51710  0.62500  0.89210  Biso   1.000  H
  H152     1.0000 0.48290  0.12500  0.60790  Biso   1.000  H
  N25      1.0000 0.44456  0.35290  0.01526  Biso   1.000  N
  N26      1.0000 0.55544  0.85290  0.48474  Biso   1.000  N
  N27      1.0000 0.55544  0.64710  0.98474  Biso   1.000  N
  N28      1.0000 0.44456  0.14710  0.51526  Biso   1.000  N
  N29      1.0000 0.39688  0.28360  0.97252  Biso   1.000  N
  N30      1.0000 0.60312  0.78360  0.52748  Biso   1.000  N
  N31      1.0000 0.60312  0.71640  0.02748  Biso   1.000  N
  N32      1.0000 0.39688  0.21640  0.47252  Biso   1.000  N
  C169     1.0000 0.37171  0.27870  0.90271  Biso   1.000  C
  C170     1.0000 0.62829  0.77870  0.59729  Biso   1.000  C
  C171     1.0000 0.62829  0.72130  0.09729  Biso   1.000  C
  C172     1.0000 0.37171  0.22130  0.40271  Biso   1.000  C
  H153     1.0000 0.36750  0.18290  0.88930  Biso   1.000  H
  H154     1.0000 0.63250  0.68290  0.61070  Biso   1.000  H
  H155     1.0000 0.63250  0.81710  0.11070  Biso   1.000  H
  H156     1.0000 0.36750  0.31710  0.38930  Biso   1.000  H
  H157     1.0000 0.39620  0.32320  0.89510  Biso   1.000  H
  H158     1.0000 0.60380  0.82320  0.60490  Biso   1.000  H
  H159     1.0000 0.60380  0.67680  0.10490  Biso   1.000  H
  H160     1.0000 0.39620  0.17680  0.39510  Biso   1.000  H
  C173     1.0000 0.31774  0.34700  0.86287  Biso   1.000  C
  C174     1.0000 0.68226  0.84700  0.63713  Biso   1.000  C
  C175     1.0000 0.68226  0.65300  0.13713  Biso   1.000  C
  C176     1.0000 0.31774  0.15300  0.36287  Biso   1.000  C
  H161     1.0000 0.32230  0.44510  0.87290  Biso   1.000  H
  H162     1.0000 0.67770  0.94510  0.62710  Biso   1.000  H
  H163     1.0000 0.67770  0.55490  0.12710  Biso   1.000  H
  H164     1.0000 0.32230  0.05490  0.37290  Biso   1.000  H
  H165     1.0000 0.29430  0.30900  0.87340  Biso   1.000  H
  H166     1.0000 0.70570  0.80900  0.62660  Biso   1.000  H
  H167     1.0000 0.70570  0.69100  0.12660  Biso   1.000  H
  H168     1.0000 0.29430  0.19100  0.37340  Biso   1.000  H
  C177     1.0000 0.29000  0.32780  0.79034  Biso   1.000  C
  C178     1.0000 0.71000  0.82780  0.70966  Biso   1.000  C
  C179     1.0000 0.71000  0.67220  0.20966  Biso   1.000  C
  C180     1.0000 0.29000  0.17220  0.29034  Biso   1.000  C
  H169     1.0000 0.25520  0.37470  0.76580  Biso   1.000  H
  H170     1.0000 0.74480  0.87470  0.73420  Biso   1.000  H
  H171     1.0000 0.74480  0.62530  0.23420  Biso   1.000  H
  H172     1.0000 0.25520  0.12530  0.26580  Biso   1.000  H
  H173     1.0000 0.28430  0.23100  0.78000  Biso   1.000  H
  H174     1.0000 0.71570  0.73100  0.72000  Biso   1.000  H
  H175     1.0000 0.71570  0.76900  0.22000  Biso   1.000  H
  H176     1.0000 0.28430  0.26900  0.28000  Biso   1.000  H
  H177     1.0000 0.31300  0.36570  0.77970  Biso   1.000  H
  H178     1.0000 0.68700  0.86570  0.72030  Biso   1.000  H
  H179     1.0000 0.68700  0.63430  0.22030  Biso   1.000  H
  H180     1.0000 0.31300  0.13430  0.27970  Biso   1.000  H
  C181     1.0000 0.37764  0.22320  0.00187  Biso   1.000  C
  C182     1.0000 0.62236  0.72320  0.49813  Biso   1.000  C
  C183     1.0000 0.62236  0.77680  0.99813  Biso   1.000  C
  C184     1.0000 0.37764  0.27680  0.50187  Biso   1.000  C
  H181     1.0000 0.34700  0.17500  0.97800  Biso   1.000  H
  H182     1.0000 0.65300  0.67500  0.52200  Biso   1.000  H
  H183     1.0000 0.65300  0.82500  0.02200  Biso   1.000  H
  H184     1.0000 0.34700  0.32500  0.47800  Biso   1.000  H
  F97      1.0000 0.83620  0.09150  0.80160  Biso   1.000  F
  F98      1.0000 0.16380  0.59150  0.69840  Biso   1.000  F
  F99      1.0000 0.16380  0.90850  0.19840  Biso   1.000  F
  F100     1.0000 0.83620  0.40850  0.30160  Biso   1.000  F
  F101     1.0000 0.89240  0.19600  0.79580  Biso   1.000  F
  F102     1.0000 0.10760  0.69600  0.70420  Biso   1.000  F
  F103     1.0000 0.10760  0.80400  0.20420  Biso   1.000  F
  F104     1.0000 0.89240  0.30400  0.29580  Biso   1.000  F
  F105     1.0000 0.84370  0.30500  0.81150  Biso   1.000  F
  F106     1.0000 0.15630  0.80500  0.68850  Biso   1.000  F
  F107     1.0000 0.15630  0.69500  0.18850  Biso   1.000  F
  F108     1.0000 0.84370  0.19500  0.31150  Biso   1.000  F
  F109     1.0000 0.98280  0.33300  0.10560  Biso   1.000  F
  F110     1.0000 0.01720  0.83300  0.39440  Biso   1.000  F
  F111     1.0000 0.01720  0.66700  0.89440  Biso   1.000  F
  F112     1.0000 0.98280  0.16700  0.60560  Biso   1.000  F
  F113     1.0000 0.90870  0.41860  0.02670  Biso   1.000  F
  F114     1.0000 0.09130  0.91860  0.47330  Biso   1.000  F
  F115     1.0000 0.09130  0.58140  0.97330  Biso   1.000  F
  F116     1.0000 0.90870  0.08140  0.52670  Biso   1.000  F
  F117     1.0000 0.98730  0.46670  0.05230  Biso   1.000  F
  F118     1.0000 0.01270  0.96670  0.44770  Biso   1.000  F
  F119     1.0000 0.01270  0.53330  0.94770  Biso   1.000  F
  F120     1.0000 0.98730  0.03330  0.55230  Biso   1.000  F
  F121     1.0000 0.11680  0.88090  0.94720  Biso   1.000  F
  F122     1.0000 0.88320  0.38090  0.55280  Biso   1.000  F
  F123     1.0000 0.88320  0.11910  0.05280  Biso   1.000  F
  F124     1.0000 0.11680  0.61910  0.44720  Biso   1.000  F
  F125     1.0000 0.17840  0.91660  0.04220  Biso   1.000  F
  F126     1.0000 0.82160  0.41660  0.45780  Biso   1.000  F
  F127     1.0000 0.82160  0.08340  0.95780  Biso   1.000  F
  F128     1.0000 0.17840  0.58340  0.54220  Biso   1.000  F
  F129     1.0000 0.17990  0.75560  0.98250  Biso   1.000  F
  F130     1.0000 0.82010  0.25560  0.51750  Biso   1.000  F
  F131     1.0000 0.82010  0.24440  0.01750  Biso   1.000  F
  F132     1.0000 0.17990  0.74440  0.48250  Biso   1.000  F
  F133     1.0000 0.32360  0.74950  0.00930  Biso   1.000  F
  F134     1.0000 0.67640  0.24950  0.49070  Biso   1.000  F
  F135     1.0000 0.67640  0.25050  0.99070  Biso   1.000  F
  F136     1.0000 0.32360  0.75050  0.50930  Biso   1.000  F
  F137     1.0000 0.31900  0.60250  0.94980  Biso   1.000  F
  F138     1.0000 0.68100  0.10250  0.55020  Biso   1.000  F
  F139     1.0000 0.68100  0.39750  0.05020  Biso   1.000  F
  F140     1.0000 0.31900  0.89750  0.44980  Biso   1.000  F
  F141     1.0000 0.38550  0.61110  0.04350  Biso   1.000  F
  F142     1.0000 0.61450  0.11110  0.45650  Biso   1.000  F
  F143     1.0000 0.61450  0.38890  0.95650  Biso   1.000  F
  F144     1.0000 0.38550  0.88890  0.54350  Biso   1.000  F
  F145     1.0000 0.37310  0.85780  0.82420  Biso   1.000  F
  F146     1.0000 0.62690  0.35780  0.67580  Biso   1.000  F
  F147     1.0000 0.62690  0.14220  0.17580  Biso   1.000  F
  F148     1.0000 0.37310  0.64220  0.32420  Biso   1.000  F
  F149     1.0000 0.38230  0.66070  0.79750  Biso   1.000  F
  F150     1.0000 0.61770  0.16070  0.70250  Biso   1.000  F
  F151     1.0000 0.61770  0.33930  0.20250  Biso   1.000  F
  F152     1.0000 0.38230  0.83930  0.29750  Biso   1.000  F
  F153     1.0000 0.32730  0.69270  0.81760  Biso   1.000  F
  F154     1.0000 0.67270  0.19270  0.68240  Biso   1.000  F
  F155     1.0000 0.67270  0.30730  0.18240  Biso   1.000  F
  F156     1.0000 0.32730  0.80730  0.31760  Biso   1.000  F
  F157     1.0000 0.46000  0.99780  0.03330  Biso   1.000  F
  F158     1.0000 0.54000  0.49780  0.46670  Biso   1.000  F
  F159     1.0000 0.54000  0.00220  0.96670  Biso   1.000  F
  F160     1.0000 0.46000  0.50220  0.53330  Biso   1.000  F
  F161     1.0000 0.52920  0.88340  0.11230  Biso   1.000  F
  F162     1.0000 0.47080  0.38340  0.38770  Biso   1.000  F
  F163     1.0000 0.47080  0.11660  0.88770  Biso   1.000  F
  F164     1.0000 0.52920  0.61660  0.61230  Biso   1.000  F
  F165     1.0000 0.44720  0.87680  0.07780  Biso   1.000  F
  F166     1.0000 0.55280  0.37680  0.42220  Biso   1.000  F
  F167     1.0000 0.55280  0.12320  0.92220  Biso   1.000  F
  F168     1.0000 0.44720  0.62320  0.57780  Biso   1.000  F
