data_image0
_cell_length_a       30.329
_cell_length_b       9.68
_cell_length_c       25.72
_cell_angle_alpha    90
_cell_angle_beta     126.51
_cell_angle_gamma    90

_symmetry_space_group_name_H-M    "P 1"
_symmetry_int_tables_number       1

loop_
  _symmetry_equiv_pos_as_xyz
  'x, y, z'

loop_
  _atom_site_label
  _atom_site_occupancy
  _atom_site_fract_x
  _atom_site_fract_y
  _atom_site_fract_z
  _atom_site_thermal_displace_type
  _atom_site_B_iso_or_equiv
  _atom_site_type_symbol
  Cu1      1.0000 0.00000  0.00000  0.00000  Biso   1.000  Cu
  Cu2      1.0000 0.00000  0.50000  0.50000  Biso   1.000  Cu
  O1       1.0000 0.94226  0.06430  0.91305  Biso   1.000  O
  O2       1.0000 0.05774  0.56430  0.58695  Biso   1.000  O
  O3       1.0000 0.05774  0.93570  0.08695  Biso   1.000  O
  O4       1.0000 0.94226  0.43570  0.41305  Biso   1.000  O
  C1       1.0000 0.87150  0.19880  0.82750  Biso   1.000  C
  C2       1.0000 0.12850  0.69880  0.67250  Biso   1.000  C
  C3       1.0000 0.12850  0.80120  0.17250  Biso   1.000  C
  C4       1.0000 0.87150  0.30120  0.32750  Biso   1.000  C
  F1       1.0000 0.83810  0.29830  0.81370  Biso   1.000  F
  F2       1.0000 0.16190  0.79830  0.68630  Biso   1.000  F
  F3       1.0000 0.16190  0.70170  0.18630  Biso   1.000  F
  F4       1.0000 0.83810  0.20170  0.31370  Biso   1.000  F
  F5       1.0000 0.83960  0.08800  0.79870  Biso   1.000  F
  F6       1.0000 0.16040  0.58800  0.70130  Biso   1.000  F
  F7       1.0000 0.16040  0.91200  0.20130  Biso   1.000  F
  F8       1.0000 0.83960  0.41200  0.29870  Biso   1.000  F
  F9       1.0000 0.89510  0.21600  0.80000  Biso   1.000  F
  F10      1.0000 0.10490  0.71600  0.70000  Biso   1.000  F
  F11      1.0000 0.10490  0.78400  0.20000  Biso   1.000  F
  F12      1.0000 0.89510  0.28400  0.30000  Biso   1.000  F
  C5       1.0000 0.91370  0.17070  0.90040  Biso   1.000  C
  C6       1.0000 0.08630  0.67070  0.59960  Biso   1.000  C
  C7       1.0000 0.08630  0.82930  0.09960  Biso   1.000  C
  C8       1.0000 0.91370  0.32930  0.40040  Biso   1.000  C
  C9       1.0000 0.91700  0.26330  0.94300  Biso   1.000  C
  C10      1.0000 0.08300  0.76330  0.55700  Biso   1.000  C
  C11      1.0000 0.08300  0.73670  0.05700  Biso   1.000  C
  C12      1.0000 0.91700  0.23670  0.44300  Biso   1.000  C
  H1       1.0000 0.89600  0.32200  0.92900  Biso   1.000  H
  H2       1.0000 0.10400  0.82200  0.57100  Biso   1.000  H
  H3       1.0000 0.10400  0.67800  0.07100  Biso   1.000  H
  H4       1.0000 0.89600  0.17800  0.42900  Biso   1.000  H
  C13      1.0000 0.95480  0.24940  0.00910  Biso   1.000  C
  C14      1.0000 0.04520  0.74940  0.49090  Biso   1.000  C
  C15      1.0000 0.04520  0.75060  0.99090  Biso   1.000  C
  C16      1.0000 0.95480  0.25060  0.50910  Biso   1.000  C
  C17      1.0000 0.95790  0.36870  0.05070  Biso   1.000  C
  C18      1.0000 0.04210  0.86870  0.44930  Biso   1.000  C
  C19      1.0000 0.04210  0.63130  0.94930  Biso   1.000  C
  C20      1.0000 0.95790  0.13130  0.55070  Biso   1.000  C
  F13      1.0000 0.90812  0.41210  0.02980  Biso   1.000  F
  F14      1.0000 0.09188  0.91210  0.47020  Biso   1.000  F
  F15      1.0000 0.09188  0.58790  0.97020  Biso   1.000  F
  F16      1.0000 0.90812  0.08790  0.52980  Biso   1.000  F
  F17      1.0000 0.98280  0.33630  0.11060  Biso   1.000  F
  F18      1.0000 0.01720  0.83630  0.38940  Biso   1.000  F
  F19      1.0000 0.01720  0.66370  0.88940  Biso   1.000  F
  F20      1.0000 0.98280  0.16370  0.61060  Biso   1.000  F
  F21      1.0000 0.98150  0.47830  0.04640  Biso   1.000  F
  F22      1.0000 0.01850  0.97830  0.45360  Biso   1.000  F
  F23      1.0000 0.01850  0.52170  0.95360  Biso   1.000  F
  F24      1.0000 0.98150  0.02170  0.54640  Biso   1.000  F
  O5       1.0000 0.98903  0.15580  0.04024  Biso   1.000  O
  O6       1.0000 0.01097  0.65580  0.45976  Biso   1.000  O
  O7       1.0000 0.01097  0.84420  0.95976  Biso   1.000  O
  O8       1.0000 0.98903  0.34420  0.54024  Biso   1.000  O
  Cu3      1.0000 0.25182  0.25361  0.99874  Biso   1.000  Cu
  Cu4      1.0000 0.74818  0.75361  0.50126  Biso   1.000  Cu
  Cu5      1.0000 0.74818  0.74639  0.00126  Biso   1.000  Cu
  Cu6      1.0000 0.25182  0.24639  0.49874  Biso   1.000  Cu
  O9       1.0000 0.24200  0.15250  0.91890  Biso   1.000  O
  O10      1.0000 0.75800  0.65250  0.58110  Biso   1.000  O
  O11      1.0000 0.75800  0.84750  0.08110  Biso   1.000  O
  O12      1.0000 0.24200  0.34750  0.41890  Biso   1.000  O
  C21      1.0000 0.23500  0.97060  0.85520  Biso   1.000  C
  C22      1.0000 0.76500  0.47060  0.64480  Biso   1.000  C
  C23      1.0000 0.76500  0.02940  0.14480  Biso   1.000  C
  C24      1.0000 0.23500  0.52940  0.35520  Biso   1.000  C
  F25      1.0000 0.21090  0.05230  0.80310  Biso   1.000  F
  F26      1.0000 0.78910  0.55230  0.69690  Biso   1.000  F
  F27      1.0000 0.78910  0.94770  0.19690  Biso   1.000  F
  F28      1.0000 0.21090  0.44770  0.30310  Biso   1.000  F
  F29      1.0000 0.21510  0.84640  0.83450  Biso   1.000  F
  F30      1.0000 0.78490  0.34640  0.66550  Biso   1.000  F
  F31      1.0000 0.78490  0.15360  0.16550  Biso   1.000  F
  F32      1.0000 0.21510  0.65360  0.33450  Biso   1.000  F
  F33      1.0000 0.28700  0.96670  0.87900  Biso   1.000  F
  F34      1.0000 0.71300  0.46670  0.62100  Biso   1.000  F
  F35      1.0000 0.71300  0.03330  0.12100  Biso   1.000  F
  F36      1.0000 0.28700  0.53330  0.37900  Biso   1.000  F
  C25      1.0000 0.22750  0.03020  0.90460  Biso   1.000  C
  C26      1.0000 0.77250  0.53020  0.59540  Biso   1.000  C
  C27      1.0000 0.77250  0.96980  0.09540  Biso   1.000  C
  C28      1.0000 0.22750  0.46980  0.40460  Biso   1.000  C
  C29      1.0000 0.20630  0.94510  0.92760  Biso   1.000  C
  C30      1.0000 0.79370  0.44510  0.57240  Biso   1.000  C
  C31      1.0000 0.79370  0.05490  0.07240  Biso   1.000  C
  C32      1.0000 0.20630  0.55490  0.42760  Biso   1.000  C
  H5       1.0000 0.19600  0.85900  0.91000  Biso   1.000  H
  H6       1.0000 0.80400  0.35900  0.59000  Biso   1.000  H
  H7       1.0000 0.80400  0.14100  0.09000  Biso   1.000  H
  H8       1.0000 0.19600  0.64100  0.41000  Biso   1.000  H
  C33      1.0000 0.19910  0.98690  0.97340  Biso   1.000  C
  C34      1.0000 0.80090  0.48690  0.52660  Biso   1.000  C
  C35      1.0000 0.80090  0.01310  0.02660  Biso   1.000  C
  C36      1.0000 0.19910  0.51310  0.47340  Biso   1.000  C
  C37      1.0000 0.17430  0.88550  0.99480  Biso   1.000  C
  C38      1.0000 0.82570  0.38550  0.50520  Biso   1.000  C
  C39      1.0000 0.82570  0.11450  0.00520  Biso   1.000  C
  C40      1.0000 0.17430  0.61450  0.49480  Biso   1.000  C
  F37      1.0000 0.19200  0.90310  0.05370  Biso   1.000  F
  F38      1.0000 0.80800  0.40310  0.44630  Biso   1.000  F
  F39      1.0000 0.80800  0.09690  0.94630  Biso   1.000  F
  F40      1.0000 0.19200  0.59690  0.55370  Biso   1.000  F
  F41      1.0000 0.12190  0.89990  0.96020  Biso   1.000  F
  F42      1.0000 0.87810  0.39990  0.53980  Biso   1.000  F
  F43      1.0000 0.87810  0.10010  0.03980  Biso   1.000  F
  F44      1.0000 0.12190  0.60010  0.46020  Biso   1.000  F
  F45      1.0000 0.18340  0.75610  0.98920  Biso   1.000  F
  F46      1.0000 0.81660  0.25610  0.51080  Biso   1.000  F
  F47      1.0000 0.81660  0.24390  0.01080  Biso   1.000  F
  F48      1.0000 0.18340  0.74390  0.48920  Biso   1.000  F
  O13      1.0000 0.21035  0.10210  0.00120  Biso   1.000  O
  O14      1.0000 0.78965  0.60210  0.49880  Biso   1.000  O
  O15      1.0000 0.78965  0.89790  0.99880  Biso   1.000  O
  O16      1.0000 0.21035  0.39790  0.50120  Biso   1.000  O
  O17      1.0000 0.29307  0.40500  0.99500  Biso   1.000  O
  O18      1.0000 0.70693  0.90500  0.50500  Biso   1.000  O
  O19      1.0000 0.70693  0.59500  0.00500  Biso   1.000  O
  O20      1.0000 0.29307  0.09500  0.49500  Biso   1.000  O
  C41      1.0000 0.32840  0.62150  0.00080  Biso   1.000  C
  C42      1.0000 0.67160  0.12150  0.49920  Biso   1.000  C
  C43      1.0000 0.67160  0.37850  0.99920  Biso   1.000  C
  C44      1.0000 0.32840  0.87850  0.50080  Biso   1.000  C
  F49      1.0000 0.37110  0.58610  0.01040  Biso   1.000  F
  F50      1.0000 0.62890  0.08610  0.48960  Biso   1.000  F
  F51      1.0000 0.62890  0.41390  0.98960  Biso   1.000  F
  F52      1.0000 0.37110  0.91390  0.51040  Biso   1.000  F
  F53      1.0000 0.29410  0.63290  0.93520  Biso   1.000  F
  F54      1.0000 0.70590  0.13290  0.56480  Biso   1.000  F
  F55      1.0000 0.70590  0.36710  0.06480  Biso   1.000  F
  F56      1.0000 0.29410  0.86710  0.43520  Biso   1.000  F
  F57      1.0000 0.32870  0.75000  0.01550  Biso   1.000  F
  F58      1.0000 0.67130  0.25000  0.48450  Biso   1.000  F
  F59      1.0000 0.67130  0.25000  0.98450  Biso   1.000  F
  F60      1.0000 0.32870  0.75000  0.51550  Biso   1.000  F
  C45      1.0000 0.30370  0.52080  0.02230  Biso   1.000  C
  C46      1.0000 0.69630  0.02080  0.47770  Biso   1.000  C
  C47      1.0000 0.69630  0.47920  0.97770  Biso   1.000  C
  C48      1.0000 0.30370  0.97920  0.52230  Biso   1.000  C
  C49      1.0000 0.29740  0.56390  0.06850  Biso   1.000  C
  C50      1.0000 0.70260  0.06390  0.43150  Biso   1.000  C
  C51      1.0000 0.70260  0.43610  0.93150  Biso   1.000  C
  C52      1.0000 0.29740  0.93610  0.56850  Biso   1.000  C
  H9       1.0000 0.30900  0.65200  0.08400  Biso   1.000  H
  H10      1.0000 0.69100  0.15200  0.41600  Biso   1.000  H
  H11      1.0000 0.69100  0.34800  0.91600  Biso   1.000  H
  H12      1.0000 0.30900  0.84800  0.58400  Biso   1.000  H
  C53      1.0000 0.27690  0.47840  0.09250  Biso   1.000  C
  C54      1.0000 0.72310  0.97840  0.40750  Biso   1.000  C
  C55      1.0000 0.72310  0.52160  0.90750  Biso   1.000  C
  C56      1.0000 0.27690  0.02160  0.59250  Biso   1.000  C
  C57      1.0000 0.26840  0.54020  0.14090  Biso   1.000  C
  C58      1.0000 0.73160  0.04020  0.35910  Biso   1.000  C
  C59      1.0000 0.73160  0.45980  0.85910  Biso   1.000  C
  C60      1.0000 0.26840  0.95980  0.64090  Biso   1.000  C
  F61      1.0000 0.28700  0.45860  0.19030  Biso   1.000  F
  F62      1.0000 0.71300  0.95860  0.30970  Biso   1.000  F
  F63      1.0000 0.71300  0.54140  0.80970  Biso   1.000  F
  F64      1.0000 0.28700  0.04140  0.69030  Biso   1.000  F
  F65      1.0000 0.28990  0.66160  0.16230  Biso   1.000  F
  F66      1.0000 0.71010  0.16160  0.33770  Biso   1.000  F
  F67      1.0000 0.71010  0.33840  0.83770  Biso   1.000  F
  F68      1.0000 0.28990  0.83840  0.66230  Biso   1.000  F
  F69      1.0000 0.21550  0.55690  0.11280  Biso   1.000  F
  F70      1.0000 0.78450  0.05690  0.38720  Biso   1.000  F
  F71      1.0000 0.78450  0.44310  0.88720  Biso   1.000  F
  F72      1.0000 0.21550  0.94310  0.61280  Biso   1.000  F
  O21      1.0000 0.26341  0.35530  0.07900  Biso   1.000  O
  O22      1.0000 0.73659  0.85530  0.42100  Biso   1.000  O
  O23      1.0000 0.73659  0.64470  0.92100  Biso   1.000  O
  O24      1.0000 0.26341  0.14470  0.57900  Biso   1.000  O
  Cu7      1.0000 0.50000  0.50000  0.00000  Biso   1.000  Cu
  Cu8      1.0000 0.50000  0.00000  0.50000  Biso   1.000  Cu
  O25      1.0000 0.43756  0.56880  0.91433  Biso   1.000  O
  O26      1.0000 0.56244  0.06880  0.58567  Biso   1.000  O
  O27      1.0000 0.56244  0.43120  0.08567  Biso   1.000  O
  O28      1.0000 0.43756  0.93120  0.41433  Biso   1.000  O
  C61      1.0000 0.37650  0.72350  0.83440  Biso   1.000  C
  C62      1.0000 0.62350  0.22350  0.66560  Biso   1.000  C
  C63      1.0000 0.62350  0.27650  0.16560  Biso   1.000  C
  C64      1.0000 0.37650  0.77650  0.33440  Biso   1.000  C
  F73      1.0000 0.35970  0.84670  0.82280  Biso   1.000  F
  F74      1.0000 0.64030  0.34670  0.67720  Biso   1.000  F
  F75      1.0000 0.64030  0.15330  0.17720  Biso   1.000  F
  F76      1.0000 0.35970  0.65330  0.32280  Biso   1.000  F
  F77      1.0000 0.39220  0.69680  0.80080  Biso   1.000  F
  F78      1.0000 0.60780  0.19680  0.69920  Biso   1.000  F
  F79      1.0000 0.60780  0.30320  0.19920  Biso   1.000  F
  F80      1.0000 0.39220  0.80320  0.30080  Biso   1.000  F
  F81      1.0000 0.33370  0.65740  0.80800  Biso   1.000  F
  F82      1.0000 0.66630  0.15740  0.69200  Biso   1.000  F
  F83      1.0000 0.66630  0.34260  0.19200  Biso   1.000  F
  F84      1.0000 0.33370  0.84260  0.30800  Biso   1.000  F
  C65      1.0000 0.41870  0.68840  0.90580  Biso   1.000  C
  C66      1.0000 0.58130  0.18840  0.59420  Biso   1.000  C
  C67      1.0000 0.58130  0.31160  0.09420  Biso   1.000  C
  C68      1.0000 0.41870  0.81160  0.40580  Biso   1.000  C
  C69      1.0000 0.43160  0.78690  0.95100  Biso   1.000  C
  C70      1.0000 0.56840  0.28690  0.54900  Biso   1.000  C
  C71      1.0000 0.56840  0.21310  0.04900  Biso   1.000  C
  C72      1.0000 0.43160  0.71310  0.45100  Biso   1.000  C
  H13      1.0000 0.41800  0.85300  0.94200  Biso   1.000  H
  H14      1.0000 0.58200  0.35300  0.55800  Biso   1.000  H
  H15      1.0000 0.58200  0.14700  0.05800  Biso   1.000  H
  H16      1.0000 0.41800  0.64700  0.44200  Biso   1.000  H
  C73      1.0000 0.46850  0.76330  0.01650  Biso   1.000  C
  C74      1.0000 0.53150  0.26330  0.48350  Biso   1.000  C
  C75      1.0000 0.53150  0.23670  0.98350  Biso   1.000  C
  C76      1.0000 0.46850  0.73670  0.51650  Biso   1.000  C
  C77      1.0000 0.47900  0.88120  0.06170  Biso   1.000  C
  C78      1.0000 0.52100  0.38120  0.43830  Biso   1.000  C
  C79      1.0000 0.52100  0.11880  0.93830  Biso   1.000  C
  C80      1.0000 0.47900  0.61880  0.56170  Biso   1.000  C
  F85      1.0000 0.46010  0.86560  0.09260  Biso   1.000  F
  F86      1.0000 0.53990  0.36560  0.40740  Biso   1.000  F
  F87      1.0000 0.53990  0.13440  0.90740  Biso   1.000  F
  F88      1.0000 0.46010  0.63440  0.59260  Biso   1.000  F
  F89      1.0000 0.53420  0.89550  0.10880  Biso   1.000  F
  F90      1.0000 0.46580  0.39550  0.39120  Biso   1.000  F
  F91      1.0000 0.46580  0.10450  0.89120  Biso   1.000  F
  F92      1.0000 0.53420  0.60450  0.60880  Biso   1.000  F
  F93      1.0000 0.46790  0.00420  0.03520  Biso   1.000  F
  F94      1.0000 0.53210  0.50420  0.46480  Biso   1.000  F
  F95      1.0000 0.53210  0.99580  0.96480  Biso   1.000  F
  F96      1.0000 0.46790  0.49580  0.53520  Biso   1.000  F
  O29      1.0000 0.49475  0.65670  0.04479  Biso   1.000  O
  O30      1.0000 0.50525  0.15670  0.45521  Biso   1.000  O
  O31      1.0000 0.50525  0.34330  0.95521  Biso   1.000  O
  O32      1.0000 0.49475  0.84330  0.54479  Biso   1.000  O
  O33      1.0000 0.18211  0.38870  0.94890  Biso   1.000  O
  O34      1.0000 0.81789  0.88870  0.55110  Biso   1.000  O
  O35      1.0000 0.81789  0.61130  0.05110  Biso   1.000  O
  O36      1.0000 0.18211  0.11130  0.44890  Biso   1.000  O
  N1       1.0000 0.13460  0.36390  0.89380  Biso   1.000  N
  N2       1.0000 0.86540  0.86390  0.60620  Biso   1.000  N
  N3       1.0000 0.86540  0.63610  0.10620  Biso   1.000  N
  N4       1.0000 0.13460  0.13610  0.39380  Biso   1.000  N
  C81      1.0000 0.11920  0.42690  0.83180  Biso   1.000  C
  C82      1.0000 0.88080  0.92690  0.66820  Biso   1.000  C
  C83      1.0000 0.88080  0.57310  0.16820  Biso   1.000  C
  C84      1.0000 0.11920  0.07310  0.33180  Biso   1.000  C
  C85      1.0000 0.10590  0.57710  0.83310  Biso   1.000  C
  C86      1.0000 0.89410  0.07710  0.66690  Biso   1.000  C
  C87      1.0000 0.89410  0.42290  0.16690  Biso   1.000  C
  C88      1.0000 0.10590  0.92290  0.33310  Biso   1.000  C
  H17      1.0000 0.06900  0.59300  0.83100  Biso   1.000  H
  H18      1.0000 0.93100  0.09300  0.66900  Biso   1.000  H
  H19      1.0000 0.93100  0.40700  0.16900  Biso   1.000  H
  H20      1.0000 0.06900  0.90700  0.33100  Biso   1.000  H
  H21      1.0000 0.09800  0.61900  0.79600  Biso   1.000  H
  H22      1.0000 0.90200  0.11900  0.70400  Biso   1.000  H
  H23      1.0000 0.90200  0.38100  0.20400  Biso   1.000  H
  H24      1.0000 0.09800  0.88100  0.29600  Biso   1.000  H
  H25      1.0000 0.14000  0.59500  0.87500  Biso   1.000  H
  H26      1.0000 0.86000  0.09500  0.62500  Biso   1.000  H
  H27      1.0000 0.86000  0.40500  0.12500  Biso   1.000  H
  H28      1.0000 0.14000  0.90500  0.37500  Biso   1.000  H
  C89      1.0000 0.16790  0.41280  0.82740  Biso   1.000  C
  C90      1.0000 0.83210  0.91280  0.67260  Biso   1.000  C
  C91      1.0000 0.83210  0.58720  0.17260  Biso   1.000  C
  C92      1.0000 0.16790  0.08720  0.32740  Biso   1.000  C
  H29      1.0000 0.17400  0.31900  0.82900  Biso   1.000  H
  H30      1.0000 0.82600  0.81900  0.67100  Biso   1.000  H
  H31      1.0000 0.82600  0.68100  0.17100  Biso   1.000  H
  H32      1.0000 0.17400  0.18100  0.32900  Biso   1.000  H
  H33      1.0000 0.20200  0.49800  0.85600  Biso   1.000  H
  H34      1.0000 0.79800  0.99800  0.64400  Biso   1.000  H
  H35      1.0000 0.79800  0.50200  0.14400  Biso   1.000  H
  H36      1.0000 0.20200  0.00200  0.35600  Biso   1.000  H
  H37      1.0000 0.15900  0.44300  0.79200  Biso   1.000  H
  H38      1.0000 0.84100  0.94300  0.70800  Biso   1.000  H
  H39      1.0000 0.84100  0.55700  0.20800  Biso   1.000  H
  H40      1.0000 0.15900  0.05700  0.29200  Biso   1.000  H
  C93      1.0000 0.06910  0.33700  0.78280  Biso   1.000  C
  C94      1.0000 0.93090  0.83700  0.71720  Biso   1.000  C
  C95      1.0000 0.93090  0.66300  0.21720  Biso   1.000  C
  C96      1.0000 0.06910  0.16300  0.28280  Biso   1.000  C
  C97      1.0000 0.02320  0.41130  0.72180  Biso   1.000  C
  C98      1.0000 0.97680  0.91130  0.77820  Biso   1.000  C
  C99      1.0000 0.97680  0.58870  0.27820  Biso   1.000  C
  C100     1.0000 0.02320  0.08870  0.22180  Biso   1.000  C
  H41      1.0000 0.01300  0.48400  0.73000  Biso   1.000  H
  H42      1.0000 0.98700  0.98400  0.77000  Biso   1.000  H
  H43      1.0000 0.98700  0.51600  0.27000  Biso   1.000  H
  H44      1.0000 0.01300  0.01600  0.23000  Biso   1.000  H
  H45      1.0000 0.99800  0.35300  0.69000  Biso   1.000  H
  H46      1.0000 0.00200  0.85300  0.81000  Biso   1.000  H
  H47      1.0000 0.00200  0.64700  0.31000  Biso   1.000  H
  H48      1.0000 0.99800  0.14700  0.19000  Biso   1.000  H
  H49      1.0000 0.03800  0.41900  0.69200  Biso   1.000  H
  H50      1.0000 0.96200  0.91900  0.80800  Biso   1.000  H
  H51      1.0000 0.96200  0.58100  0.30800  Biso   1.000  H
  H52      1.0000 0.03800  0.08100  0.19200  Biso   1.000  H
  C101     1.0000 0.08180  0.20030  0.76630  Biso   1.000  C
  C102     1.0000 0.91820  0.70030  0.73370  Biso   1.000  C
  C103     1.0000 0.91820  0.79970  0.23370  Biso   1.000  C
  C104     1.0000 0.08180  0.29970  0.26630  Biso   1.000  C
  H53      1.0000 0.10800  0.15200  0.80600  Biso   1.000  H
  H54      1.0000 0.89200  0.65200  0.69400  Biso   1.000  H
  H55      1.0000 0.89200  0.84800  0.19400  Biso   1.000  H
  H56      1.0000 0.10800  0.34800  0.30600  Biso   1.000  H
  H57      1.0000 0.09100  0.21600  0.73700  Biso   1.000  H
  H58      1.0000 0.90900  0.71600  0.76300  Biso   1.000  H
  H59      1.0000 0.90900  0.78400  0.26300  Biso   1.000  H
  H60      1.0000 0.09100  0.28400  0.23700  Biso   1.000  H
  H61      1.0000 0.04800  0.15300  0.73900  Biso   1.000  H
  H62      1.0000 0.95200  0.65300  0.76100  Biso   1.000  H
  H63      1.0000 0.95200  0.84700  0.26100  Biso   1.000  H
  H64      1.0000 0.04800  0.34700  0.23900  Biso   1.000  H
  N5       1.0000 0.04970  0.30320  0.82360  Biso   1.000  N
  N6       1.0000 0.95030  0.80320  0.67640  Biso   1.000  N
  N7       1.0000 0.95030  0.69680  0.17640  Biso   1.000  N
  N8       1.0000 0.04970  0.19680  0.32360  Biso   1.000  N
  O37      1.0000 0.00163  0.25810  0.79990  Biso   1.000  O
  O38      1.0000 0.99837  0.75810  0.70010  Biso   1.000  O
  O39      1.0000 0.99837  0.74190  0.20010  Biso   1.000  O
  O40      1.0000 0.00163  0.24190  0.29990  Biso   1.000  O
  C105     1.0000 0.09160  0.30590  0.88770  Biso   1.000  C
  C106     1.0000 0.90840  0.80590  0.61230  Biso   1.000  C
  C107     1.0000 0.90840  0.69410  0.11230  Biso   1.000  C
  C108     1.0000 0.09160  0.19410  0.38770  Biso   1.000  C
  C109     1.0000 0.09030  0.25590  0.93900  Biso   1.000  C
  C110     1.0000 0.90970  0.75590  0.56100  Biso   1.000  C
  C111     1.0000 0.90970  0.74410  0.06100  Biso   1.000  C
  C112     1.0000 0.09030  0.24410  0.43900  Biso   1.000  C
  C113     1.0000 0.04900  0.17920  0.93460  Biso   1.000  C
  C114     1.0000 0.95100  0.67920  0.56540  Biso   1.000  C
  C115     1.0000 0.95100  0.82080  0.06540  Biso   1.000  C
  C116     1.0000 0.04900  0.32080  0.43460  Biso   1.000  C
  H65      1.0000 0.01600  0.14900  0.89900  Biso   1.000  H
  H66      1.0000 0.98400  0.64900  0.60100  Biso   1.000  H
  H67      1.0000 0.98400  0.85100  0.10100  Biso   1.000  H
  H68      1.0000 0.01600  0.35100  0.39900  Biso   1.000  H
  N9       1.0000 0.06320  0.14220  0.99200  Biso   1.000  N
  N10      1.0000 0.93680  0.64220  0.50800  Biso   1.000  N
  N11      1.0000 0.93680  0.85780  0.00800  Biso   1.000  N
  N12      1.0000 0.06320  0.35780  0.49200  Biso   1.000  N
  N13      1.0000 0.11430  0.19790  0.03460  Biso   1.000  N
  N14      1.0000 0.88570  0.69790  0.46540  Biso   1.000  N
  N15      1.0000 0.88570  0.80210  0.96540  Biso   1.000  N
  N16      1.0000 0.11430  0.30210  0.53460  Biso   1.000  N
  C117     1.0000 0.14660  0.17070  0.10400  Biso   1.000  C
  C118     1.0000 0.85340  0.67070  0.39600  Biso   1.000  C
  C119     1.0000 0.85340  0.82930  0.89600  Biso   1.000  C
  C120     1.0000 0.14660  0.32930  0.60400  Biso   1.000  C
  H69      1.0000 0.18300  0.19000  0.12700  Biso   1.000  H
  H70      1.0000 0.81700  0.69000  0.37300  Biso   1.000  H
  H71      1.0000 0.81700  0.81000  0.87300  Biso   1.000  H
  H72      1.0000 0.18300  0.31000  0.62700  Biso   1.000  H
  H73      1.0000 0.15400  0.07800  0.11500  Biso   1.000  H
  H74      1.0000 0.84600  0.57800  0.38500  Biso   1.000  H
  H75      1.0000 0.84600  0.92200  0.88500  Biso   1.000  H
  H76      1.0000 0.15400  0.42200  0.61500  Biso   1.000  H
  C121     1.0000 0.12600  0.23350  0.13920  Biso   1.000  C
  C122     1.0000 0.87400  0.73350  0.36080  Biso   1.000  C
  C123     1.0000 0.87400  0.76650  0.86080  Biso   1.000  C
  C124     1.0000 0.12600  0.26650  0.63920  Biso   1.000  C
  H77      1.0000 0.16000  0.24900  0.19600  Biso   1.000  H
  H78      1.0000 0.84000  0.74900  0.30400  Biso   1.000  H
  H79      1.0000 0.84000  0.75100  0.80400  Biso   1.000  H
  H80      1.0000 0.16000  0.25100  0.69600  Biso   1.000  H
  H81      1.0000 0.08700  0.18300  0.12900  Biso   1.000  H
  H82      1.0000 0.91300  0.68300  0.37100  Biso   1.000  H
  H83      1.0000 0.91300  0.81700  0.87100  Biso   1.000  H
  H84      1.0000 0.08700  0.31700  0.62900  Biso   1.000  H
  C125     1.0000 0.12180  0.38670  0.13190  Biso   1.000  C
  C126     1.0000 0.87820  0.88670  0.36810  Biso   1.000  C
  C127     1.0000 0.87820  0.61330  0.86810  Biso   1.000  C
  C128     1.0000 0.12180  0.11330  0.63190  Biso   1.000  C
  H85      1.0000 0.11900  0.41200  0.16900  Biso   1.000  H
  H86      1.0000 0.88100  0.91200  0.33100  Biso   1.000  H
  H87      1.0000 0.88100  0.58800  0.83100  Biso   1.000  H
  H88      1.0000 0.11900  0.08800  0.66900  Biso   1.000  H
  H89      1.0000 0.09900  0.40500  0.09100  Biso   1.000  H
  H90      1.0000 0.90100  0.90500  0.40900  Biso   1.000  H
  H91      1.0000 0.90100  0.59500  0.90900  Biso   1.000  H
  H92      1.0000 0.09900  0.09500  0.59100  Biso   1.000  H
  H93      1.0000 0.15400  0.42500  0.15300  Biso   1.000  H
  H94      1.0000 0.84600  0.92500  0.34700  Biso   1.000  H
  H95      1.0000 0.84600  0.57500  0.84700  Biso   1.000  H
  H96      1.0000 0.15400  0.07500  0.65300  Biso   1.000  H
  C129     1.0000 0.13120  0.26520  0.00400  Biso   1.000  C
  C130     1.0000 0.86880  0.76520  0.49600  Biso   1.000  C
  C131     1.0000 0.86880  0.73480  0.99600  Biso   1.000  C
  C132     1.0000 0.13120  0.23480  0.50400  Biso   1.000  C
  H97      1.0000 0.16200  0.31600  0.02700  Biso   1.000  H
  H98      1.0000 0.83800  0.81600  0.47300  Biso   1.000  H
  H99      1.0000 0.83800  0.68400  0.97300  Biso   1.000  H
  H100     1.0000 0.16200  0.18400  0.52700  Biso   1.000  H
  O41      1.0000 0.32037  0.11550  0.05142  Biso   1.000  O
  O42      1.0000 0.67963  0.61550  0.44858  Biso   1.000  O
  O43      1.0000 0.67963  0.88450  0.94858  Biso   1.000  O
  O44      1.0000 0.32037  0.38450  0.55142  Biso   1.000  O
  N17      1.0000 0.36570  0.14440  0.10760  Biso   1.000  N
  N18      1.0000 0.63430  0.64440  0.39240  Biso   1.000  N
  N19      1.0000 0.63430  0.85560  0.89240  Biso   1.000  N
  N20      1.0000 0.36570  0.35560  0.60760  Biso   1.000  N
  C133     1.0000 0.38000  0.08050  0.17020  Biso   1.000  C
  C134     1.0000 0.62000  0.58050  0.32980  Biso   1.000  C
  C135     1.0000 0.62000  0.91950  0.82980  Biso   1.000  C
  C136     1.0000 0.38000  0.41950  0.67020  Biso   1.000  C
  C137     1.0000 0.39480  0.93190  0.16920  Biso   1.000  C
  C138     1.0000 0.60520  0.43190  0.33080  Biso   1.000  C
  C139     1.0000 0.60520  0.06810  0.83080  Biso   1.000  C
  C140     1.0000 0.39480  0.56810  0.66920  Biso   1.000  C
  H101     1.0000 0.42300  0.92400  0.16400  Biso   1.000  H
  H102     1.0000 0.57700  0.42400  0.33600  Biso   1.000  H
  H103     1.0000 0.57700  0.07600  0.83600  Biso   1.000  H
  H104     1.0000 0.42300  0.57600  0.66400  Biso   1.000  H
  H105     1.0000 0.36000  0.89500  0.11900  Biso   1.000  H
  H106     1.0000 0.64000  0.39500  0.38100  Biso   1.000  H
  H107     1.0000 0.64000  0.10500  0.88100  Biso   1.000  H
  H108     1.0000 0.36000  0.60500  0.61900  Biso   1.000  H
  H109     1.0000 0.40600  0.88700  0.20400  Biso   1.000  H
  H110     1.0000 0.59400  0.38700  0.29600  Biso   1.000  H
  H111     1.0000 0.59400  0.11300  0.79600  Biso   1.000  H
  H112     1.0000 0.40600  0.61300  0.70400  Biso   1.000  H
  C141     1.0000 0.33010  0.08910  0.17050  Biso   1.000  C
  C142     1.0000 0.66990  0.58910  0.32950  Biso   1.000  C
  C143     1.0000 0.66990  0.91090  0.82950  Biso   1.000  C
  C144     1.0000 0.33010  0.41090  0.67050  Biso   1.000  C
  H113     1.0000 0.31500  0.18100  0.16700  Biso   1.000  H
  H114     1.0000 0.68500  0.68100  0.33300  Biso   1.000  H
  H115     1.0000 0.68500  0.81900  0.83300  Biso   1.000  H
  H116     1.0000 0.31500  0.31900  0.66700  Biso   1.000  H
  H117     1.0000 0.33600  0.05500  0.20100  Biso   1.000  H
  H118     1.0000 0.66400  0.55500  0.29900  Biso   1.000  H
  H119     1.0000 0.66400  0.94500  0.79900  Biso   1.000  H
  H120     1.0000 0.33600  0.44500  0.70100  Biso   1.000  H
  H121     1.0000 0.29400  0.03000  0.14000  Biso   1.000  H
  H122     1.0000 0.70600  0.53000  0.36000  Biso   1.000  H
  H123     1.0000 0.70600  0.97000  0.86000  Biso   1.000  H
  H124     1.0000 0.29400  0.47000  0.64000  Biso   1.000  H
  C145     1.0000 0.42900  0.17440  0.21930  Biso   1.000  C
  C146     1.0000 0.57100  0.67440  0.28070  Biso   1.000  C
  C147     1.0000 0.57100  0.82560  0.78070  Biso   1.000  C
  C148     1.0000 0.42900  0.32560  0.71930  Biso   1.000  C
  C149     1.0000 0.41170  0.30870  0.23240  Biso   1.000  C
  C150     1.0000 0.58830  0.80870  0.26760  Biso   1.000  C
  C151     1.0000 0.58830  0.69130  0.76760  Biso   1.000  C
  C152     1.0000 0.41170  0.19130  0.73240  Biso   1.000  C
  H125     1.0000 0.38300  0.36700  0.19100  Biso   1.000  H
  H126     1.0000 0.61700  0.86700  0.30900  Biso   1.000  H
  H127     1.0000 0.61700  0.63300  0.80900  Biso   1.000  H
  H128     1.0000 0.38300  0.13300  0.69100  Biso   1.000  H
  H129     1.0000 0.43900  0.36700  0.25500  Biso   1.000  H
  H130     1.0000 0.56100  0.86700  0.24500  Biso   1.000  H
  H131     1.0000 0.56100  0.63300  0.74500  Biso   1.000  H
  H132     1.0000 0.43900  0.13300  0.75500  Biso   1.000  H
  H133     1.0000 0.40300  0.31100  0.26300  Biso   1.000  H
  H134     1.0000 0.59700  0.81100  0.23700  Biso   1.000  H
  H135     1.0000 0.59700  0.68900  0.73700  Biso   1.000  H
  H136     1.0000 0.40300  0.18900  0.76300  Biso   1.000  H
  C153     1.0000 0.47360  0.10240  0.28220  Biso   1.000  C
  C154     1.0000 0.52640  0.60240  0.21780  Biso   1.000  C
  C155     1.0000 0.52640  0.89760  0.71780  Biso   1.000  C
  C156     1.0000 0.47360  0.39760  0.78220  Biso   1.000  C
  H137     1.0000 0.48500  0.02700  0.27500  Biso   1.000  H
  H138     1.0000 0.51500  0.52700  0.22500  Biso   1.000  H
  H139     1.0000 0.51500  0.97300  0.72500  Biso   1.000  H
  H140     1.0000 0.48500  0.47300  0.77500  Biso   1.000  H
  H141     1.0000 0.45900  0.08000  0.30700  Biso   1.000  H
  H142     1.0000 0.54100  0.58000  0.19300  Biso   1.000  H
  H143     1.0000 0.54100  0.92000  0.69300  Biso   1.000  H
  H144     1.0000 0.45900  0.42000  0.80700  Biso   1.000  H
  H145     1.0000 0.50300  0.16300  0.30900  Biso   1.000  H
  H146     1.0000 0.49700  0.66300  0.19100  Biso   1.000  H
  H147     1.0000 0.49700  0.83700  0.69100  Biso   1.000  H
  H148     1.0000 0.50300  0.33700  0.80900  Biso   1.000  H
  N21      1.0000 0.44990  0.21180  0.18130  Biso   1.000  N
  N22      1.0000 0.55010  0.71180  0.31870  Biso   1.000  N
  N23      1.0000 0.55010  0.78820  0.81870  Biso   1.000  N
  N24      1.0000 0.44990  0.28820  0.68130  Biso   1.000  N
  O45      1.0000 0.49750  0.26160  0.20660  Biso   1.000  O
  O46      1.0000 0.50250  0.76160  0.29340  Biso   1.000  O
  O47      1.0000 0.50250  0.73840  0.79340  Biso   1.000  O
  O48      1.0000 0.49750  0.23840  0.70660  Biso   1.000  O
  C157     1.0000 0.40910  0.20400  0.11640  Biso   1.000  C
  C158     1.0000 0.59090  0.70400  0.38360  Biso   1.000  C
  C159     1.0000 0.59090  0.79600  0.88360  Biso   1.000  C
  C160     1.0000 0.40910  0.29600  0.61640  Biso   1.000  C
  C161     1.0000 0.41370  0.25140  0.06660  Biso   1.000  C
  C162     1.0000 0.58630  0.75140  0.43340  Biso   1.000  C
  C163     1.0000 0.58630  0.74860  0.93340  Biso   1.000  C
  C164     1.0000 0.41370  0.24860  0.56660  Biso   1.000  C
  C165     1.0000 0.45410  0.33380  0.07160  Biso   1.000  C
  C166     1.0000 0.54590  0.83380  0.42840  Biso   1.000  C
  C167     1.0000 0.54590  0.66620  0.92840  Biso   1.000  C
  C168     1.0000 0.45410  0.16620  0.57160  Biso   1.000  C
  H149     1.0000 0.47700  0.36000  0.10200  Biso   1.000  H
  H150     1.0000 0.52300  0.86000  0.39800  Biso   1.000  H
  H151     1.0000 0.52300  0.64000  0.89800  Biso   1.000  H
  H152     1.0000 0.47700  0.14000  0.60200  Biso   1.000  H
  N25      1.0000 0.44412  0.35390  0.01480  Biso   1.000  N
  N26      1.0000 0.55588  0.85390  0.48520  Biso   1.000  N
  N27      1.0000 0.55588  0.64610  0.98520  Biso   1.000  N
  N28      1.0000 0.44412  0.14610  0.51480  Biso   1.000  N
  N29      1.0000 0.39657  0.28430  0.97290  Biso   1.000  N
  N30      1.0000 0.60343  0.78430  0.52710  Biso   1.000  N
  N31      1.0000 0.60343  0.71570  0.02710  Biso   1.000  N
  N32      1.0000 0.39657  0.21570  0.47290  Biso   1.000  N
  C169     1.0000 0.37160  0.27770  0.90260  Biso   1.000  C
  C170     1.0000 0.62840  0.77770  0.59740  Biso   1.000  C
  C171     1.0000 0.62840  0.72230  0.09740  Biso   1.000  C
  C172     1.0000 0.37160  0.22230  0.40260  Biso   1.000  C
  H153     1.0000 0.39900  0.31400  0.89800  Biso   1.000  H
  H154     1.0000 0.60100  0.81400  0.60200  Biso   1.000  H
  H155     1.0000 0.60100  0.68600  0.10200  Biso   1.000  H
  H156     1.0000 0.39900  0.18600  0.39800  Biso   1.000  H
  H157     1.0000 0.36900  0.16100  0.88500  Biso   1.000  H
  H158     1.0000 0.63100  0.66100  0.61500  Biso   1.000  H
  H159     1.0000 0.63100  0.83900  0.11500  Biso   1.000  H
  H160     1.0000 0.36900  0.33900  0.38500  Biso   1.000  H
  C173     1.0000 0.31780  0.34740  0.86280  Biso   1.000  C
  C174     1.0000 0.68220  0.84740  0.63720  Biso   1.000  C
  C175     1.0000 0.68220  0.65260  0.13720  Biso   1.000  C
  C176     1.0000 0.31780  0.15260  0.36280  Biso   1.000  C
  H161     1.0000 0.33100  0.45900  0.88300  Biso   1.000  H
  H162     1.0000 0.66900  0.95900  0.61700  Biso   1.000  H
  H163     1.0000 0.66900  0.54100  0.11700  Biso   1.000  H
  H164     1.0000 0.33100  0.04100  0.38300  Biso   1.000  H
  H165     1.0000 0.29300  0.31800  0.87000  Biso   1.000  H
  H166     1.0000 0.70700  0.81800  0.63000  Biso   1.000  H
  H167     1.0000 0.70700  0.68200  0.13000  Biso   1.000  H
  H168     1.0000 0.29300  0.18200  0.37000  Biso   1.000  H
  C177     1.0000 0.28930  0.32950  0.79000  Biso   1.000  C
  C178     1.0000 0.71070  0.82950  0.71000  Biso   1.000  C
  C179     1.0000 0.71070  0.67050  0.21000  Biso   1.000  C
  C180     1.0000 0.28930  0.17050  0.29000  Biso   1.000  C
  H169     1.0000 0.25300  0.39600  0.75900  Biso   1.000  H
  H170     1.0000 0.74700  0.89600  0.74100  Biso   1.000  H
  H171     1.0000 0.74700  0.60400  0.24100  Biso   1.000  H
  H172     1.0000 0.25300  0.10400  0.25900  Biso   1.000  H
  H173     1.0000 0.29500  0.23000  0.78600  Biso   1.000  H
  H174     1.0000 0.70500  0.73000  0.71400  Biso   1.000  H
  H175     1.0000 0.70500  0.77000  0.21400  Biso   1.000  H
  H176     1.0000 0.29500  0.27000  0.28600  Biso   1.000  H
  H177     1.0000 0.32200  0.37200  0.78700  Biso   1.000  H
  H178     1.0000 0.67800  0.87200  0.71300  Biso   1.000  H
  H179     1.0000 0.67800  0.62800  0.21300  Biso   1.000  H
  H180     1.0000 0.32200  0.12800  0.28700  Biso   1.000  H
  C181     1.0000 0.37710  0.22350  0.00130  Biso   1.000  C
  C182     1.0000 0.62290  0.72350  0.49870  Biso   1.000  C
  C183     1.0000 0.62290  0.77650  0.99870  Biso   1.000  C
  C184     1.0000 0.37710  0.27650  0.50130  Biso   1.000  C
  H181     1.0000 0.34900  0.17200  0.98200  Biso   1.000  H
  H182     1.0000 0.65100  0.67200  0.51800  Biso   1.000  H
  H183     1.0000 0.65100  0.82800  0.01800  Biso   1.000  H
  H184     1.0000 0.34900  0.32800  0.48200  Biso   1.000  H
