data_image0
_cell_length_a       30.086
_cell_length_b       9.6786
_cell_length_c       25.227
_cell_angle_alpha    90
_cell_angle_beta     125.674
_cell_angle_gamma    90

_symmetry_space_group_name_H-M    "P 1"
_symmetry_int_tables_number       1

loop_
  _symmetry_equiv_pos_as_xyz
  'x, y, z'

loop_
  _atom_site_label
  _atom_site_occupancy
  _atom_site_fract_x
  _atom_site_fract_y
  _atom_site_fract_z
  _atom_site_thermal_displace_type
  _atom_site_B_iso_or_equiv
  _atom_site_type_symbol
  Cu1      1.0000 0.00000  0.50000  0.00000  Biso   1.000  Cu
  Cu2      1.0000 0.50000  0.00000  0.50000  Biso   1.000  Cu
  O1       1.0000 0.97767  0.43300  0.91372  Biso   1.000  O
  O2       1.0000 0.52233  0.93300  0.58628  Biso   1.000  O
  O3       1.0000 0.02233  0.56700  0.08628  Biso   1.000  O
  O4       1.0000 0.47767  0.06700  0.41372  Biso   1.000  O
  C1       1.0000 0.95775  0.27650  0.83173  Biso   1.000  C
  C2       1.0000 0.54225  0.77650  0.66827  Biso   1.000  C
  C3       1.0000 0.04225  0.72350  0.16827  Biso   1.000  C
  C4       1.0000 0.45775  0.22350  0.33173  Biso   1.000  C
  F1       1.0000 0.95440  0.14500  0.82230  Biso   1.000  F
  F2       1.0000 0.54560  0.64500  0.67770  Biso   1.000  F
  F3       1.0000 0.04560  0.85500  0.17770  Biso   1.000  F
  F4       1.0000 0.45440  0.35500  0.32230  Biso   1.000  F
  F5       1.0000 0.99000  0.31720  0.81410  Biso   1.000  F
  F6       1.0000 0.51000  0.81720  0.68590  Biso   1.000  F
  F7       1.0000 0.01000  0.68280  0.18590  Biso   1.000  F
  F8       1.0000 0.49000  0.18280  0.31410  Biso   1.000  F
  F9       1.0000 0.91350  0.33510  0.79530  Biso   1.000  F
  F10      1.0000 0.58650  0.83510  0.70470  Biso   1.000  F
  F11      1.0000 0.08650  0.66490  0.20470  Biso   1.000  F
  F12      1.0000 0.41350  0.16490  0.29530  Biso   1.000  F
  C5       1.0000 0.98711  0.31267  0.90416  Biso   1.000  C
  C6       1.0000 0.51289  0.81267  0.59584  Biso   1.000  C
  C7       1.0000 0.01289  0.68733  0.09584  Biso   1.000  C
  C8       1.0000 0.48711  0.18733  0.40416  Biso   1.000  C
  C9       1.0000 0.01912  0.21118  0.94976  Biso   1.000  C
  C10      1.0000 0.48088  0.71118  0.55024  Biso   1.000  C
  C11      1.0000 0.98088  0.78882  0.05024  Biso   1.000  C
  C12      1.0000 0.51912  0.28882  0.44976  Biso   1.000  C
  H1       1.0000 0.02160  0.12320  0.93500  Biso   1.000  H
  H2       1.0000 0.47840  0.62320  0.56500  Biso   1.000  H
  H3       1.0000 0.97840  0.87680  0.06500  Biso   1.000  H
  H4       1.0000 0.52160  0.37680  0.43500  Biso   1.000  H
  C13      1.0000 0.04765  0.23422  0.01645  Biso   1.000  C
  C14      1.0000 0.45235  0.73422  0.48355  Biso   1.000  C
  C15      1.0000 0.95235  0.76578  0.98355  Biso   1.000  C
  C16      1.0000 0.54765  0.26578  0.51645  Biso   1.000  C
  C17      1.0000 0.08070  0.11390  0.06234  Biso   1.000  C
  C18      1.0000 0.41930  0.61390  0.43766  Biso   1.000  C
  C19      1.0000 0.91930  0.88610  0.93766  Biso   1.000  C
  C20      1.0000 0.58070  0.38610  0.56234  Biso   1.000  C
  F13      1.0000 0.06380  0.99040  0.03480  Biso   1.000  F
  F14      1.0000 0.43620  0.49040  0.46520  Biso   1.000  F
  F15      1.0000 0.93620  0.00960  0.96520  Biso   1.000  F
  F16      1.0000 0.56380  0.50960  0.53480  Biso   1.000  F
  F17      1.0000 0.07690  0.10770  0.11150  Biso   1.000  F
  F18      1.0000 0.42310  0.60770  0.38850  Biso   1.000  F
  F19      1.0000 0.92310  0.89230  0.88850  Biso   1.000  F
  F20      1.0000 0.57690  0.39230  0.61150  Biso   1.000  F
  F21      1.0000 0.12910  0.12580  0.08620  Biso   1.000  F
  F22      1.0000 0.37090  0.62580  0.41380  Biso   1.000  F
  F23      1.0000 0.87090  0.87420  0.91380  Biso   1.000  F
  F24      1.0000 0.62910  0.37420  0.58620  Biso   1.000  F
  O5       1.0000 0.05014  0.34249  0.04538  Biso   1.000  O
  O6       1.0000 0.44986  0.84249  0.45462  Biso   1.000  O
  O7       1.0000 0.94986  0.65751  0.95462  Biso   1.000  O
  O8       1.0000 0.55014  0.15751  0.54538  Biso   1.000  O
  Cu3      1.0000 0.75289  0.25565  0.00108  Biso   1.000  Cu
  Cu4      1.0000 0.74711  0.75565  0.49892  Biso   1.000  Cu
  Cu5      1.0000 0.24711  0.74435  0.99892  Biso   1.000  Cu
  Cu6      1.0000 0.25289  0.24435  0.50108  Biso   1.000  Cu
  O9       1.0000 0.71065  0.10363  0.00288  Biso   1.000  O
  O10      1.0000 0.78935  0.60363  0.49712  Biso   1.000  O
  O11      1.0000 0.28935  0.89637  0.99712  Biso   1.000  O
  O12      1.0000 0.21065  0.39637  0.50288  Biso   1.000  O
  C21      1.0000 0.68099  0.88500  0.00806  Biso   1.000  C
  C22      1.0000 0.81901  0.38500  0.49194  Biso   1.000  C
  C23      1.0000 0.31901  0.11500  0.99194  Biso   1.000  C
  C24      1.0000 0.18099  0.61500  0.50806  Biso   1.000  C
  F25      1.0000 0.64180  0.89510  0.94370  Biso   1.000  F
  F26      1.0000 0.85820  0.39510  0.55630  Biso   1.000  F
  F27      1.0000 0.35820  0.10490  0.05630  Biso   1.000  F
  F28      1.0000 0.14180  0.60490  0.44370  Biso   1.000  F
  F29      1.0000 0.65770  0.90200  0.03630  Biso   1.000  F
  F30      1.0000 0.84230  0.40200  0.46370  Biso   1.000  F
  F31      1.0000 0.34230  0.09800  0.96370  Biso   1.000  F
  F32      1.0000 0.15770  0.59800  0.53630  Biso   1.000  F
  F33      1.0000 0.69680  0.74220  0.01120  Biso   1.000  F
  F34      1.0000 0.80320  0.24220  0.48880  Biso   1.000  F
  F35      1.0000 0.30320  0.25780  0.98880  Biso   1.000  F
  F36      1.0000 0.19680  0.75780  0.51120  Biso   1.000  F
  C25      1.0000 0.72748  0.98696  0.02898  Biso   1.000  C
  C26      1.0000 0.77252  0.48696  0.47102  Biso   1.000  C
  C27      1.0000 0.27252  0.01304  0.97102  Biso   1.000  C
  C28      1.0000 0.22748  0.51304  0.52898  Biso   1.000  C
  C29      1.0000 0.78050  0.94180  0.07371  Biso   1.000  C
  C30      1.0000 0.71950  0.44180  0.42629  Biso   1.000  C
  C31      1.0000 0.21950  0.05820  0.92629  Biso   1.000  C
  C32      1.0000 0.28050  0.55820  0.57371  Biso   1.000  C
  H5       1.0000 0.78640  0.84880  0.08850  Biso   1.000  H
  H6       1.0000 0.71360  0.34880  0.41150  Biso   1.000  H
  H7       1.0000 0.21360  0.15120  0.91150  Biso   1.000  H
  H8       1.0000 0.28640  0.65120  0.58850  Biso   1.000  H
  C33      1.0000 0.82568  0.02760  0.09795  Biso   1.000  C
  C34      1.0000 0.67432  0.52760  0.40205  Biso   1.000  C
  C35      1.0000 0.17432  0.97240  0.90205  Biso   1.000  C
  C36      1.0000 0.32568  0.47240  0.59795  Biso   1.000  C
  C37      1.0000 0.88285  0.96680  0.14665  Biso   1.000  C
  C38      1.0000 0.61715  0.46680  0.35335  Biso   1.000  C
  C39      1.0000 0.11715  0.03320  0.85335  Biso   1.000  C
  C40      1.0000 0.38285  0.53320  0.64665  Biso   1.000  C
  F37      1.0000 0.88294  0.83854  0.16502  Biso   1.000  F
  F38      1.0000 0.61706  0.33854  0.33498  Biso   1.000  F
  F39      1.0000 0.11706  0.16146  0.83498  Biso   1.000  F
  F40      1.0000 0.38294  0.66146  0.66502  Biso   1.000  F
  F41      1.0000 0.91116  0.04330  0.20032  Biso   1.000  F
  F42      1.0000 0.58884  0.54330  0.29968  Biso   1.000  F
  F43      1.0000 0.08884  0.95670  0.79968  Biso   1.000  F
  F44      1.0000 0.41116  0.45670  0.70032  Biso   1.000  F
  F45      1.0000 0.91043  0.96510  0.12045  Biso   1.000  F
  F46      1.0000 0.58957  0.46510  0.37955  Biso   1.000  F
  F47      1.0000 0.08957  0.03490  0.87955  Biso   1.000  F
  F48      1.0000 0.41043  0.53490  0.62045  Biso   1.000  F
  O13      1.0000 0.82620  0.15123  0.08498  Biso   1.000  O
  O14      1.0000 0.67380  0.65123  0.41502  Biso   1.000  O
  O15      1.0000 0.17380  0.84877  0.91502  Biso   1.000  O
  O16      1.0000 0.32620  0.34877  0.58498  Biso   1.000  O
  O17      1.0000 0.68086  0.36166  0.91579  Biso   1.000  O
  O18      1.0000 0.81914  0.86166  0.58421  Biso   1.000  O
  O19      1.0000 0.31914  0.63834  0.08421  Biso   1.000  O
  O20      1.0000 0.18086  0.13834  0.41579  Biso   1.000  O
  C41      1.0000 0.62554  0.55190  0.85813  Biso   1.000  C
  C42      1.0000 0.87446  0.05190  0.64187  Biso   1.000  C
  C43      1.0000 0.37446  0.44810  0.14187  Biso   1.000  C
  C44      1.0000 0.12554  0.94810  0.35813  Biso   1.000  C
  F49      1.0000 0.60133  0.56524  0.88816  Biso   1.000  F
  F50      1.0000 0.89867  0.06524  0.61184  Biso   1.000  F
  F51      1.0000 0.39867  0.43476  0.11184  Biso   1.000  F
  F52      1.0000 0.10133  0.93476  0.38816  Biso   1.000  F
  F53      1.0000 0.59325  0.47520  0.80617  Biso   1.000  F
  F54      1.0000 0.90675  0.97520  0.69383  Biso   1.000  F
  F55      1.0000 0.40675  0.52480  0.19383  Biso   1.000  F
  F56      1.0000 0.09325  0.02480  0.30617  Biso   1.000  F
  F57      1.0000 0.62658  0.67687  0.83752  Biso   1.000  F
  F58      1.0000 0.87342  0.17687  0.66248  Biso   1.000  F
  F59      1.0000 0.37342  0.32313  0.16248  Biso   1.000  F
  F60      1.0000 0.12658  0.82313  0.33752  Biso   1.000  F
  C45      1.0000 0.68241  0.48590  0.90474  Biso   1.000  C
  C46      1.0000 0.81759  0.98590  0.59526  Biso   1.000  C
  C47      1.0000 0.31759  0.51410  0.09526  Biso   1.000  C
  C48      1.0000 0.18241  0.01410  0.40474  Biso   1.000  C
  C49      1.0000 0.72810  0.56990  0.92970  Biso   1.000  C
  C50      1.0000 0.77190  0.06990  0.57030  Biso   1.000  C
  C51      1.0000 0.27190  0.43010  0.07030  Biso   1.000  C
  C52      1.0000 0.22810  0.93010  0.42970  Biso   1.000  C
  H9       1.0000 0.72290  0.66250  0.91470  Biso   1.000  H
  H10      1.0000 0.77710  0.16250  0.58530  Biso   1.000  H
  H11      1.0000 0.27710  0.33750  0.08530  Biso   1.000  H
  H12      1.0000 0.22290  0.83750  0.41470  Biso   1.000  H
  C53      1.0000 0.78079  0.52382  0.97552  Biso   1.000  C
  C54      1.0000 0.71921  0.02382  0.52448  Biso   1.000  C
  C55      1.0000 0.21921  0.47618  0.02448  Biso   1.000  C
  C56      1.0000 0.28079  0.97618  0.47552  Biso   1.000  C
  C57      1.0000 0.82803  0.62540  0.00009  Biso   1.000  C
  C58      1.0000 0.67197  0.12540  0.49991  Biso   1.000  C
  C59      1.0000 0.17197  0.37460  0.99991  Biso   1.000  C
  C60      1.0000 0.32803  0.87460  0.50009  Biso   1.000  C
  F61      1.0000 0.81110  0.76580  0.98100  Biso   1.000  F
  F62      1.0000 0.68890  0.26580  0.51900  Biso   1.000  F
  F63      1.0000 0.18890  0.23420  0.01900  Biso   1.000  F
  F64      1.0000 0.31110  0.73420  0.48100  Biso   1.000  F
  F65      1.0000 0.85410  0.64320  0.06600  Biso   1.000  F
  F66      1.0000 0.64590  0.14320  0.43400  Biso   1.000  F
  F67      1.0000 0.14590  0.35680  0.93400  Biso   1.000  F
  F68      1.0000 0.35410  0.85680  0.56600  Biso   1.000  F
  F69      1.0000 0.86503  0.58090  0.99530  Biso   1.000  F
  F70      1.0000 0.63497  0.08090  0.50470  Biso   1.000  F
  F71      1.0000 0.13497  0.41910  0.00470  Biso   1.000  F
  F72      1.0000 0.36503  0.91910  0.49530  Biso   1.000  F
  O21      1.0000 0.79698  0.40649  0.00167  Biso   1.000  O
  O22      1.0000 0.70302  0.90649  0.49833  Biso   1.000  O
  O23      1.0000 0.20302  0.59351  0.99833  Biso   1.000  O
  O24      1.0000 0.29698  0.09351  0.50167  Biso   1.000  O
  Cu7      1.0000 0.50000  0.00000  0.00000  Biso   1.000  Cu
  Cu8      1.0000 0.00000  0.50000  0.50000  Biso   1.000  Cu
  O25      1.0000 0.44811  0.15590  0.95966  Biso   1.000  O
  O26      1.0000 0.05189  0.65590  0.54034  Biso   1.000  O
  O27      1.0000 0.55189  0.84410  0.04034  Biso   1.000  O
  O28      1.0000 0.94811  0.34410  0.45966  Biso   1.000  O
  C61      1.0000 0.40622  0.36910  0.94994  Biso   1.000  C
  C62      1.0000 0.09378  0.86910  0.55006  Biso   1.000  C
  C63      1.0000 0.59378  0.63090  0.05006  Biso   1.000  C
  C64      1.0000 0.90622  0.13090  0.44994  Biso   1.000  C
  F73      1.0000 0.43501  0.47882  0.95460  Biso   1.000  F
  F74      1.0000 0.06499  0.97882  0.54540  Biso   1.000  F
  F75      1.0000 0.56499  0.52118  0.04540  Biso   1.000  F
  F76      1.0000 0.93501  0.02118  0.45460  Biso   1.000  F
  F77      1.0000 0.37198  0.33705  0.88819  Biso   1.000  F
  F78      1.0000 0.12802  0.83705  0.61181  Biso   1.000  F
  F79      1.0000 0.62802  0.66295  0.11181  Biso   1.000  F
  F80      1.0000 0.87198  0.16295  0.38819  Biso   1.000  F
  F81      1.0000 0.37659  0.41078  0.97074  Biso   1.000  F
  F82      1.0000 0.12341  0.91078  0.52926  Biso   1.000  F
  F83      1.0000 0.62341  0.58922  0.02926  Biso   1.000  F
  F84      1.0000 0.87659  0.08922  0.47074  Biso   1.000  F
  C65      1.0000 0.44487  0.24987  0.99114  Biso   1.000  C
  C66      1.0000 0.05513  0.74987  0.50886  Biso   1.000  C
  C67      1.0000 0.55513  0.75013  0.00886  Biso   1.000  C
  C68      1.0000 0.94487  0.25013  0.49114  Biso   1.000  C
  C69      1.0000 0.47288  0.26211  0.05868  Biso   1.000  C
  C70      1.0000 0.02712  0.76211  0.44132  Biso   1.000  C
  C71      1.0000 0.52712  0.73789  0.94132  Biso   1.000  C
  C72      1.0000 0.97288  0.23789  0.55868  Biso   1.000  C
  H13      1.0000 0.46400  0.33610  0.07570  Biso   1.000  H
  H14      1.0000 0.03600  0.83610  0.42430  Biso   1.000  H
  H15      1.0000 0.53600  0.66390  0.92430  Biso   1.000  H
  H16      1.0000 0.96400  0.16390  0.57570  Biso   1.000  H
  C73      1.0000 0.51298  0.16979  0.10113  Biso   1.000  C
  C74      1.0000 0.98702  0.66979  0.39887  Biso   1.000  C
  C75      1.0000 0.48702  0.83021  0.89887  Biso   1.000  C
  C76      1.0000 0.01298  0.33021  0.60113  Biso   1.000  C
  C77      1.0000 0.54355  0.19485  0.17465  Biso   1.000  C
  C78      1.0000 0.95645  0.69485  0.32535  Biso   1.000  C
  C79      1.0000 0.45645  0.80515  0.82535  Biso   1.000  C
  C80      1.0000 0.04355  0.30515  0.67465  Biso   1.000  C
  F85      1.0000 0.59270  0.23700  0.19890  Biso   1.000  F
  F86      1.0000 0.90730  0.73700  0.30110  Biso   1.000  F
  F87      1.0000 0.40730  0.76300  0.80110  Biso   1.000  F
  F88      1.0000 0.09270  0.26300  0.69890  Biso   1.000  F
  F89      1.0000 0.54550  0.08410  0.20560  Biso   1.000  F
  F90      1.0000 0.95450  0.58410  0.29440  Biso   1.000  F
  F91      1.0000 0.45450  0.91590  0.79440  Biso   1.000  F
  F92      1.0000 0.04550  0.41590  0.70560  Biso   1.000  F
  F93      1.0000 0.52030  0.29120  0.18860  Biso   1.000  F
  F94      1.0000 0.97970  0.79120  0.31140  Biso   1.000  F
  F95      1.0000 0.47970  0.70880  0.81140  Biso   1.000  F
  F96      1.0000 0.02030  0.20880  0.68860  Biso   1.000  F
  O29      1.0000 0.52956  0.06390  0.08835  Biso   1.000  O
  O30      1.0000 0.97044  0.56390  0.41165  Biso   1.000  O
  O31      1.0000 0.47044  0.93610  0.91165  Biso   1.000  O
  O32      1.0000 0.02956  0.43610  0.58835  Biso   1.000  O
  O33      1.0000 0.73324  0.38808  0.04858  Biso   1.000  O
  O34      1.0000 0.76676  0.88808  0.45142  Biso   1.000  O
  O35      1.0000 0.26676  0.61192  0.95142  Biso   1.000  O
  O36      1.0000 0.23324  0.11192  0.54858  Biso   1.000  O
  N1       1.0000 0.74093  0.36292  0.10426  Biso   1.000  N
  N2       1.0000 0.75907  0.86292  0.39574  Biso   1.000  N
  N3       1.0000 0.25907  0.63708  0.89574  Biso   1.000  N
  N4       1.0000 0.24093  0.13708  0.60426  Biso   1.000  N
  C81      1.0000 0.78797  0.42606  0.16698  Biso   1.000  C
  C82      1.0000 0.71203  0.92606  0.33302  Biso   1.000  C
  C83      1.0000 0.21203  0.57394  0.83302  Biso   1.000  C
  C84      1.0000 0.28797  0.07394  0.66698  Biso   1.000  C
  C85      1.0000 0.84072  0.41450  0.17215  Biso   1.000  C
  C86      1.0000 0.65928  0.91450  0.32785  Biso   1.000  C
  C87      1.0000 0.15928  0.58550  0.82785  Biso   1.000  C
  C88      1.0000 0.34072  0.08550  0.67215  Biso   1.000  C
  H17      1.0000 0.87070  0.45610  0.21320  Biso   1.000  H
  H18      1.0000 0.62930  0.95610  0.28680  Biso   1.000  H
  H19      1.0000 0.12930  0.54390  0.78680  Biso   1.000  H
  H20      1.0000 0.37070  0.04390  0.71320  Biso   1.000  H
  H21      1.0000 0.84890  0.31690  0.17110  Biso   1.000  H
  H22      1.0000 0.65110  0.81690  0.32890  Biso   1.000  H
  H23      1.0000 0.15110  0.68310  0.82890  Biso   1.000  H
  H24      1.0000 0.34890  0.18310  0.67110  Biso   1.000  H
  H25      1.0000 0.83660  0.46300  0.13540  Biso   1.000  H
  H26      1.0000 0.66340  0.96300  0.36460  Biso   1.000  H
  H27      1.0000 0.16340  0.53700  0.86460  Biso   1.000  H
  H28      1.0000 0.33660  0.03700  0.63540  Biso   1.000  H
  C89      1.0000 0.77260  0.57746  0.16481  Biso   1.000  C
  C90      1.0000 0.72740  0.07746  0.33519  Biso   1.000  C
  C91      1.0000 0.22740  0.42254  0.83519  Biso   1.000  C
  C92      1.0000 0.27260  0.92254  0.66481  Biso   1.000  C
  H29      1.0000 0.80190  0.62420  0.20470  Biso   1.000  H
  H30      1.0000 0.69810  0.12420  0.29530  Biso   1.000  H
  H31      1.0000 0.19810  0.37580  0.79530  Biso   1.000  H
  H32      1.0000 0.30190  0.87580  0.70470  Biso   1.000  H
  H33      1.0000 0.76750  0.62250  0.12680  Biso   1.000  H
  H34      1.0000 0.73250  0.12250  0.37320  Biso   1.000  H
  H35      1.0000 0.23250  0.37750  0.87320  Biso   1.000  H
  H36      1.0000 0.26750  0.87750  0.62680  Biso   1.000  H
  H37      1.0000 0.73850  0.58280  0.16150  Biso   1.000  H
  H38      1.0000 0.76150  0.08280  0.33850  Biso   1.000  H
  H39      1.0000 0.26150  0.41720  0.83850  Biso   1.000  H
  H40      1.0000 0.23850  0.91720  0.66150  Biso   1.000  H
  C93      1.0000 0.78563  0.33776  0.21662  Biso   1.000  C
  C94      1.0000 0.71437  0.83776  0.28338  Biso   1.000  C
  C95      1.0000 0.21437  0.66224  0.78338  Biso   1.000  C
  C96      1.0000 0.28563  0.16224  0.71662  Biso   1.000  C
  C97      1.0000 0.80191  0.41210  0.27871  Biso   1.000  C
  C98      1.0000 0.69809  0.91210  0.22129  Biso   1.000  C
  C99      1.0000 0.19809  0.58790  0.72129  Biso   1.000  C
  C100     1.0000 0.30191  0.08790  0.77871  Biso   1.000  C
  H41      1.0000 0.84100  0.43390  0.30480  Biso   1.000  H
  H42      1.0000 0.65900  0.93390  0.19520  Biso   1.000  H
  H43      1.0000 0.15900  0.56610  0.69520  Biso   1.000  H
  H44      1.0000 0.34100  0.06610  0.80480  Biso   1.000  H
  H45      1.0000 0.78080  0.49780  0.26730  Biso   1.000  H
  H46      1.0000 0.71920  0.99780  0.23270  Biso   1.000  H
  H47      1.0000 0.21920  0.50220  0.73270  Biso   1.000  H
  H48      1.0000 0.28080  0.00220  0.76730  Biso   1.000  H
  H49      1.0000 0.79430  0.35240  0.30400  Biso   1.000  H
  H50      1.0000 0.70570  0.85240  0.19600  Biso   1.000  H
  H51      1.0000 0.20570  0.64760  0.69600  Biso   1.000  H
  H52      1.0000 0.29430  0.14760  0.80400  Biso   1.000  H
  C101     1.0000 0.81553  0.19920  0.23250  Biso   1.000  C
  C102     1.0000 0.68447  0.69920  0.26750  Biso   1.000  C
  C103     1.0000 0.18447  0.80080  0.76750  Biso   1.000  C
  C104     1.0000 0.31553  0.30080  0.73250  Biso   1.000  C
  H53      1.0000 0.85510  0.21530  0.25940  Biso   1.000  H
  H54      1.0000 0.64490  0.71530  0.24060  Biso   1.000  H
  H55      1.0000 0.14490  0.78470  0.74060  Biso   1.000  H
  H56      1.0000 0.35510  0.28470  0.75940  Biso   1.000  H
  H57      1.0000 0.80620  0.14060  0.25640  Biso   1.000  H
  H58      1.0000 0.69380  0.64060  0.24360  Biso   1.000  H
  H59      1.0000 0.19380  0.85940  0.74360  Biso   1.000  H
  H60      1.0000 0.30620  0.35940  0.75640  Biso   1.000  H
  H61      1.0000 0.80430  0.15320  0.19190  Biso   1.000  H
  H62      1.0000 0.69570  0.65320  0.30810  Biso   1.000  H
  H63      1.0000 0.19570  0.84680  0.80810  Biso   1.000  H
  H64      1.0000 0.30430  0.34680  0.69190  Biso   1.000  H
  N5       1.0000 0.72558  0.30293  0.17552  Biso   1.000  N
  N6       1.0000 0.77442  0.80293  0.32448  Biso   1.000  N
  N7       1.0000 0.27442  0.69707  0.82448  Biso   1.000  N
  N8       1.0000 0.22558  0.19707  0.67552  Biso   1.000  N
  O37      1.0000 0.70130  0.25785  0.19979  Biso   1.000  O
  O38      1.0000 0.79870  0.75785  0.30021  Biso   1.000  O
  O39      1.0000 0.29870  0.74215  0.80021  Biso   1.000  O
  O40      1.0000 0.20130  0.24215  0.69979  Biso   1.000  O
  C105     1.0000 0.70398  0.30649  0.11101  Biso   1.000  C
  C106     1.0000 0.79602  0.80649  0.38899  Biso   1.000  C
  C107     1.0000 0.29602  0.69351  0.88899  Biso   1.000  C
  C108     1.0000 0.20398  0.19351  0.61101  Biso   1.000  C
  C109     1.0000 0.65079  0.25634  0.05954  Biso   1.000  C
  C110     1.0000 0.84921  0.75634  0.44046  Biso   1.000  C
  C111     1.0000 0.34921  0.74366  0.94046  Biso   1.000  C
  C112     1.0000 0.15079  0.24366  0.55954  Biso   1.000  C
  C113     1.0000 0.61363  0.17874  0.06424  Biso   1.000  C
  C114     1.0000 0.88637  0.67874  0.43576  Biso   1.000  C
  C115     1.0000 0.38637  0.82126  0.93576  Biso   1.000  C
  C116     1.0000 0.11363  0.32126  0.56424  Biso   1.000  C
  H65      1.0000 0.61920  0.15490  0.10420  Biso   1.000  H
  H66      1.0000 0.88080  0.65490  0.39580  Biso   1.000  H
  H67      1.0000 0.38080  0.84510  0.89580  Biso   1.000  H
  H68      1.0000 0.11920  0.34510  0.60420  Biso   1.000  H
  N9       1.0000 0.56996  0.14313  0.00589  Biso   1.000  N
  N10      1.0000 0.93004  0.64313  0.49411  Biso   1.000  N
  N11      1.0000 0.43004  0.85687  0.99411  Biso   1.000  N
  N12      1.0000 0.06996  0.35687  0.50589  Biso   1.000  N
  N13      1.0000 0.57883  0.19811  0.96278  Biso   1.000  N
  N14      1.0000 0.92117  0.69811  0.53722  Biso   1.000  N
  N15      1.0000 0.42117  0.80189  0.03722  Biso   1.000  N
  N16      1.0000 0.07883  0.30189  0.46278  Biso   1.000  N
  C117     1.0000 0.54163  0.17057  0.89238  Biso   1.000  C
  C118     1.0000 0.95837  0.67057  0.60762  Biso   1.000  C
  C119     1.0000 0.45837  0.82943  0.10762  Biso   1.000  C
  C120     1.0000 0.04163  0.32943  0.39238  Biso   1.000  C
  H69      1.0000 0.53750  0.06940  0.88540  Biso   1.000  H
  H70      1.0000 0.96250  0.56940  0.61460  Biso   1.000  H
  H71      1.0000 0.46250  0.93060  0.11460  Biso   1.000  H
  H72      1.0000 0.03750  0.43060  0.38540  Biso   1.000  H
  H73      1.0000 0.55840  0.20640  0.87110  Biso   1.000  H
  H74      1.0000 0.94160  0.70640  0.62890  Biso   1.000  H
  H75      1.0000 0.44160  0.79360  0.12890  Biso   1.000  H
  H76      1.0000 0.05840  0.29360  0.37110  Biso   1.000  H
  C121     1.0000 0.48549  0.23446  0.85971  Biso   1.000  C
  C122     1.0000 0.01451  0.73446  0.64029  Biso   1.000  C
  C123     1.0000 0.51451  0.76554  0.14029  Biso   1.000  C
  C124     1.0000 0.98549  0.26554  0.35971  Biso   1.000  C
  H77      1.0000 0.46290  0.21080  0.81270  Biso   1.000  H
  H78      1.0000 0.03710  0.71080  0.68730  Biso   1.000  H
  H79      1.0000 0.53710  0.78920  0.18730  Biso   1.000  H
  H80      1.0000 0.96290  0.28920  0.31270  Biso   1.000  H
  H81      1.0000 0.46760  0.19440  0.87890  Biso   1.000  H
  H82      1.0000 0.03240  0.69440  0.62110  Biso   1.000  H
  H83      1.0000 0.53240  0.80560  0.12110  Biso   1.000  H
  H84      1.0000 0.96760  0.30560  0.37890  Biso   1.000  H
  C125     1.0000 0.48756  0.38990  0.86697  Biso   1.000  C
  C126     1.0000 0.01244  0.88990  0.63303  Biso   1.000  C
  C127     1.0000 0.51244  0.61010  0.13303  Biso   1.000  C
  C128     1.0000 0.98756  0.11010  0.36697  Biso   1.000  C
  H85      1.0000 0.45030  0.42600  0.84510  Biso   1.000  H
  H86      1.0000 0.04970  0.92600  0.65490  Biso   1.000  H
  H87      1.0000 0.54970  0.57400  0.15490  Biso   1.000  H
  H88      1.0000 0.95030  0.07400  0.34510  Biso   1.000  H
  H89      1.0000 0.50920  0.41400  0.91340  Biso   1.000  H
  H90      1.0000 0.99080  0.91400  0.58660  Biso   1.000  H
  H91      1.0000 0.49080  0.58600  0.08660  Biso   1.000  H
  H92      1.0000 0.00920  0.08600  0.41340  Biso   1.000  H
  H93      1.0000 0.50450  0.43040  0.84720  Biso   1.000  H
  H94      1.0000 0.99550  0.93040  0.65280  Biso   1.000  H
  H95      1.0000 0.49550  0.56960  0.15280  Biso   1.000  H
  H96      1.0000 0.00450  0.06960  0.34720  Biso   1.000  H
  C129     1.0000 0.62610  0.26654  0.99286  Biso   1.000  C
  C130     1.0000 0.87390  0.76654  0.50714  Biso   1.000  C
  C131     1.0000 0.37390  0.73346  0.00714  Biso   1.000  C
  C132     1.0000 0.12610  0.23346  0.49286  Biso   1.000  C
  H97      1.0000 0.64020  0.31340  0.97260  Biso   1.000  H
  H98      1.0000 0.85980  0.81340  0.52740  Biso   1.000  H
  H99      1.0000 0.35980  0.68660  0.02740  Biso   1.000  H
  H100     1.0000 0.14020  0.18660  0.47260  Biso   1.000  H
  O41      1.0000 0.76752  0.12176  0.94942  Biso   1.000  O
  O42      1.0000 0.73248  0.62176  0.55058  Biso   1.000  O
  O43      1.0000 0.23248  0.87824  0.05058  Biso   1.000  O
  O44      1.0000 0.26752  0.37824  0.44942  Biso   1.000  O
  N17      1.0000 0.75656  0.15005  0.89235  Biso   1.000  N
  N18      1.0000 0.74344  0.65005  0.60765  Biso   1.000  N
  N19      1.0000 0.24344  0.84995  0.10765  Biso   1.000  N
  N20      1.0000 0.25656  0.34995  0.39235  Biso   1.000  N
  C133     1.0000 0.70841  0.08620  0.83084  Biso   1.000  C
  C134     1.0000 0.79159  0.58620  0.66916  Biso   1.000  C
  C135     1.0000 0.29159  0.91380  0.16916  Biso   1.000  C
  C136     1.0000 0.20841  0.41380  0.33084  Biso   1.000  C
  C137     1.0000 0.65733  0.09190  0.82944  Biso   1.000  C
  C138     1.0000 0.84267  0.59190  0.67056  Biso   1.000  C
  C139     1.0000 0.34267  0.90810  0.17056  Biso   1.000  C
  C140     1.0000 0.15733  0.40810  0.32944  Biso   1.000  C
  H101     1.0000 0.62670  0.04970  0.78900  Biso   1.000  H
  H102     1.0000 0.87330  0.54970  0.71100  Biso   1.000  H
  H103     1.0000 0.37330  0.95030  0.21100  Biso   1.000  H
  H104     1.0000 0.12670  0.45030  0.28900  Biso   1.000  H
  H105     1.0000 0.66370  0.04120  0.86690  Biso   1.000  H
  H106     1.0000 0.83630  0.54120  0.63310  Biso   1.000  H
  H107     1.0000 0.33630  0.95880  0.13310  Biso   1.000  H
  H108     1.0000 0.16370  0.45880  0.36690  Biso   1.000  H
  H109     1.0000 0.64860  0.18840  0.83150  Biso   1.000  H
  H110     1.0000 0.85140  0.68840  0.66850  Biso   1.000  H
  H111     1.0000 0.35140  0.81160  0.16850  Biso   1.000  H
  H112     1.0000 0.14860  0.31160  0.33150  Biso   1.000  H
  C141     1.0000 0.72484  0.93580  0.83174  Biso   1.000  C
  C142     1.0000 0.77516  0.43580  0.66826  Biso   1.000  C
  C143     1.0000 0.27516  0.06420  0.16826  Biso   1.000  C
  C144     1.0000 0.22484  0.56420  0.33174  Biso   1.000  C
  H113     1.0000 0.69490  0.88820  0.79260  Biso   1.000  H
  H114     1.0000 0.80510  0.38820  0.70740  Biso   1.000  H
  H115     1.0000 0.30510  0.11180  0.20740  Biso   1.000  H
  H116     1.0000 0.19490  0.61180  0.29260  Biso   1.000  H
  H117     1.0000 0.75780  0.93380  0.83250  Biso   1.000  H
  H118     1.0000 0.74220  0.43380  0.66750  Biso   1.000  H
  H119     1.0000 0.24220  0.06620  0.16750  Biso   1.000  H
  H120     1.0000 0.25780  0.56620  0.33250  Biso   1.000  H
  H121     1.0000 0.73230  0.88950  0.87070  Biso   1.000  H
  H122     1.0000 0.76770  0.38950  0.62930  Biso   1.000  H
  H123     1.0000 0.26770  0.11050  0.12930  Biso   1.000  H
  H124     1.0000 0.23230  0.61050  0.37070  Biso   1.000  H
  C145     1.0000 0.70739  0.17710  0.77945  Biso   1.000  C
  C146     1.0000 0.79261  0.67710  0.72055  Biso   1.000  C
  C147     1.0000 0.29261  0.82290  0.22055  Biso   1.000  C
  C148     1.0000 0.20739  0.32290  0.27945  Biso   1.000  C
  C149     1.0000 0.68929  0.10430  0.71624  Biso   1.000  C
  C150     1.0000 0.81071  0.60430  0.78376  Biso   1.000  C
  C151     1.0000 0.31071  0.89570  0.28376  Biso   1.000  C
  C152     1.0000 0.18929  0.39570  0.21624  Biso   1.000  C
  H125     1.0000 0.65040  0.08030  0.69190  Biso   1.000  H
  H126     1.0000 0.84960  0.58030  0.80810  Biso   1.000  H
  H127     1.0000 0.34960  0.91970  0.30810  Biso   1.000  H
  H128     1.0000 0.15040  0.41970  0.19190  Biso   1.000  H
  H129     1.0000 0.69490  0.16590  0.68980  Biso   1.000  H
  H130     1.0000 0.80510  0.66590  0.81020  Biso   1.000  H
  H131     1.0000 0.30510  0.83410  0.31020  Biso   1.000  H
  H132     1.0000 0.19490  0.33410  0.18980  Biso   1.000  H
  H133     1.0000 0.71090  0.02000  0.72640  Biso   1.000  H
  H134     1.0000 0.78910  0.52000  0.77360  Biso   1.000  H
  H135     1.0000 0.28910  0.98000  0.27360  Biso   1.000  H
  H136     1.0000 0.21090  0.48000  0.22640  Biso   1.000  H
  C153     1.0000 0.67684  0.31370  0.76507  Biso   1.000  C
  C154     1.0000 0.82316  0.81370  0.73493  Biso   1.000  C
  C155     1.0000 0.32316  0.68630  0.23493  Biso   1.000  C
  C156     1.0000 0.17684  0.18630  0.26507  Biso   1.000  C
  H137     1.0000 0.63750  0.29570  0.74020  Biso   1.000  H
  H138     1.0000 0.86250  0.79570  0.75980  Biso   1.000  H
  H139     1.0000 0.36250  0.70430  0.25980  Biso   1.000  H
  H140     1.0000 0.13750  0.20430  0.24020  Biso   1.000  H
  H141     1.0000 0.68940  0.35950  0.80620  Biso   1.000  H
  H142     1.0000 0.81060  0.85950  0.69380  Biso   1.000  H
  H143     1.0000 0.31060  0.64050  0.19380  Biso   1.000  H
  H144     1.0000 0.18940  0.14050  0.30620  Biso   1.000  H
  H145     1.0000 0.68410  0.37350  0.73950  Biso   1.000  H
  H146     1.0000 0.81590  0.87350  0.76050  Biso   1.000  H
  H147     1.0000 0.31590  0.62650  0.26050  Biso   1.000  H
  H148     1.0000 0.18410  0.12650  0.23950  Biso   1.000  H
  N21      1.0000 0.76701  0.21486  0.81744  Biso   1.000  N
  N22      1.0000 0.73299  0.71486  0.68256  Biso   1.000  N
  N23      1.0000 0.23299  0.78514  0.18256  Biso   1.000  N
  N24      1.0000 0.26701  0.28514  0.31744  Biso   1.000  N
  O45      1.0000 0.78894  0.26245  0.79083  Biso   1.000  O
  O46      1.0000 0.71106  0.76245  0.70917  Biso   1.000  O
  O47      1.0000 0.21106  0.73755  0.20917  Biso   1.000  O
  O48      1.0000 0.28894  0.23755  0.29083  Biso   1.000  O
  C157     1.0000 0.79135  0.20828  0.88252  Biso   1.000  C
  C158     1.0000 0.70865  0.70828  0.61748  Biso   1.000  C
  C159     1.0000 0.20865  0.79172  0.11748  Biso   1.000  C
  C160     1.0000 0.29135  0.29172  0.38252  Biso   1.000  C
  C161     1.0000 0.84617  0.25253  0.93252  Biso   1.000  C
  C162     1.0000 0.65383  0.75253  0.56748  Biso   1.000  C
  C163     1.0000 0.15383  0.74747  0.06748  Biso   1.000  C
  C164     1.0000 0.34617  0.24747  0.43252  Biso   1.000  C
  C165     1.0000 0.88214  0.33230  0.92657  Biso   1.000  C
  C166     1.0000 0.61786  0.83230  0.57343  Biso   1.000  C
  C167     1.0000 0.11786  0.66770  0.07343  Biso   1.000  C
  C168     1.0000 0.38214  0.16770  0.42657  Biso   1.000  C
  H149     1.0000 0.87370  0.36790  0.88660  Biso   1.000  H
  H150     1.0000 0.62630  0.86790  0.61340  Biso   1.000  H
  H151     1.0000 0.12630  0.63210  0.11340  Biso   1.000  H
  H152     1.0000 0.37370  0.13210  0.38660  Biso   1.000  H
  N25      1.0000 0.92941  0.35128  0.98420  Biso   1.000  N
  N26      1.0000 0.57059  0.85128  0.51580  Biso   1.000  N
  N27      1.0000 0.07059  0.64872  0.01580  Biso   1.000  N
  N28      1.0000 0.42941  0.14872  0.48420  Biso   1.000  N
  N29      1.0000 0.92409  0.28277  0.02753  Biso   1.000  N
  N30      1.0000 0.57591  0.78277  0.47247  Biso   1.000  N
  N31      1.0000 0.07591  0.71723  0.97247  Biso   1.000  N
  N32      1.0000 0.42409  0.21723  0.52753  Biso   1.000  N
  C169     1.0000 0.96865  0.27680  0.09750  Biso   1.000  C
  C170     1.0000 0.53135  0.77680  0.40250  Biso   1.000  C
  C171     1.0000 0.03135  0.72320  0.90250  Biso   1.000  C
  C172     1.0000 0.46865  0.22320  0.59750  Biso   1.000  C
  H153     1.0000 0.00160  0.32100  0.10530  Biso   1.000  H
  H154     1.0000 0.49840  0.82100  0.39470  Biso   1.000  H
  H155     1.0000 0.99840  0.67900  0.89470  Biso   1.000  H
  H156     1.0000 0.50160  0.17900  0.60530  Biso   1.000  H
  H157     1.0000 0.97760  0.17890  0.11110  Biso   1.000  H
  H158     1.0000 0.52240  0.67890  0.38890  Biso   1.000  H
  H159     1.0000 0.02240  0.82110  0.88890  Biso   1.000  H
  H160     1.0000 0.47760  0.32110  0.61110  Biso   1.000  H
  C173     1.0000 0.95402  0.34780  0.13846  Biso   1.000  C
  C174     1.0000 0.54598  0.84780  0.36154  Biso   1.000  C
  C175     1.0000 0.04598  0.65220  0.86154  Biso   1.000  C
  C176     1.0000 0.45402  0.15220  0.63846  Biso   1.000  C
  H161     1.0000 0.91910  0.30980  0.12780  Biso   1.000  H
  H162     1.0000 0.58090  0.80980  0.37220  Biso   1.000  H
  H163     1.0000 0.08090  0.69020  0.87220  Biso   1.000  H
  H164     1.0000 0.41910  0.19020  0.62780  Biso   1.000  H
  H165     1.0000 0.94870  0.44780  0.12810  Biso   1.000  H
  H166     1.0000 0.55130  0.94780  0.37190  Biso   1.000  H
  H167     1.0000 0.05130  0.55220  0.87190  Biso   1.000  H
  H168     1.0000 0.44870  0.05220  0.62810  Biso   1.000  H
  C177     1.0000 0.99874  0.32800  0.21100  Biso   1.000  C
  C178     1.0000 0.50126  0.82800  0.28900  Biso   1.000  C
  C179     1.0000 0.00126  0.67200  0.78900  Biso   1.000  C
  C180     1.0000 0.49874  0.17200  0.71100  Biso   1.000  C
  H169     1.0000 0.98820  0.37520  0.23650  Biso   1.000  H
  H170     1.0000 0.51180  0.87520  0.26350  Biso   1.000  H
  H171     1.0000 0.01180  0.62480  0.76350  Biso   1.000  H
  H172     1.0000 0.48820  0.12480  0.73650  Biso   1.000  H
  H173     1.0000 0.00360  0.22920  0.22140  Biso   1.000  H
  H174     1.0000 0.49640  0.72920  0.27860  Biso   1.000  H
  H175     1.0000 0.99640  0.77080  0.77860  Biso   1.000  H
  H176     1.0000 0.50360  0.27080  0.72140  Biso   1.000  H
  H177     1.0000 0.03310  0.36700  0.22170  Biso   1.000  H
  H178     1.0000 0.46690  0.86700  0.27830  Biso   1.000  H
  H179     1.0000 0.96690  0.63300  0.77830  Biso   1.000  H
  H180     1.0000 0.53310  0.13300  0.72170  Biso   1.000  H
  C181     1.0000 0.87521  0.22342  0.99864  Biso   1.000  C
  C182     1.0000 0.62479  0.72342  0.50136  Biso   1.000  C
  C183     1.0000 0.12479  0.77658  0.00136  Biso   1.000  C
  C184     1.0000 0.37521  0.27658  0.49864  Biso   1.000  C
  H181     1.0000 0.86260  0.17110  0.01940  Biso   1.000  H
  H182     1.0000 0.63740  0.67110  0.48060  Biso   1.000  H
  H183     1.0000 0.13740  0.82890  0.98060  Biso   1.000  H
  H184     1.0000 0.36260  0.32890  0.51940  Biso   1.000  H
  F97      1.0000 0.96950  0.16050  0.81920  Biso   1.000  F
  F98      1.0000 0.53050  0.66050  0.68080  Biso   1.000  F
  F99      1.0000 0.03050  0.83950  0.18080  Biso   1.000  F
  F100     1.0000 0.46950  0.33950  0.31920  Biso   1.000  F
  F101     1.0000 0.96240  0.37300  0.79890  Biso   1.000  F
  F102     1.0000 0.53760  0.87300  0.70110  Biso   1.000  F
  F103     1.0000 0.03760  0.62700  0.20110  Biso   1.000  F
  F104     1.0000 0.46240  0.12700  0.29890  Biso   1.000  F
  F105     1.0000 0.90330  0.27110  0.80300  Biso   1.000  F
  F106     1.0000 0.59670  0.77110  0.69700  Biso   1.000  F
  F107     1.0000 0.09670  0.72890  0.19700  Biso   1.000  F
  F108     1.0000 0.40330  0.22890  0.30300  Biso   1.000  F
  F109     1.0000 0.06940  0.09730  0.10620  Biso   1.000  F
  F110     1.0000 0.43060  0.59730  0.39380  Biso   1.000  F
  F111     1.0000 0.93060  0.90270  0.89380  Biso   1.000  F
  F112     1.0000 0.56940  0.40270  0.60620  Biso   1.000  F
  F113     1.0000 0.13660  0.13580  0.09710  Biso   1.000  F
  F114     1.0000 0.36340  0.63580  0.40290  Biso   1.000  F
  F115     1.0000 0.86340  0.86420  0.90290  Biso   1.000  F
  F116     1.0000 0.63660  0.36420  0.59710  Biso   1.000  F
  F117     1.0000 0.07040  0.99770  0.03100  Biso   1.000  F
  F118     1.0000 0.42960  0.49770  0.46900  Biso   1.000  F
  F119     1.0000 0.92960  0.00230  0.96900  Biso   1.000  F
  F120     1.0000 0.57040  0.50230  0.53100  Biso   1.000  F
  F121     1.0000 0.63610  0.91830  0.95530  Biso   1.000  F
  F122     1.0000 0.86390  0.41830  0.54470  Biso   1.000  F
  F123     1.0000 0.36390  0.08170  0.04470  Biso   1.000  F
  F124     1.0000 0.13610  0.58170  0.45530  Biso   1.000  F
  F125     1.0000 0.67190  0.88970  0.05560  Biso   1.000  F
  F126     1.0000 0.82810  0.38970  0.44440  Biso   1.000  F
  F127     1.0000 0.32810  0.11030  0.94440  Biso   1.000  F
  F128     1.0000 0.17190  0.61030  0.55560  Biso   1.000  F
  F129     1.0000 0.69330  0.76980  0.01110  Biso   1.000  F
  F130     1.0000 0.80670  0.26980  0.48890  Biso   1.000  F
  F131     1.0000 0.30670  0.23020  0.98890  Biso   1.000  F
  F132     1.0000 0.19330  0.73020  0.51110  Biso   1.000  F
  F133     1.0000 0.84760  0.60180  0.96320  Biso   1.000  F
  F134     1.0000 0.65240  0.10180  0.53680  Biso   1.000  F
  F135     1.0000 0.15240  0.39820  0.03680  Biso   1.000  F
  F136     1.0000 0.34760  0.89820  0.46320  Biso   1.000  F
  F137     1.0000 0.81560  0.73710  0.98170  Biso   1.000  F
  F138     1.0000 0.68440  0.23710  0.51830  Biso   1.000  F
  F139     1.0000 0.18440  0.26290  0.01830  Biso   1.000  F
  F140     1.0000 0.31560  0.76290  0.48170  Biso   1.000  F
  F141     1.0000 0.86650  0.61300  0.05710  Biso   1.000  F
  F142     1.0000 0.63350  0.11300  0.44290  Biso   1.000  F
  F143     1.0000 0.13350  0.38700  0.94290  Biso   1.000  F
  F144     1.0000 0.36650  0.88700  0.55710  Biso   1.000  F
  F145     1.0000 0.52850  0.30500  0.18890  Biso   1.000  F
  F146     1.0000 0.97150  0.80500  0.31110  Biso   1.000  F
  F147     1.0000 0.47150  0.69500  0.81110  Biso   1.000  F
  F148     1.0000 0.02850  0.19500  0.68890  Biso   1.000  F
  F149     1.0000 0.59760  0.20200  0.20450  Biso   1.000  F
  F150     1.0000 0.90240  0.70200  0.29550  Biso   1.000  F
  F151     1.0000 0.40240  0.79800  0.79550  Biso   1.000  F
  F152     1.0000 0.09760  0.29800  0.70450  Biso   1.000  F
  F153     1.0000 0.53720  0.08750  0.20280  Biso   1.000  F
  F154     1.0000 0.96280  0.58750  0.29720  Biso   1.000  F
  F155     1.0000 0.46280  0.91250  0.79720  Biso   1.000  F
  F156     1.0000 0.03720  0.41250  0.70280  Biso   1.000  F
