data_image0
_cell_length_a       10.7696
_cell_length_b       11.4839
_cell_length_c       13.9827
_cell_angle_alpha    94.67
_cell_angle_beta     96.556
_cell_angle_gamma    94.331

_symmetry_space_group_name_H-M    "P 1"
_symmetry_int_tables_number       1

loop_
  _symmetry_equiv_pos_as_xyz
  'x, y, z'

loop_
  _atom_site_label
  _atom_site_occupancy
  _atom_site_fract_x
  _atom_site_fract_y
  _atom_site_fract_z
  _atom_site_thermal_displace_type
  _atom_site_B_iso_or_equiv
  _atom_site_type_symbol
  Cu1      1.0000 0.00000  0.00000  0.00000  Biso   1.000  Cu
  Cu2      1.0000 0.00000  0.50000  0.50000  Biso   1.000  Cu
  C1       1.0000 0.13700  0.20700  0.11100  Biso   1.000  C
  C2       1.0000 0.86300  0.79300  0.88900  Biso   1.000  C
  H1       1.0000 0.13240  0.23590  0.05060  Biso   1.000  H
  H2       1.0000 0.86760  0.76410  0.94940  Biso   1.000  H
  C3       1.0000 0.19680  0.27850  0.19090  Biso   1.000  C
  C4       1.0000 0.80320  0.72150  0.80910  Biso   1.000  C
  H3       1.0000 0.22990  0.35420  0.18410  Biso   1.000  H
  H4       1.0000 0.77010  0.64580  0.81590  Biso   1.000  H
  C5       1.0000 0.20590  0.23450  0.28020  Biso   1.000  C
  C6       1.0000 0.79410  0.76550  0.71980  Biso   1.000  C
  H5       1.0000 0.24620  0.27990  0.33460  Biso   1.000  H
  H6       1.0000 0.75380  0.72010  0.66540  Biso   1.000  H
  C7       1.0000 0.15460  0.12250  0.28800  Biso   1.000  C
  C8       1.0000 0.84540  0.87750  0.71200  Biso   1.000  C
  C9       1.0000 0.09350  0.05870  0.20480  Biso   1.000  C
  C10      1.0000 0.90650  0.94130  0.79520  Biso   1.000  C
  H7       1.0000 0.05600  0.98420  0.21020  Biso   1.000  H
  H8       1.0000 0.94400  0.01580  0.78980  Biso   1.000  H
  C11      1.0000 0.15980  0.07560  0.38210  Biso   1.000  C
  C12      1.0000 0.84020  0.92440  0.61790  Biso   1.000  C
  C13      1.0000 0.16220  0.95800  0.49680  Biso   1.000  C
  C14      1.0000 0.83780  0.04200  0.50320  Biso   1.000  C
  C15      1.0000 0.16370  0.85320  0.55060  Biso   1.000  C
  C16      1.0000 0.83630  0.14680  0.44940  Biso   1.000  C
  C17      1.0000 0.22490  0.85860  0.64230  Biso   1.000  C
  C18      1.0000 0.77510  0.14140  0.35770  Biso   1.000  C
  H9       1.0000 0.27100  0.92710  0.67020  Biso   1.000  H
  H10      1.0000 0.72900  0.07290  0.32980  Biso   1.000  H
  C19      1.0000 0.21710  0.76100  0.69230  Biso   1.000  C
  C20      1.0000 0.78290  0.23900  0.30770  Biso   1.000  C
  H11      1.0000 0.25450  0.76420  0.75590  Biso   1.000  H
  H12      1.0000 0.74550  0.23580  0.24410  Biso   1.000  H
  C21      1.0000 0.15470  0.65980  0.64910  Biso   1.000  C
  C22      1.0000 0.84530  0.34020  0.35090  Biso   1.000  C
  H13      1.0000 0.15490  0.59310  0.68260  Biso   1.000  H
  H14      1.0000 0.84510  0.40690  0.31740  Biso   1.000  H
  C23      1.0000 0.09930  0.74800  0.51240  Biso   1.000  C
  C24      1.0000 0.90070  0.25200  0.48760  Biso   1.000  C
  H15      1.0000 0.05790  0.74350  0.44990  Biso   1.000  H
  H16      1.0000 0.94210  0.25650  0.55010  Biso   1.000  H
  C25      1.0000 0.79690  0.97880  0.07940  Biso   1.000  C
  C26      1.0000 0.20310  0.02120  0.92060  Biso   1.000  C
  C27      1.0000 0.66730  0.99440  0.10800  Biso   1.000  C
  C28      1.0000 0.33270  0.00560  0.89200  Biso   1.000  C
  C29      1.0000 0.60610  0.09380  0.09030  Biso   1.000  C
  C30      1.0000 0.39390  0.90620  0.90970  Biso   1.000  C
  H17      1.0000 0.64370  0.15500  0.06130  Biso   1.000  H
  H18      1.0000 0.35630  0.84500  0.93870  Biso   1.000  H
  C31      1.0000 0.48570  0.09820  0.11810  Biso   1.000  C
  C32      1.0000 0.51430  0.90180  0.88190  Biso   1.000  C
  H19      1.0000 0.44580  0.16620  0.10900  Biso   1.000  H
  H20      1.0000 0.55420  0.83380  0.89100  Biso   1.000  H
  C33      1.0000 0.42300  0.01080  0.15710  Biso   1.000  C
  C34      1.0000 0.57700  0.98920  0.84290  Biso   1.000  C
  H21      1.0000 0.34110  0.01600  0.17100  Biso   1.000  H
  H22      1.0000 0.65890  0.98400  0.82900  Biso   1.000  H
  C35      1.0000 0.48510  0.91610  0.17470  Biso   1.000  C
  C36      1.0000 0.51490  0.08390  0.82530  Biso   1.000  C
  H23      1.0000 0.44630  0.85590  0.20410  Biso   1.000  H
  H24      1.0000 0.55370  0.14410  0.79590  Biso   1.000  H
  C37      1.0000 0.60490  0.90520  0.15040  Biso   1.000  C
  C38      1.0000 0.39510  0.09480  0.84960  Biso   1.000  C
  H25      1.0000 0.64420  0.83760  0.16250  Biso   1.000  H
  H26      1.0000 0.35580  0.16240  0.83750  Biso   1.000  H
  C39      1.0000 0.15190  0.54130  0.34170  Biso   1.000  C
  C40      1.0000 0.84810  0.45870  0.65830  Biso   1.000  C
  C41      1.0000 0.14650  0.58330  0.24040  Biso   1.000  C
  C42      1.0000 0.85350  0.41670  0.75960  Biso   1.000  C
  C43      1.0000 0.03590  0.59350  0.18690  Biso   1.000  C
  C44      1.0000 0.96410  0.40650  0.81310  Biso   1.000  C
  H27      1.0000 0.96110  0.57370  0.21130  Biso   1.000  H
  H28      1.0000 0.03890  0.42630  0.78870  Biso   1.000  H
  C45      1.0000 0.03350  0.63280  0.09680  Biso   1.000  C
  C46      1.0000 0.96650  0.36720  0.90320  Biso   1.000  C
  H29      1.0000 0.95690  0.64140  0.06110  Biso   1.000  H
  H30      1.0000 0.04310  0.35860  0.93890  Biso   1.000  H
  C47      1.0000 0.14000  0.65870  0.06000  Biso   1.000  C
  C48      1.0000 0.86000  0.34130  0.94000  Biso   1.000  C
  H31      1.0000 0.13690  0.67990  0.99710  Biso   1.000  H
  H32      1.0000 0.86310  0.32010  0.00290  Biso   1.000  H
  C49      1.0000 0.25100  0.65450  0.11210  Biso   1.000  C
  C50      1.0000 0.74900  0.34550  0.88790  Biso   1.000  C
  H33      1.0000 0.32450  0.67790  0.08720  Biso   1.000  H
  H34      1.0000 0.67550  0.32210  0.91280  Biso   1.000  H
  C51      1.0000 0.25670  0.61510  0.20410  Biso   1.000  C
  C52      1.0000 0.74330  0.38490  0.79590  Biso   1.000  C
  H35      1.0000 0.33370  0.61030  0.24050  Biso   1.000  H
  H36      1.0000 0.66630  0.38970  0.75950  Biso   1.000  H
  N1       1.0000 0.08620  0.09910  0.11753  Biso   1.000  N
  N2       1.0000 0.91380  0.90090  0.88247  Biso   1.000  N
  N3       1.0000 0.16050  0.14110  0.46458  Biso   1.000  N
  N4       1.0000 0.83950  0.85890  0.53542  Biso   1.000  N
  N5       1.0000 0.16370  0.06460  0.53725  Biso   1.000  N
  N6       1.0000 0.83630  0.93540  0.46275  Biso   1.000  N
  N7       1.0000 0.16180  0.96020  0.39902  Biso   1.000  N
  N8       1.0000 0.83820  0.03980  0.60098  Biso   1.000  N
  N9       1.0000 0.17710  0.86950  0.33005  Biso   1.000  N
  N10      1.0000 0.82290  0.13050  0.66995  Biso   1.000  N
  H37      1.0000 0.18610  0.88440  0.27180  Biso   1.000  H
  H38      1.0000 0.81390  0.11560  0.72820  Biso   1.000  H
  H39      1.0000 0.17750  0.79870  0.34570  Biso   1.000  H
  H40      1.0000 0.82250  0.20130  0.65430  Biso   1.000  H
  N11      1.0000 0.09360  0.65290  0.56057  Biso   1.000  N
  N12      1.0000 0.90640  0.34710  0.43943  Biso   1.000  N
  O1       1.0000 0.83910  0.05490  0.02730  Biso   1.000  O
  O2       1.0000 0.16090  0.94510  0.97270  Biso   1.000  O
  O3       1.0000 0.85490  0.89610  0.10621  Biso   1.000  O
  O4       1.0000 0.14510  0.10390  0.89379  Biso   1.000  O
  O5       1.0000 0.04470  0.53350  0.37267  Biso   1.000  O
  O6       1.0000 0.95530  0.46650  0.62733  Biso   1.000  O
  O7       1.0000 0.24960  0.51930  0.38550  Biso   1.000  O
  O8       1.0000 0.75040  0.48070  0.61450  Biso   1.000  O
  O9       1.0000 0.80080  0.60230  0.46244  Biso   1.000  O
  O10      1.0000 0.19920  0.39770  0.53756  Biso   1.000  O
  O11      1.0000 0.90240  0.81800  0.29070  Biso   1.000  O
  O12      1.0000 0.09760  0.18200  0.70930  Biso   1.000  O
  H41      1.0000 0.78440  0.56530  0.51160  Biso   1.000  H
  H42      1.0000 0.21560  0.43470  0.48840  Biso   1.000  H
  H43      1.0000 0.81070  0.67310  0.48560  Biso   1.000  H
  H44      1.0000 0.18930  0.32690  0.51440  Biso   1.000  H
  H45      1.0000 0.88710  0.84180  0.23490  Biso   1.000  H
  H46      1.0000 0.11290  0.15820  0.76510  Biso   1.000  H
  H47      1.0000 0.98150  0.83300  0.30200  Biso   1.000  H
  H48      1.0000 0.01850  0.16700  0.69800  Biso   1.000  H
