data_image0
_cell_length_a       10.273
_cell_length_b       11.06
_cell_length_c       11.617
_cell_angle_alpha    98.28
_cell_angle_beta     105.54
_cell_angle_gamma    114.37

_symmetry_space_group_name_H-M    "P 1"
_symmetry_int_tables_number       1

loop_
  _symmetry_equiv_pos_as_xyz
  'x, y, z'

loop_
  _atom_site_label
  _atom_site_occupancy
  _atom_site_fract_x
  _atom_site_fract_y
  _atom_site_fract_z
  _atom_site_thermal_displace_type
  _atom_site_B_iso_or_equiv
  _atom_site_type_symbol
  Cu1      1.0000 0.50000  0.00000  0.50000  Biso   1.000  Cu
  Cu2      1.0000 0.67340  0.73407  0.81191  Biso   1.000  Cu
  Cu3      1.0000 0.32660  0.26593  0.18809  Biso   1.000  Cu
  N1       1.0000 0.55220  0.80720  0.88380  Biso   1.000  N
  N2       1.0000 0.44780  0.19280  0.11620  Biso   1.000  N
  N3       1.0000 0.77190  0.66000  0.71600  Biso   1.000  N
  N4       1.0000 0.22810  0.34000  0.28400  Biso   1.000  N
  N5       1.0000 0.93800  0.47650  0.47570  Biso   1.000  N
  N6       1.0000 0.06200  0.52350  0.52430  Biso   1.000  N
  N7       1.0000 0.33530  0.82950  0.35940  Biso   1.000  N
  N8       1.0000 0.66470  0.17050  0.64060  Biso   1.000  N
  N9       1.0000 0.98240  0.50720  0.04650  Biso   1.000  N
  N10      1.0000 0.01760  0.49280  0.95350  Biso   1.000  N
  O1       1.0000 0.82710  0.92980  0.85790  Biso   1.000  O
  O2       1.0000 0.17290  0.07020  0.14210  Biso   1.000  O
  O3       1.0000 0.88140  0.13840  0.96530  Biso   1.000  O
  O4       1.0000 0.11860  0.86160  0.03470  Biso   1.000  O
  O5       1.0000 0.50320  0.55370  0.79040  Biso   1.000  O
  O6       1.0000 0.49680  0.44630  0.20960  Biso   1.000  O
  O7       1.0000 0.33030  0.45710  0.87380  Biso   1.000  O
  O8       1.0000 0.66970  0.54290  0.12620  Biso   1.000  O
  O9       1.0000 0.54780  0.79200  0.63710  Biso   1.000  O
  O10      1.0000 0.45220  0.20800  0.36290  Biso   1.000  O
  O11      1.0000 0.42930  0.92140  0.62500  Biso   1.000  O
  O12      1.0000 0.57070  0.07860  0.37500  Biso   1.000  O
  O13      1.0000 0.81400  0.73260  0.00650  Biso   1.000  O
  O14      1.0000 0.18600  0.26740  0.99350  Biso   1.000  O
  H1       1.0000 0.89680  0.80360  0.03660  Biso   1.000  H
  H2       1.0000 0.10320  0.19640  0.96340  Biso   1.000  H
  H3       1.0000 0.78760  0.67090  0.03270  Biso   1.000  H
  H4       1.0000 0.21240  0.32910  0.96730  Biso   1.000  H
  C1       1.0000 0.66620  0.94580  0.96800  Biso   1.000  C
  C2       1.0000 0.33380  0.05420  0.03200  Biso   1.000  C
  H5       1.0000 0.70280  0.93910  0.05170  Biso   1.000  H
  H6       1.0000 0.29720  0.06090  0.94830  Biso   1.000  H
  H7       1.0000 0.61790  0.00480  0.97030  Biso   1.000  H
  H8       1.0000 0.38210  0.99520  0.02970  Biso   1.000  H
  C3       1.0000 0.80300  0.01250  0.92690  Biso   1.000  C
  C4       1.0000 0.19700  0.98750  0.07310  Biso   1.000  C
  C5       1.0000 0.43190  0.55870  0.86360  Biso   1.000  C
  C6       1.0000 0.56810  0.44130  0.13640  Biso   1.000  C
  C7       1.0000 0.48010  0.70290  0.94410  Biso   1.000  C
  C8       1.0000 0.51990  0.29710  0.05590  Biso   1.000  C
  H9       1.0000 0.39110  0.70730  0.95360  Biso   1.000  H
  H10      1.0000 0.60890  0.29270  0.04640  Biso   1.000  H
  H11      1.0000 0.55220  0.72170  0.02630  Biso   1.000  H
  H12      1.0000 0.44780  0.27830  0.97370  Biso   1.000  H
  C9       1.0000 0.43060  0.81100  0.78300  Biso   1.000  C
  C10      1.0000 0.56940  0.18900  0.21700  Biso   1.000  C
  H13      1.0000 0.40460  0.87920  0.81750  Biso   1.000  H
  H14      1.0000 0.59540  0.12080  0.18250  Biso   1.000  H
  H15      1.0000 0.33960  0.72120  0.75290  Biso   1.000  H
  H16      1.0000 0.66040  0.27880  0.24710  Biso   1.000  H
  C11      1.0000 0.47610  0.84580  0.67360  Biso   1.000  C
  C12      1.0000 0.52390  0.15420  0.32640  Biso   1.000  C
  C13      1.0000 0.91880  0.71930  0.74160  Biso   1.000  C
  C14      1.0000 0.08120  0.28070  0.25840  Biso   1.000  C
  H17      1.0000 0.98220  0.79750  0.81000  Biso   1.000  H
  H18      1.0000 0.01780  0.20250  0.19000  Biso   1.000  H
  C15      1.0000 0.98430  0.66900  0.66950  Biso   1.000  C
  C16      1.0000 0.01570  0.33100  0.33050  Biso   1.000  C
  H19      1.0000 0.09010  0.71380  0.69060  Biso   1.000  H
  H20      1.0000 0.90990  0.28620  0.30940  Biso   1.000  H
  C17      1.0000 0.89650  0.55670  0.57000  Biso   1.000  C
  C18      1.0000 0.10350  0.44330  0.43000  Biso   1.000  C
  C19      1.0000 0.74650  0.49610  0.54700  Biso   1.000  C
  C20      1.0000 0.25350  0.50390  0.45300  Biso   1.000  C
  H21      1.0000 0.68080  0.41820  0.47860  Biso   1.000  H
  H22      1.0000 0.31920  0.58180  0.52140  Biso   1.000  H
  C21      1.0000 0.68710  0.54730  0.62290  Biso   1.000  C
  C22      1.0000 0.31290  0.45270  0.37710  Biso   1.000  C
  H23      1.0000 0.58250  0.49940  0.60710  Biso   1.000  H
  H24      1.0000 0.41750  0.50060  0.39290  Biso   1.000  H
  C23      1.0000 0.36990  0.76930  0.27240  Biso   1.000  C
  C24      1.0000 0.63010  0.23070  0.72760  Biso   1.000  C
  C25      1.0000 0.07070  0.67100  0.24450  Biso   1.000  C
  C26      1.0000 0.92930  0.32900  0.75550  Biso   1.000  C
  C27      1.0000 0.18760  0.77810  0.34630  Biso   1.000  C
  C28      1.0000 0.81240  0.22190  0.65370  Biso   1.000  C
  C29      1.0000 0.10810  0.61450  0.15320  Biso   1.000  C
  C30      1.0000 0.89190  0.38550  0.84680  Biso   1.000  C
  C31      1.0000 0.26070  0.66150  0.16880  Biso   1.000  C
  C32      1.0000 0.73930  0.33850  0.83120  Biso   1.000  C
  H25      1.0000 0.96850  0.63950  0.23560  Biso   1.000  H
  H26      1.0000 0.03150  0.36050  0.76440  Biso   1.000  H
  H27      1.0000 0.28600  0.61740  0.11370  Biso   1.000  H
  H28      1.0000 0.71400  0.38260  0.88630  Biso   1.000  H
  H29      1.0000 0.46840  0.80590  0.28200  Biso   1.000  H
  H30      1.0000 0.53160  0.19410  0.71800  Biso   1.000  H
  H31      1.0000 0.16720  0.82180  0.40810  Biso   1.000  H
  H32      1.0000 0.83280  0.17820  0.59190  Biso   1.000  H
  O15      1.0000 0.99970  0.03170  0.70360  Biso   1.000  O
  O16      1.0000 0.00030  0.96830  0.29640  Biso   1.000  O
  O17      1.0000 0.71570  0.90800  0.50370  Biso   1.000  O
  O18      1.0000 0.28430  0.09200  0.49630  Biso   1.000  O
  O19      1.0000 0.28480  0.20170  0.71980  Biso   1.000  O
  O20      1.0000 0.71520  0.79830  0.28020  Biso   1.000  O
  O21      1.0000 0.20720  0.26180  0.64150  Biso   1.000  O
  O22      1.0000 0.79280  0.73820  0.35850  Biso   1.000  O
  O23      1.0000 0.25960  0.99990  0.73910  Biso   1.000  O
  O24      1.0000 0.74040  0.00010  0.26090  Biso   1.000  O
