data_image0
_cell_length_a       13.54
_cell_length_b       14.37
_cell_length_c       15.61
_cell_angle_alpha    95.9
_cell_angle_beta     104.9
_cell_angle_gamma    106.5

_symmetry_space_group_name_H-M    "P 1"
_symmetry_int_tables_number       1

loop_
  _symmetry_equiv_pos_as_xyz
  'x, y, z'

loop_
  _atom_site_label
  _atom_site_occupancy
  _atom_site_fract_x
  _atom_site_fract_y
  _atom_site_fract_z
  _atom_site_thermal_displace_type
  _atom_site_B_iso_or_equiv
  _atom_site_type_symbol
  Cu1      1.0000 0.50000  0.50000  0.00000  Biso   1.000  Cu
  Cu2      1.0000 0.48784  0.48346  0.24409  Biso   1.000  Cu
  Cu3      1.0000 0.51216  0.51654  0.75591  Biso   1.000  Cu
  Cu4      1.0000 0.50000  0.50000  0.50000  Biso   1.000  Cu
  N1       1.0000 0.60620  0.44380  0.11598  Biso   1.000  N
  N2       1.0000 0.39380  0.55620  0.88402  Biso   1.000  N
  N3       1.0000 0.57780  0.41990  0.19172  Biso   1.000  N
  N4       1.0000 0.42220  0.58010  0.80828  Biso   1.000  N
  C1       1.0000 0.62740  0.35880  0.22240  Biso   1.000  C
  C2       1.0000 0.37260  0.64120  0.77760  Biso   1.000  C
  N5       1.0000 0.68720  0.34170  0.16990  Biso   1.000  N
  N6       1.0000 0.31280  0.65830  0.83010  Biso   1.000  N
  C3       1.0000 0.67190  0.39540  0.10510  Biso   1.000  C
  C4       1.0000 0.32810  0.60460  0.89490  Biso   1.000  C
  C5       1.0000 0.74870  0.27170  0.17760  Biso   1.000  C
  C6       1.0000 0.25130  0.72830  0.82240  Biso   1.000  C
  C7       1.0000 0.67900  0.17240  0.12410  Biso   1.000  C
  C8       1.0000 0.32100  0.82760  0.87590  Biso   1.000  C
  O1       1.0000 0.64360  0.18170  0.03440  Biso   1.000  O
  O2       1.0000 0.35640  0.81830  0.96560  Biso   1.000  O
  N7       1.0000 0.52690  0.62460  0.08740  Biso   1.000  N
  N8       1.0000 0.47310  0.37540  0.91260  Biso   1.000  N
  N9       1.0000 0.53750  0.62240  0.17685  Biso   1.000  N
  N10      1.0000 0.46250  0.37760  0.82315  Biso   1.000  N
  C9       1.0000 0.56180  0.71370  0.21660  Biso   1.000  C
  C10      1.0000 0.43820  0.28630  0.78340  Biso   1.000  C
  N11      1.0000 0.56730  0.77520  0.15690  Biso   1.000  N
  N12      1.0000 0.43270  0.22480  0.84310  Biso   1.000  N
  C11      1.0000 0.54500  0.71660  0.07710  Biso   1.000  C
  C12      1.0000 0.45500  0.28340  0.92290  Biso   1.000  C
  C13      1.0000 0.60090  0.88390  0.17700  Biso   1.000  C
  C14      1.0000 0.39910  0.11610  0.82300  Biso   1.000  C
  C15      1.0000 0.53640  0.92140  0.22970  Biso   1.000  C
  C16      1.0000 0.46360  0.07860  0.77030  Biso   1.000  C
  O3       1.0000 0.42870  0.89560  0.18240  Biso   1.000  O
  O4       1.0000 0.57130  0.10440  0.81760  Biso   1.000  O
  N13      1.0000 0.36970  0.42620  0.04013  Biso   1.000  N
  N14      1.0000 0.63030  0.57380  0.95987  Biso   1.000  N
  N15      1.0000 0.36230  0.42110  0.12614  Biso   1.000  N
  N16      1.0000 0.63770  0.57890  0.87386  Biso   1.000  N
  C17      1.0000 0.26520  0.36330  0.11810  Biso   1.000  C
  C18      1.0000 0.73480  0.63670  0.88190  Biso   1.000  C
  N17      1.0000 0.20820  0.33070  0.03030  Biso   1.000  N
  N18      1.0000 0.79180  0.66930  0.96970  Biso   1.000  N
  C19      1.0000 0.27590  0.37120  0.98480  Biso   1.000  C
  C20      1.0000 0.72410  0.62880  0.01520  Biso   1.000  C
  C21      1.0000 0.09610  0.26350  0.99220  Biso   1.000  C
  C22      1.0000 0.90390  0.73650  0.00780  Biso   1.000  C
  C23      1.0000 0.02010  0.31650  0.95420  Biso   1.000  C
  C24      1.0000 0.97990  0.68350  0.04580  Biso   1.000  C
  O5       1.0000 0.05000  0.37360  0.89180  Biso   1.000  O
  O6       1.0000 0.95000  0.62640  0.10820  Biso   1.000  O
  O7       1.0000 0.02330  0.39960  0.00990  Biso   1.000  O
  O8       1.0000 0.97670  0.60040  0.99010  Biso   1.000  O
  N19      1.0000 0.40510  0.56310  0.38647  Biso   1.000  N
  N20      1.0000 0.59490  0.43690  0.61353  Biso   1.000  N
  N21      1.0000 0.39630  0.54490  0.29580  Biso   1.000  N
  N22      1.0000 0.60370  0.45510  0.70420  Biso   1.000  N
  C25      1.0000 0.32000  0.57650  0.25250  Biso   1.000  C
  C26      1.0000 0.68000  0.42350  0.74750  Biso   1.000  C
  N23      1.0000 0.27830  0.61550  0.31120  Biso   1.000  N
  N24      1.0000 0.72170  0.38450  0.68880  Biso   1.000  N
  C27      1.0000 0.33340  0.60550  0.39310  Biso   1.000  C
  C28      1.0000 0.66660  0.39450  0.60690  Biso   1.000  C
  C29      1.0000 0.19270  0.66130  0.28980  Biso   1.000  C
  C30      1.0000 0.80730  0.33870  0.71020  Biso   1.000  C
  C31      1.0000 0.23320  0.75900  0.26470  Biso   1.000  C
  C32      1.0000 0.76680  0.24100  0.73530  Biso   1.000  C
  O9       1.0000 0.25770  0.74380  0.18190  Biso   1.000  O
  O10      1.0000 0.74230  0.25620  0.81810  Biso   1.000  O
  N25      1.0000 0.44160  0.36840  0.41574  Biso   1.000  N
  N26      1.0000 0.55840  0.63160  0.58426  Biso   1.000  N
  N27      1.0000 0.44340  0.35380  0.32764  Biso   1.000  N
  N28      1.0000 0.55660  0.64620  0.67236  Biso   1.000  N
  C33      1.0000 0.39420  0.25960  0.29570  Biso   1.000  C
  C34      1.0000 0.60580  0.74040  0.70430  Biso   1.000  C
  N29      1.0000 0.35990  0.21280  0.35850  Biso   1.000  N
  N30      1.0000 0.64010  0.78720  0.64150  Biso   1.000  N
  C35      1.0000 0.39190  0.28380  0.43260  Biso   1.000  C
  C36      1.0000 0.60810  0.71620  0.56740  Biso   1.000  C
  C37      1.0000 0.30060  0.10770  0.34990  Biso   1.000  C
  C38      1.0000 0.69940  0.89230  0.65010  Biso   1.000  C
  C39      1.0000 0.37220  0.05060  0.38780  Biso   1.000  C
  C40      1.0000 0.62780  0.94940  0.61220  Biso   1.000  C
  O11      1.0000 0.42120  0.08630  0.48210  Biso   1.000  O
  O12      1.0000 0.57880  0.91370  0.51790  Biso   1.000  O
  N31      1.0000 0.63000  0.54240  0.44513  Biso   1.000  N
  N32      1.0000 0.37000  0.45760  0.55487  Biso   1.000  N
  N33      1.0000 0.62060  0.54900  0.35609  Biso   1.000  N
  N34      1.0000 0.37940  0.45100  0.64391  Biso   1.000  N
  C41      1.0000 0.71860  0.58240  0.35000  Biso   1.000  C
  C42      1.0000 0.28140  0.41760  0.65000  Biso   1.000  C
  N35      1.0000 0.79190  0.59710  0.43090  Biso   1.000  N
  N36      1.0000 0.20810  0.40290  0.56910  Biso   1.000  N
  C43      1.0000 0.73340  0.57140  0.48790  Biso   1.000  C
  C44      1.0000 0.26660  0.42860  0.51210  Biso   1.000  C
  C45      1.0000 0.91020  0.62480  0.44950  Biso   1.000  C
  C46      1.0000 0.08980  0.37520  0.55050  Biso   1.000  C
  C47      1.0000 0.93990  0.54390  0.40430  Biso   1.000  C
  C48      1.0000 0.06010  0.45610  0.59570  Biso   1.000  C
  O13      1.0000 0.89560  0.52410  0.31240  Biso   1.000  O
  O14      1.0000 0.10440  0.47590  0.68760  Biso   1.000  O
  C49      1.0000 0.04030  0.21530  0.26650  Biso   1.000  C
  C50      1.0000 0.95970  0.78470  0.73350  Biso   1.000  C
  F1       1.0000 0.07400  0.19840  0.34850  Biso   1.000  F
  F2       1.0000 0.92600  0.80160  0.65150  Biso   1.000  F
  F3       1.0000 0.08430  0.17260  0.21510  Biso   1.000  F
  F4       1.0000 0.91570  0.82740  0.78490  Biso   1.000  F
  F5       1.0000 0.93510  0.17220  0.23650  Biso   1.000  F
  F6       1.0000 0.06490  0.82780  0.76350  Biso   1.000  F
  S1       1.0000 0.07799  0.34565  0.26626  Biso   1.000  S
  S2       1.0000 0.92201  0.65435  0.73374  Biso   1.000  S
  O15      1.0000 0.02930  0.38270  0.32720  Biso   1.000  O
  O16      1.0000 0.97070  0.61730  0.67280  Biso   1.000  O
  O17      1.0000 0.19380  0.37570  0.29780  Biso   1.000  O
  O18      1.0000 0.80620  0.62430  0.70220  Biso   1.000  O
  O19      1.0000 0.03440  0.34940  0.17370  Biso   1.000  O
  O20      1.0000 0.96560  0.65060  0.82630  Biso   1.000  O
  C51      1.0000 0.19190  0.01710  0.02940  Biso   1.000  C
  C52      1.0000 0.80810  0.98290  0.97060  Biso   1.000  C
  F7       1.0000 0.16570  0.92250  0.02760  Biso   1.000  F
  F8       1.0000 0.83430  0.07750  0.97240  Biso   1.000  F
  F9       1.0000 0.14330  0.05700  0.07890  Biso   1.000  F
  F10      1.0000 0.85670  0.94300  0.92110  Biso   1.000  F
  F11      1.0000 0.15580  0.02850  0.94690  Biso   1.000  F
  F12      1.0000 0.84420  0.97150  0.05310  Biso   1.000  F
  S3       1.0000 0.33582  0.07726  0.07309  Biso   1.000  S
  S4       1.0000 0.66418  0.92274  0.92691  Biso   1.000  S
  O21      1.0000 0.35040  0.17950  0.07230  Biso   1.000  O
  O22      1.0000 0.64960  0.82050  0.92770  Biso   1.000  O
  O23      1.0000 0.36120  0.05580  0.16190  Biso   1.000  O
  O24      1.0000 0.63880  0.94420  0.83810  Biso   1.000  O
  O25      1.0000 0.37820  0.02950  0.01350  Biso   1.000  O
  O26      1.0000 0.62180  0.97050  0.98650  Biso   1.000  O
  C53      1.0000 0.97490  0.92520  0.28360  Biso   1.000  C
  C54      1.0000 0.02510  0.07480  0.71640  Biso   1.000  C
  F13      1.0000 0.01330  0.93980  0.21640  Biso   1.000  F
  F14      1.0000 0.98670  0.06020  0.78360  Biso   1.000  F
  F15      1.0000 0.05310  0.95630  0.35590  Biso   1.000  F
  F16      1.0000 0.94690  0.04370  0.64410  Biso   1.000  F
  F17      1.0000 0.91670  0.98640  0.29060  Biso   1.000  F
  F18      1.0000 0.08330  0.01360  0.70940  Biso   1.000  F
  S5       1.0000 0.89035  0.80338  0.26965  Biso   1.000  S
  S6       1.0000 0.10965  0.19662  0.73035  Biso   1.000  S
  O27      1.0000 0.85730  0.80180  0.34900  Biso   1.000  O
  O28      1.0000 0.14270  0.19820  0.65100  Biso   1.000  O
  O29      1.0000 0.96470  0.75010  0.26660  Biso   1.000  O
  O30      1.0000 0.03530  0.24990  0.73340  Biso   1.000  O
  O31      1.0000 0.80880  0.78820  0.19020  Biso   1.000  O
  O32      1.0000 0.19120  0.21180  0.80980  Biso   1.000  O
  C55      1.0000 0.78780  0.15700  0.44160  Biso   1.000  C
  C56      1.0000 0.21220  0.84300  0.55840  Biso   1.000  C
  F19      1.0000 0.85530  0.18970  0.52380  Biso   1.000  F
  F20      1.0000 0.14470  0.81030  0.47620  Biso   1.000  F
  F21      1.0000 0.74650  0.06080  0.43050  Biso   1.000  F
  F22      1.0000 0.25350  0.93920  0.56950  Biso   1.000  F
  F23      1.0000 0.84390  0.17780  0.38660  Biso   1.000  F
  F24      1.0000 0.15610  0.82220  0.61340  Biso   1.000  F
  S7       1.0000 0.68406  0.21419  0.42611  Biso   1.000  S
  S8       1.0000 0.31594  0.78581  0.57389  Biso   1.000  S
  O33      1.0000 0.61730  0.17290  0.33630  Biso   1.000  O
  O34      1.0000 0.38270  0.82710  0.66370  Biso   1.000  O
  O35      1.0000 0.63550  0.18690  0.49590  Biso   1.000  O
  O36      1.0000 0.36450  0.81310  0.50410  Biso   1.000  O
  O37      1.0000 0.74090  0.31740  0.43990  Biso   1.000  O
  O38      1.0000 0.25910  0.68260  0.56010  Biso   1.000  O
  O39      1.0000 0.68620  0.81780  0.41890  Biso   1.000  O
  O40      1.0000 0.31380  0.18220  0.58110  Biso   1.000  O
  O41      1.0000 0.20300  0.57210  0.04420  Biso   1.000  O
  O42      1.0000 0.79700  0.42790  0.95580  Biso   1.000  O
  H1       1.0000 0.62200  0.32900  0.27300  Biso   1.000  H
  H2       1.0000 0.37800  0.67100  0.72700  Biso   1.000  H
  H3       1.0000 0.70600  0.39600  0.05900  Biso   1.000  H
  H4       1.0000 0.29400  0.60400  0.94100  Biso   1.000  H
  H5       1.0000 0.80800  0.30100  0.15700  Biso   1.000  H
  H6       1.0000 0.19200  0.69900  0.84300  Biso   1.000  H
  H7       1.0000 0.77700  0.27400  0.24100  Biso   1.000  H
  H8       1.0000 0.22300  0.72600  0.75900  Biso   1.000  H
  H9       1.0000 0.73100  0.13600  0.13400  Biso   1.000  H
  H10      1.0000 0.26900  0.86400  0.86600  Biso   1.000  H
  H11      1.0000 0.60900  0.14300  0.15000  Biso   1.000  H
  H12      1.0000 0.39100  0.85700  0.85000  Biso   1.000  H
  H13      1.0000 0.57600  0.73300  0.27700  Biso   1.000  H
  H14      1.0000 0.42400  0.26700  0.72300  Biso   1.000  H
  H15      1.0000 0.54700  0.74100  0.02600  Biso   1.000  H
  H16      1.0000 0.45300  0.25900  0.97400  Biso   1.000  H
  H17      1.0000 0.67900  0.90900  0.21400  Biso   1.000  H
  H18      1.0000 0.32100  0.09100  0.78600  Biso   1.000  H
  H19      1.0000 0.59200  0.90700  0.12800  Biso   1.000  H
  H20      1.0000 0.40800  0.09300  0.87200  Biso   1.000  H
  H21      1.0000 0.52500  0.89000  0.29100  Biso   1.000  H
  H22      1.0000 0.47500  0.11000  0.70900  Biso   1.000  H
  H23      1.0000 0.57300  0.99500  0.24300  Biso   1.000  H
  H24      1.0000 0.42700  0.00500  0.75700  Biso   1.000  H
  H25      1.0000 0.23700  0.34800  0.16900  Biso   1.000  H
  H26      1.0000 0.76300  0.65200  0.83100  Biso   1.000  H
  H27      1.0000 0.25500  0.36500  0.92500  Biso   1.000  H
  H28      1.0000 0.74500  0.63500  0.07500  Biso   1.000  H
  H29      1.0000 0.10000  0.21400  0.95300  Biso   1.000  H
  H30      1.0000 0.90000  0.78600  0.04700  Biso   1.000  H
  H31      1.0000 0.07700  0.22900  0.04000  Biso   1.000  H
  H32      1.0000 0.92300  0.77100  0.96000  Biso   1.000  H
  H33      1.0000 0.94100  0.26200  0.93100  Biso   1.000  H
  H34      1.0000 0.05900  0.73800  0.06900  Biso   1.000  H
  H35      1.0000 0.99100  0.33500  0.00200  Biso   1.000  H
  H36      1.0000 0.00900  0.66500  0.99800  Biso   1.000  H
  H37      1.0000 0.04100  0.34000  0.87600  Biso   1.000  H
  H38      1.0000 0.95900  0.66000  0.12400  Biso   1.000  H
  H39      1.0000 0.94100  0.27600  0.92700  Biso   1.000  H
  H40      1.0000 0.05900  0.72400  0.07300  Biso   1.000  H
  H41      1.0000 0.30300  0.57200  0.19400  Biso   1.000  H
  H42      1.0000 0.69700  0.42800  0.80600  Biso   1.000  H
  H43      1.0000 0.31900  0.62600  0.44700  Biso   1.000  H
  H44      1.0000 0.68100  0.37400  0.55300  Biso   1.000  H
  H45      1.0000 0.13100  0.61600  0.24300  Biso   1.000  H
  H46      1.0000 0.86900  0.38400  0.75700  Biso   1.000  H
  H47      1.0000 0.16600  0.66600  0.33800  Biso   1.000  H
  H48      1.0000 0.83400  0.33400  0.66200  Biso   1.000  H
  H49      1.0000 0.17200  0.78800  0.26100  Biso   1.000  H
  H50      1.0000 0.82800  0.21200  0.73900  Biso   1.000  H
  H51      1.0000 0.30300  0.80200  0.31800  Biso   1.000  H
  H52      1.0000 0.69700  0.19800  0.68200  Biso   1.000  H
  H53      1.0000 0.38000  0.22900  0.23600  Biso   1.000  H
  H54      1.0000 0.62000  0.77100  0.76400  Biso   1.000  H
  H55      1.0000 0.38500  0.27600  0.48500  Biso   1.000  H
  H56      1.0000 0.61500  0.72400  0.51500  Biso   1.000  H
  H57      1.0000 0.24700  0.10500  0.38000  Biso   1.000  H
  H58      1.0000 0.75300  0.89500  0.62000  Biso   1.000  H
  H59      1.0000 0.26200  0.08600  0.28800  Biso   1.000  H
  H60      1.0000 0.73800  0.91400  0.71200  Biso   1.000  H
  H61      1.0000 0.32500  0.97500  0.37400  Biso   1.000  H
  H62      1.0000 0.67500  0.02500  0.62600  Biso   1.000  H
  H63      1.0000 0.43400  0.05300  0.36300  Biso   1.000  H
  H64      1.0000 0.56600  0.94700  0.63700  Biso   1.000  H
  H65      1.0000 0.48900  0.11700  0.49200  Biso   1.000  H
  H66      1.0000 0.51100  0.88300  0.50800  Biso   1.000  H
  H67      1.0000 0.73700  0.59300  0.30500  Biso   1.000  H
  H68      1.0000 0.26300  0.40700  0.69500  Biso   1.000  H
  H69      1.0000 0.76200  0.57800  0.55000  Biso   1.000  H
  H70      1.0000 0.23800  0.42200  0.45000  Biso   1.000  H
  H71      1.0000 0.93000  0.67800  0.42700  Biso   1.000  H
  H72      1.0000 0.07000  0.32200  0.57300  Biso   1.000  H
  H73      1.0000 0.94700  0.63200  0.51300  Biso   1.000  H
  H74      1.0000 0.05300  0.36800  0.48700  Biso   1.000  H
  H75      1.0000 0.02000  0.57000  0.42400  Biso   1.000  H
  H76      1.0000 0.98000  0.43000  0.57600  Biso   1.000  H
  H77      1.0000 0.89600  0.47200  0.41200  Biso   1.000  H
  H78      1.0000 0.10400  0.52800  0.58800  Biso   1.000  H
  H79      1.0000 0.74200  0.85400  0.42700  Biso   1.000  H
  H80      1.0000 0.25800  0.14600  0.57300  Biso   1.000  H
  H81      1.0000 0.23900  0.65000  0.06500  Biso   1.000  H
  H82      1.0000 0.76100  0.35000  0.93500  Biso   1.000  H
