data_image0
_cell_length_a       9.748
_cell_length_b       10.547
_cell_length_c       11.23
_cell_angle_alpha    67.951
_cell_angle_beta     64.28
_cell_angle_gamma    62.47

_symmetry_space_group_name_H-M    "P 1"
_symmetry_int_tables_number       1

loop_
  _symmetry_equiv_pos_as_xyz
  'x, y, z'

loop_
  _atom_site_label
  _atom_site_occupancy
  _atom_site_fract_x
  _atom_site_fract_y
  _atom_site_fract_z
  _atom_site_thermal_displace_type
  _atom_site_B_iso_or_equiv
  _atom_site_type_symbol
  C1       1.0000 0.17730  0.60800  0.90700  Biso   1.000  C
  C2       1.0000 0.82270  0.39200  0.09300  Biso   1.000  C
  O1       1.0000 0.06700  0.60300  0.90200  Biso   1.000  O
  O2       1.0000 0.93300  0.39700  0.09800  Biso   1.000  O
  O3       1.0000 0.29100  0.61300  0.90400  Biso   1.000  O
  O4       1.0000 0.70900  0.38700  0.09600  Biso   1.000  O
  C3       1.0000 0.66010  0.25660  0.43020  Biso   1.000  C
  C4       1.0000 0.33990  0.74340  0.56980  Biso   1.000  C
  C5       1.0000 0.75300  0.10910  0.39010  Biso   1.000  C
  C6       1.0000 0.24700  0.89090  0.60990  Biso   1.000  C
  C7       1.0000 0.92070  0.04230  0.37030  Biso   1.000  C
  C8       1.0000 0.07930  0.95770  0.62970  Biso   1.000  C
  H1       1.0000 0.97430  0.09040  0.38210  Biso   1.000  H
  H2       1.0000 0.02570  0.90960  0.61790  Biso   1.000  H
  C9       1.0000 0.00800  0.91260  0.33530  Biso   1.000  C
  C10      1.0000 0.99200  0.08740  0.66470  Biso   1.000  C
  H3       1.0000 0.12160  0.86980  0.32270  Biso   1.000  H
  H4       1.0000 0.87840  0.13020  0.67730  Biso   1.000  H
  C11      1.0000 0.93000  0.83880  0.31700  Biso   1.000  C
  C12      1.0000 0.07000  0.16120  0.68300  Biso   1.000  C
  H5       1.0000 0.99300  0.74810  0.28950  Biso   1.000  H
  H6       1.0000 0.00700  0.25190  0.71050  Biso   1.000  H
  C13      1.0000 0.76620  0.89760  0.33890  Biso   1.000  C
  C14      1.0000 0.23380  0.10240  0.66110  Biso   1.000  C
  H7       1.0000 0.71280  0.84690  0.33060  Biso   1.000  H
  H8       1.0000 0.28720  0.15310  0.66940  Biso   1.000  H
  C15      1.0000 0.67700  0.03620  0.37420  Biso   1.000  C
  C16      1.0000 0.32300  0.96380  0.62580  Biso   1.000  C
  H9       1.0000 0.56330  0.07980  0.38710  Biso   1.000  H
  H10      1.0000 0.43670  0.92020  0.61290  Biso   1.000  H
  C17      1.0000 0.53900  0.64100  0.25600  Biso   1.000  C
  C18      1.0000 0.46100  0.35900  0.74400  Biso   1.000  C
  C19      1.0000 0.55700  0.72500  0.11000  Biso   1.000  C
  C20      1.0000 0.44300  0.27500  0.89000  Biso   1.000  C
  C21      1.0000 0.67700  0.78200  0.04100  Biso   1.000  C
  C22      1.0000 0.32300  0.21800  0.95900  Biso   1.000  C
  H11      1.0000 0.75200  0.76820  0.08160  Biso   1.000  H
  H12      1.0000 0.24800  0.23180  0.91840  Biso   1.000  H
  C23      1.0000 0.68900  0.87100  0.89300  Biso   1.000  C
  C24      1.0000 0.31100  0.12900  0.10700  Biso   1.000  C
  H13      1.0000 0.76260  0.92130  0.83660  Biso   1.000  H
  H14      1.0000 0.23740  0.07870  0.16340  Biso   1.000  H
  C25      1.0000 0.57700  0.86500  0.85900  Biso   1.000  C
  C26      1.0000 0.42300  0.13500  0.14100  Biso   1.000  C
  H15      1.0000 0.57520  0.92330  0.77140  Biso   1.000  H
  H16      1.0000 0.42480  0.07670  0.22860  Biso   1.000  H
  C27      1.0000 0.47200  0.80400  0.91000  Biso   1.000  C
  C28      1.0000 0.52800  0.19600  0.09000  Biso   1.000  C
  H17      1.0000 0.41630  0.80420  0.85860  Biso   1.000  H
  H18      1.0000 0.58370  0.19580  0.14140  Biso   1.000  H
  C29      1.0000 0.44700  0.73900  0.04600  Biso   1.000  C
  C30      1.0000 0.55300  0.26100  0.95400  Biso   1.000  C
  H19      1.0000 0.36050  0.70260  0.09620  Biso   1.000  H
  H20      1.0000 0.63950  0.29740  0.90380  Biso   1.000  H
  C31      1.0000 0.14360  0.44690  0.40600  Biso   1.000  C
  C32      1.0000 0.85640  0.55310  0.59400  Biso   1.000  C
  C33      1.0000 0.00260  0.44980  0.40150  Biso   1.000  C
  C34      1.0000 0.99740  0.55020  0.59850  Biso   1.000  C
  C35      1.0000 0.27300  0.41000  0.27600  Biso   1.000  C
  C36      1.0000 0.72700  0.59000  0.72400  Biso   1.000  C
  H21      1.0000 0.31210  0.49220  0.22370  Biso   1.000  H
  H22      1.0000 0.68790  0.50780  0.77630  Biso   1.000  H
  H23      1.0000 0.22790  0.39320  0.22320  Biso   1.000  H
  H24      1.0000 0.77210  0.60680  0.77680  Biso   1.000  H
  H25      1.0000 0.36440  0.32200  0.29600  Biso   1.000  H
  H26      1.0000 0.63560  0.67800  0.70400  Biso   1.000  H
  C37      1.0000 0.00000  0.00000  0.00000  Biso   1.000  C
  Cu1      1.0000 0.36740  0.49540  0.50330  Biso   1.000  Cu
  Cu2      1.0000 0.63260  0.50460  0.49670  Biso   1.000  Cu
  N1       1.0000 0.14320  0.50740  0.49360  Biso   1.000  N
  N2       1.0000 0.85680  0.49260  0.50640  Biso   1.000  N
  O5       1.0000 0.73500  0.31780  0.44030  Biso   1.000  O
  O6       1.0000 0.26500  0.68220  0.55970  Biso   1.000  O
  O7       1.0000 0.50940  0.30810  0.44490  Biso   1.000  O
  O8       1.0000 0.49060  0.69190  0.55510  Biso   1.000  O
  O9       1.0000 0.64640  0.61400  0.30710  Biso   1.000  O
  O10      1.0000 0.35360  0.38600  0.69290  Biso   1.000  O
  O11      1.0000 0.42120  0.60430  0.31430  Biso   1.000  O
  O12      1.0000 0.57880  0.39570  0.68570  Biso   1.000  O
  O13      1.0000 0.01000  0.89370  0.98900  Biso   1.000  O
  O14      1.0000 0.99000  0.10630  0.01100  Biso   1.000  O
  C38      1.0000 0.96700  0.58100  0.72900  Biso   1.000  C
  C39      1.0000 0.03300  0.41900  0.27100  Biso   1.000  C
  C40      1.0000 0.17700  0.58900  0.99500  Biso   1.000  C
  C41      1.0000 0.82300  0.41100  0.00500  Biso   1.000  C
  H27      1.0000 0.97400  0.67650  0.71170  Biso   1.000  H
  H28      1.0000 0.02600  0.32350  0.28830  Biso   1.000  H
  H29      1.0000 0.95110  0.49550  0.22840  Biso   1.000  H
  H30      1.0000 0.04890  0.50450  0.77160  Biso   1.000  H
  H31      1.0000 0.85790  0.58230  0.79030  Biso   1.000  H
  H32      1.0000 0.14210  0.41770  0.20970  Biso   1.000  H
  O15      1.0000 0.20000  0.61900  0.88200  Biso   1.000  O
  O16      1.0000 0.80000  0.38100  0.11800  Biso   1.000  O
  O17      1.0000 0.15800  0.56200  0.10700  Biso   1.000  O
  O18      1.0000 0.84200  0.43800  0.89300  Biso   1.000  O
