data_image0
_cell_length_a       10.401
_cell_length_b       10.481
_cell_length_c       15.71
_cell_angle_alpha    80.792
_cell_angle_beta     82.183
_cell_angle_gamma    87.447

_symmetry_space_group_name_H-M    "P 1"
_symmetry_int_tables_number       1

loop_
  _symmetry_equiv_pos_as_xyz
  'x, y, z'

loop_
  _atom_site_label
  _atom_site_occupancy
  _atom_site_fract_x
  _atom_site_fract_y
  _atom_site_fract_z
  _atom_site_thermal_displace_type
  _atom_site_B_iso_or_equiv
  _atom_site_type_symbol
  C1       1.0000 0.40370  0.70090  0.55910  Biso   1.000  C
  C2       1.0000 0.59630  0.29910  0.44090  Biso   1.000  C
  C3       1.0000 0.34480  0.81620  0.59420  Biso   1.000  C
  C4       1.0000 0.65520  0.18380  0.40580  Biso   1.000  C
  C5       1.0000 0.34450  0.93270  0.54250  Biso   1.000  C
  C6       1.0000 0.65550  0.06730  0.45750  Biso   1.000  C
  H1       1.0000 0.38490  0.94190  0.48540  Biso   1.000  H
  H2       1.0000 0.61510  0.05810  0.51460  Biso   1.000  H
  C7       1.0000 0.28350  0.03810  0.57530  Biso   1.000  C
  C8       1.0000 0.71650  0.96190  0.42470  Biso   1.000  C
  H3       1.0000 0.28260  0.11820  0.53990  Biso   1.000  H
  H4       1.0000 0.71740  0.88180  0.46010  Biso   1.000  H
  C9       1.0000 0.22580  0.02550  0.65760  Biso   1.000  C
  C10      1.0000 0.77420  0.97450  0.34240  Biso   1.000  C
  H5       1.0000 0.18140  0.09580  0.67820  Biso   1.000  H
  H6       1.0000 0.81860  0.90420  0.32180  Biso   1.000  H
  C11      1.0000 0.23160  0.91020  0.71160  Biso   1.000  C
  C12      1.0000 0.76840  0.08980  0.28840  Biso   1.000  C
  H7       1.0000 0.19600  0.90330  0.76970  Biso   1.000  H
  H8       1.0000 0.80400  0.09670  0.23030  Biso   1.000  H
  C13      1.0000 0.29010  0.80450  0.67970  Biso   1.000  C
  C14      1.0000 0.70990  0.19550  0.32030  Biso   1.000  C
  H9       1.0000 0.29280  0.72520  0.71590  Biso   1.000  H
  H10      1.0000 0.70720  0.27480  0.28410  Biso   1.000  H
  C15      1.0000 0.70040  0.53320  0.56580  Biso   1.000  C
  C16      1.0000 0.29960  0.46680  0.43420  Biso   1.000  C
  C17      1.0000 0.81280  0.55850  0.61010  Biso   1.000  C
  C18      1.0000 0.18720  0.44150  0.38990  Biso   1.000  C
  C19      1.0000 0.80560  0.52470  0.69770  Biso   1.000  C
  C20      1.0000 0.19440  0.47530  0.30230  Biso   1.000  C
  H11      1.0000 0.73390  0.47860  0.72650  Biso   1.000  H
  H12      1.0000 0.26610  0.52140  0.27350  Biso   1.000  H
  C21      1.0000 0.90000  0.55500  0.74850  Biso   1.000  C
  C22      1.0000 0.10000  0.44500  0.25150  Biso   1.000  C
  H13      1.0000 0.89360  0.53170  0.80860  Biso   1.000  H
  H14      1.0000 0.10640  0.46830  0.19140  Biso   1.000  H
  C23      1.0000 0.99870  0.62060  0.70040  Biso   1.000  C
  C24      1.0000 0.00130  0.37940  0.29960  Biso   1.000  C
  H15      1.0000 0.06270  0.64340  0.73080  Biso   1.000  H
  H16      1.0000 0.93730  0.35660  0.26920  Biso   1.000  H
  C25      1.0000 0.01810  0.65910  0.61050  Biso   1.000  C
  C26      1.0000 0.98190  0.34090  0.38950  Biso   1.000  C
  H17      1.0000 0.09180  0.70190  0.58180  Biso   1.000  H
  H18      1.0000 0.90820  0.29810  0.41820  Biso   1.000  H
  C27      1.0000 0.91480  0.62730  0.56580  Biso   1.000  C
  C28      1.0000 0.08520  0.37270  0.43420  Biso   1.000  C
  H19      1.0000 0.91810  0.65400  0.50620  Biso   1.000  H
  H20      1.0000 0.08190  0.34600  0.49380  Biso   1.000  H
  C29      1.0000 0.12560  0.04320  0.11930  Biso   1.000  C
  C30      1.0000 0.87440  0.95680  0.88070  Biso   1.000  C
  C31      1.0000 0.19420  0.06820  0.19050  Biso   1.000  C
  C32      1.0000 0.80580  0.93180  0.80950  Biso   1.000  C
  C33      1.0000 0.14350  0.02830  0.27340  Biso   1.000  C
  C34      1.0000 0.85650  0.97170  0.72660  Biso   1.000  C
  H21      1.0000 0.06710  0.98210  0.28510  Biso   1.000  H
  H22      1.0000 0.93290  0.01790  0.71490  Biso   1.000  H
  C35      1.0000 0.20550  0.05590  0.34310  Biso   1.000  C
  C36      1.0000 0.79450  0.94410  0.65690  Biso   1.000  C
  H23      1.0000 0.17340  0.02560  0.40060  Biso   1.000  H
  H24      1.0000 0.82660  0.97440  0.59940  Biso   1.000  H
  C37      1.0000 0.31780  0.13100  0.32180  Biso   1.000  C
  C38      1.0000 0.68220  0.86900  0.67820  Biso   1.000  C
  H25      1.0000 0.36070  0.15160  0.36580  Biso   1.000  H
  H26      1.0000 0.63930  0.84840  0.63420  Biso   1.000  H
  C39      1.0000 0.36230  0.17210  0.24020  Biso   1.000  C
  C40      1.0000 0.63770  0.82790  0.75980  Biso   1.000  C
  H27      1.0000 0.43770  0.21960  0.22650  Biso   1.000  H
  H28      1.0000 0.56230  0.78040  0.77350  Biso   1.000  H
  C41      1.0000 0.29800  0.14500  0.17560  Biso   1.000  C
  C42      1.0000 0.70200  0.85500  0.82440  Biso   1.000  C
  H29      1.0000 0.32710  0.18110  0.11860  Biso   1.000  H
  H30      1.0000 0.67290  0.81890  0.88140  Biso   1.000  H
  C43      1.0000 0.86570  0.20250  0.01990  Biso   1.000  C
  C44      1.0000 0.13430  0.79750  0.98010  Biso   1.000  C
  C45      1.0000 0.78870  0.32260  0.03480  Biso   1.000  C
  C46      1.0000 0.21130  0.67740  0.96520  Biso   1.000  C
  C47      1.0000 0.83880  0.44370  0.99950  Biso   1.000  C
  C48      1.0000 0.16120  0.55630  0.00050  Biso   1.000  C
  H31      1.0000 0.91940  0.44980  0.96540  Biso   1.000  H
  H32      1.0000 0.08060  0.55020  0.03460  Biso   1.000  H
  C49      1.0000 0.76930  0.55400  0.01510  Biso   1.000  C
  C50      1.0000 0.23070  0.44600  0.98490  Biso   1.000  C
  H33      1.0000 0.80360  0.63450  0.99190  Biso   1.000  H
  H34      1.0000 0.19640  0.36550  0.00810  Biso   1.000  H
  C51      1.0000 0.65210  0.54650  0.06350  Biso   1.000  C
  C52      1.0000 0.34790  0.45350  0.93650  Biso   1.000  C
  H35      1.0000 0.60630  0.62180  0.07410  Biso   1.000  H
  H36      1.0000 0.39370  0.37820  0.92590  Biso   1.000  H
  C53      1.0000 0.60000  0.42910  0.09720  Biso   1.000  C
  C54      1.0000 0.40000  0.57090  0.90280  Biso   1.000  C
  H37      1.0000 0.51800  0.42450  0.12950  Biso   1.000  H
  H38      1.0000 0.48200  0.57550  0.87050  Biso   1.000  H
  C55      1.0000 0.66850  0.31830  0.08350  Biso   1.000  C
  C56      1.0000 0.33150  0.68170  0.91650  Biso   1.000  C
  H39      1.0000 0.63310  0.23860  0.10760  Biso   1.000  H
  H40      1.0000 0.36690  0.76140  0.89240  Biso   1.000  H
  C57      1.0000 0.23140  0.34900  0.71850  Biso   1.000  C
  C58      1.0000 0.76860  0.65100  0.28150  Biso   1.000  C
  H41      1.0000 0.19060  0.41360  0.68320  Biso   1.000  H
  H42      1.0000 0.80940  0.58640  0.31680  Biso   1.000  H
  C59      1.0000 0.16160  0.28360  0.79150  Biso   1.000  C
  C60      1.0000 0.83840  0.71640  0.20850  Biso   1.000  C
  H43      1.0000 0.07490  0.30680  0.80560  Biso   1.000  H
  H44      1.0000 0.92510  0.69320  0.19440  Biso   1.000  H
  C61      1.0000 0.34110  0.16080  0.82280  Biso   1.000  C
  C62      1.0000 0.65890  0.83920  0.17720  Biso   1.000  C
  C63      1.0000 0.41250  0.22670  0.75030  Biso   1.000  C
  C64      1.0000 0.58750  0.77330  0.24970  Biso   1.000  C
  C65      1.0000 0.55250  0.18270  0.73370  Biso   1.000  C
  C66      1.0000 0.44750  0.81730  0.26630  Biso   1.000  C
  H45      1.0000 0.56490  0.14080  0.68300  Biso   1.000  H
  H46      1.0000 0.43510  0.85920  0.31700  Biso   1.000  H
  H47      1.0000 0.57420  0.12320  0.78300  Biso   1.000  H
  H48      1.0000 0.42580  0.87680  0.21700  Biso   1.000  H
  H49      1.0000 0.60740  0.25620  0.72430  Biso   1.000  H
  H50      1.0000 0.39260  0.74380  0.27570  Biso   1.000  H
  Cu1      1.0000 0.45150  0.42756  0.57169  Biso   1.000  Cu
  Cu2      1.0000 0.54850  0.57244  0.42831  Biso   1.000  Cu
  Cu3      1.0000 0.08352  0.06888  0.94358  Biso   1.000  Cu
  Cu4      1.0000 0.91648  0.93112  0.05642  Biso   1.000  Cu
  N1       1.0000 0.35890  0.32100  0.69710  Biso   1.000  N
  N2       1.0000 0.64110  0.67900  0.30290  Biso   1.000  N
  N3       1.0000 0.21460  0.18710  0.84310  Biso   1.000  N
  N4       1.0000 0.78540  0.81290  0.15690  Biso   1.000  N
  O1       1.0000 0.46530  0.71470  0.48420  Biso   1.000  O
  O2       1.0000 0.53470  0.28530  0.51580  Biso   1.000  O
  O3       1.0000 0.38350  0.59220  0.60500  Biso   1.000  O
  O4       1.0000 0.61650  0.40780  0.39500  Biso   1.000  O
  O5       1.0000 0.61740  0.45960  0.61100  Biso   1.000  O
  O6       1.0000 0.38260  0.54040  0.38900  Biso   1.000  O
  O7       1.0000 0.69830  0.58190  0.48910  Biso   1.000  O
  O8       1.0000 0.30170  0.41810  0.51090  Biso   1.000  O
  O9       1.0000 0.02450  0.97450  0.13920  Biso   1.000  O
  O10      1.0000 0.97550  0.02550  0.86080  Biso   1.000  O
  O11      1.0000 0.16980  0.08870  0.04420  Biso   1.000  O
  O12      1.0000 0.83020  0.91130  0.95580  Biso   1.000  O
  O13      1.0000 0.96590  0.21400  0.96650  Biso   1.000  O
  O14      1.0000 0.03410  0.78600  0.03350  Biso   1.000  O
  O15      1.0000 0.82250  0.09740  0.06150  Biso   1.000  O
  O16      1.0000 0.17750  0.90260  0.93850  Biso   1.000  O
  C67      1.0000 0.41400  0.08300  0.88010  Biso   1.000  C
  C68      1.0000 0.58600  0.91700  0.11990  Biso   1.000  C
  H51      1.0000 0.36430  0.06760  0.93680  Biso   1.000  H
  H52      1.0000 0.63570  0.93240  0.06320  Biso   1.000  H
  H53      1.0000 0.49260  0.12480  0.88310  Biso   1.000  H
  H54      1.0000 0.50740  0.87520  0.11690  Biso   1.000  H
  H55      1.0000 0.43410  0.00150  0.85980  Biso   1.000  H
  H56      1.0000 0.56590  0.99850  0.14020  Biso   1.000  H
