data_image0
_cell_length_a       10.213
_cell_length_b       10.386
_cell_length_c       15.673
_cell_angle_alpha    80.728
_cell_angle_beta     82.581
_cell_angle_gamma    86.601

_symmetry_space_group_name_H-M    "P 1"
_symmetry_int_tables_number       1

loop_
  _symmetry_equiv_pos_as_xyz
  'x, y, z'

loop_
  _atom_site_label
  _atom_site_occupancy
  _atom_site_fract_x
  _atom_site_fract_y
  _atom_site_fract_z
  _atom_site_thermal_displace_type
  _atom_site_B_iso_or_equiv
  _atom_site_type_symbol
  C1       1.0000 0.40500  0.70300  0.55990  Biso   1.000  C
  C2       1.0000 0.59500  0.29700  0.44010  Biso   1.000  C
  C3       1.0000 0.34750  0.82030  0.59470  Biso   1.000  C
  C4       1.0000 0.65250  0.17970  0.40530  Biso   1.000  C
  C5       1.0000 0.34150  0.94220  0.54380  Biso   1.000  C
  C6       1.0000 0.65850  0.05780  0.45620  Biso   1.000  C
  H1       1.0000 0.38130  0.95240  0.48500  Biso   1.000  H
  H2       1.0000 0.61870  0.04760  0.51500  Biso   1.000  H
  C7       1.0000 0.28000  0.04790  0.57560  Biso   1.000  C
  C8       1.0000 0.72000  0.95210  0.42440  Biso   1.000  C
  H3       1.0000 0.27770  0.13040  0.53940  Biso   1.000  H
  H4       1.0000 0.72230  0.86960  0.46060  Biso   1.000  H
  C9       1.0000 0.22100  0.03410  0.66080  Biso   1.000  C
  C10      1.0000 0.77900  0.96590  0.33920  Biso   1.000  C
  H5       1.0000 0.17520  0.10670  0.68260  Biso   1.000  H
  H6       1.0000 0.82480  0.89330  0.31740  Biso   1.000  H
  C11      1.0000 0.22840  0.91580  0.71430  Biso   1.000  C
  C12      1.0000 0.77160  0.08420  0.28570  Biso   1.000  C
  H7       1.0000 0.19050  0.90740  0.77350  Biso   1.000  H
  H8       1.0000 0.80950  0.09260  0.22650  Biso   1.000  H
  C13      1.0000 0.29150  0.80880  0.68180  Biso   1.000  C
  C14      1.0000 0.70850  0.19120  0.31820  Biso   1.000  C
  H9       1.0000 0.29660  0.72720  0.71880  Biso   1.000  H
  H10      1.0000 0.70340  0.27280  0.28120  Biso   1.000  H
  C15      1.0000 0.70470  0.52740  0.56820  Biso   1.000  C
  C16      1.0000 0.29530  0.47260  0.43180  Biso   1.000  C
  C17      1.0000 0.81600  0.55730  0.61500  Biso   1.000  C
  C18      1.0000 0.18400  0.44270  0.38500  Biso   1.000  C
  C19      1.0000 0.80550  0.52180  0.70370  Biso   1.000  C
  C20      1.0000 0.19450  0.47820  0.29630  Biso   1.000  C
  H11      1.0000 0.73330  0.47280  0.73360  Biso   1.000  H
  H12      1.0000 0.26670  0.52720  0.26640  Biso   1.000  H
  C21      1.0000 0.90290  0.55880  0.74970  Biso   1.000  C
  C22      1.0000 0.09710  0.44120  0.25030  Biso   1.000  C
  H13      1.0000 0.89710  0.53410  0.81110  Biso   1.000  H
  H14      1.0000 0.10290  0.46590  0.18890  Biso   1.000  H
  C23      1.0000 0.00360  0.62870  0.70700  Biso   1.000  C
  C24      1.0000 0.99640  0.37130  0.29300  Biso   1.000  C
  H15      1.0000 0.06640  0.65690  0.73900  Biso   1.000  H
  H16      1.0000 0.93360  0.34310  0.26100  Biso   1.000  H
  C25      1.0000 0.01880  0.66120  0.61680  Biso   1.000  C
  C26      1.0000 0.98120  0.33880  0.38320  Biso   1.000  C
  H17      1.0000 0.09430  0.70510  0.58680  Biso   1.000  H
  H18      1.0000 0.90570  0.29490  0.41320  Biso   1.000  H
  C27      1.0000 0.91900  0.62710  0.57100  Biso   1.000  C
  C28      1.0000 0.08100  0.37290  0.42900  Biso   1.000  C
  H19      1.0000 0.92370  0.65280  0.50970  Biso   1.000  H
  H20      1.0000 0.07630  0.34720  0.49030  Biso   1.000  H
  C29      1.0000 0.12510  0.04140  0.12120  Biso   1.000  C
  C30      1.0000 0.87490  0.95860  0.87880  Biso   1.000  C
  C31      1.0000 0.19620  0.07060  0.19300  Biso   1.000  C
  C32      1.0000 0.80380  0.92940  0.80700  Biso   1.000  C
  C33      1.0000 0.13930  0.03600  0.27770  Biso   1.000  C
  C34      1.0000 0.86070  0.96400  0.72230  Biso   1.000  C
  H21      1.0000 0.05940  0.99040  0.28870  Biso   1.000  H
  H22      1.0000 0.94060  0.00960  0.71130  Biso   1.000  H
  C35      1.0000 0.19710  0.06700  0.34810  Biso   1.000  C
  C36      1.0000 0.80290  0.93300  0.65190  Biso   1.000  C
  H23      1.0000 0.15840  0.04120  0.40640  Biso   1.000  H
  H24      1.0000 0.84160  0.95880  0.59360  Biso   1.000  H
  C37      1.0000 0.31320  0.13680  0.33010  Biso   1.000  C
  C38      1.0000 0.68680  0.86320  0.66990  Biso   1.000  C
  H25      1.0000 0.35560  0.15710  0.37650  Biso   1.000  H
  H26      1.0000 0.64440  0.84290  0.62350  Biso   1.000  H
  C39      1.0000 0.36500  0.17550  0.24600  Biso   1.000  C
  C40      1.0000 0.63500  0.82450  0.75400  Biso   1.000  C
  H27      1.0000 0.44580  0.21950  0.23380  Biso   1.000  H
  H28      1.0000 0.55420  0.78050  0.76620  Biso   1.000  H
  C41      1.0000 0.30020  0.15080  0.17800  Biso   1.000  C
  C42      1.0000 0.69980  0.84920  0.82200  Biso   1.000  C
  H29      1.0000 0.32880  0.19050  0.12020  Biso   1.000  H
  H30      1.0000 0.67120  0.80950  0.87980  Biso   1.000  H
  C43      1.0000 0.85930  0.20500  0.02050  Biso   1.000  C
  C44      1.0000 0.14070  0.79500  0.97950  Biso   1.000  C
  C45      1.0000 0.78000  0.32680  0.03570  Biso   1.000  C
  C46      1.0000 0.22000  0.67320  0.96430  Biso   1.000  C
  C47      1.0000 0.83030  0.44700  0.00240  Biso   1.000  C
  C48      1.0000 0.16970  0.55300  0.99760  Biso   1.000  C
  H31      1.0000 0.91380  0.45190  0.96770  Biso   1.000  H
  H32      1.0000 0.08620  0.54810  0.03230  Biso   1.000  H
  C49      1.0000 0.76110  0.56130  0.01870  Biso   1.000  C
  C50      1.0000 0.23890  0.43870  0.98130  Biso   1.000  C
  H33      1.0000 0.79780  0.64370  0.99680  Biso   1.000  H
  H34      1.0000 0.20220  0.35630  0.00320  Biso   1.000  H
  C51      1.0000 0.64050  0.55370  0.06620  Biso   1.000  C
  C52      1.0000 0.35950  0.44630  0.93380  Biso   1.000  C
  H35      1.0000 0.59130  0.63140  0.07660  Biso   1.000  H
  H36      1.0000 0.40870  0.36860  0.92340  Biso   1.000  H
  C53      1.0000 0.58840  0.43350  0.09980  Biso   1.000  C
  C54      1.0000 0.41160  0.56650  0.90020  Biso   1.000  C
  H37      1.0000 0.50450  0.42940  0.13400  Biso   1.000  H
  H38      1.0000 0.49550  0.57060  0.86600  Biso   1.000  H
  C55      1.0000 0.65600  0.32100  0.08430  Biso   1.000  C
  C56      1.0000 0.34400  0.67900  0.91570  Biso   1.000  C
  H39      1.0000 0.61870  0.23890  0.10660  Biso   1.000  H
  H40      1.0000 0.38130  0.76110  0.89340  Biso   1.000  H
  C57      1.0000 0.22960  0.35300  0.71970  Biso   1.000  C
  C58      1.0000 0.77040  0.64700  0.28030  Biso   1.000  C
  H41      1.0000 0.18650  0.42140  0.68450  Biso   1.000  H
  H42      1.0000 0.81350  0.57860  0.31550  Biso   1.000  H
  C59      1.0000 0.15940  0.28900  0.79260  Biso   1.000  C
  C60      1.0000 0.84060  0.71100  0.20740  Biso   1.000  C
  H43      1.0000 0.06980  0.31540  0.80730  Biso   1.000  H
  H44      1.0000 0.93020  0.68460  0.19270  Biso   1.000  H
  C61      1.0000 0.34110  0.15970  0.82200  Biso   1.000  C
  C62      1.0000 0.65890  0.84030  0.17800  Biso   1.000  C
  C63      1.0000 0.41240  0.22530  0.74820  Biso   1.000  C
  C64      1.0000 0.58760  0.77470  0.25180  Biso   1.000  C
  C65      1.0000 0.55480  0.17860  0.72800  Biso   1.000  C
  C66      1.0000 0.44520  0.82140  0.27200  Biso   1.000  C
  H45      1.0000 0.56400  0.13680  0.67560  Biso   1.000  H
  H46      1.0000 0.43600  0.86320  0.32440  Biso   1.000  H
  H47      1.0000 0.58020  0.11540  0.77720  Biso   1.000  H
  H48      1.0000 0.41980  0.88460  0.22280  Biso   1.000  H
  H49      1.0000 0.61220  0.25320  0.71810  Biso   1.000  H
  H50      1.0000 0.38780  0.74680  0.28190  Biso   1.000  H
  Cu1      1.0000 0.45071  0.42627  0.57125  Biso   1.000  Cu
  Cu2      1.0000 0.54929  0.57373  0.42875  Biso   1.000  Cu
  Cu3      1.0000 0.08398  0.07024  0.94418  Biso   1.000  Cu
  Cu4      1.0000 0.91602  0.92976  0.05582  Biso   1.000  Cu
  N1       1.0000 0.35910  0.32250  0.69560  Biso   1.000  N
  N2       1.0000 0.64090  0.67750  0.30440  Biso   1.000  N
  N3       1.0000 0.21370  0.18950  0.84410  Biso   1.000  N
  N4       1.0000 0.78630  0.81050  0.15590  Biso   1.000  N
  O1       1.0000 0.46770  0.71970  0.48400  Biso   1.000  O
  O2       1.0000 0.53230  0.28030  0.51600  Biso   1.000  O
  O3       1.0000 0.38460  0.59330  0.60590  Biso   1.000  O
  O4       1.0000 0.61540  0.40670  0.39410  Biso   1.000  O
  O5       1.0000 0.62000  0.45350  0.60960  Biso   1.000  O
  O6       1.0000 0.38000  0.54650  0.39040  Biso   1.000  O
  O7       1.0000 0.70630  0.57940  0.48900  Biso   1.000  O
  O8       1.0000 0.29370  0.42060  0.51100  Biso   1.000  O
  O9       1.0000 0.02470  0.97250  0.13990  Biso   1.000  O
  O10      1.0000 0.97530  0.02750  0.86010  Biso   1.000  O
  O11      1.0000 0.17170  0.09180  0.04510  Biso   1.000  O
  O12      1.0000 0.82830  0.90820  0.95490  Biso   1.000  O
  O13      1.0000 0.96150  0.21750  0.96810  Biso   1.000  O
  O14      1.0000 0.03850  0.78250  0.03190  Biso   1.000  O
  O15      1.0000 0.81760  0.09810  0.06090  Biso   1.000  O
  O16      1.0000 0.18240  0.90190  0.93910  Biso   1.000  O
  C67      1.0000 0.42300  0.07600  0.87870  Biso   1.000  C
  C68      1.0000 0.57700  0.92400  0.12130  Biso   1.000  C
  H51      1.0000 0.40440  0.09730  0.93780  Biso   1.000  H
  H52      1.0000 0.59560  0.90270  0.06220  Biso   1.000  H
  H53      1.0000 0.51620  0.08920  0.85710  Biso   1.000  H
  H54      1.0000 0.48380  0.91080  0.14290  Biso   1.000  H
  H55      1.0000 0.40310  0.98450  0.87940  Biso   1.000  H
  H56      1.0000 0.59690  0.01550  0.12060  Biso   1.000  H
