data_image0
_cell_length_a       10.2611
_cell_length_b       10.4184
_cell_length_c       15.6335
_cell_angle_alpha    81.141
_cell_angle_beta     82.302
_cell_angle_gamma    87.722

_symmetry_space_group_name_H-M    "P 1"
_symmetry_int_tables_number       1

loop_
  _symmetry_equiv_pos_as_xyz
  'x, y, z'

loop_
  _atom_site_label
  _atom_site_occupancy
  _atom_site_fract_x
  _atom_site_fract_y
  _atom_site_fract_z
  _atom_site_thermal_displace_type
  _atom_site_B_iso_or_equiv
  _atom_site_type_symbol
  C1       1.0000 0.41060  0.70200  0.55997  Biso   1.000  C
  C2       1.0000 0.58940  0.29800  0.44003  Biso   1.000  C
  C3       1.0000 0.35810  0.82030  0.59760  Biso   1.000  C
  C4       1.0000 0.64190  0.17970  0.40240  Biso   1.000  C
  C5       1.0000 0.34760  0.93790  0.54343  Biso   1.000  C
  C6       1.0000 0.65240  0.06210  0.45657  Biso   1.000  C
  H1       1.0000 0.37870  0.94490  0.48290  Biso   1.000  H
  H2       1.0000 0.62130  0.05510  0.51710  Biso   1.000  H
  C7       1.0000 0.29130  0.04570  0.57784  Biso   1.000  C
  C8       1.0000 0.70870  0.95430  0.42216  Biso   1.000  C
  H3       1.0000 0.28440  0.12650  0.54100  Biso   1.000  H
  H4       1.0000 0.71560  0.87350  0.45900  Biso   1.000  H
  C9       1.0000 0.24550  0.03470  0.66604  Biso   1.000  C
  C10      1.0000 0.75450  0.96530  0.33396  Biso   1.000  C
  H5       1.0000 0.20400  0.10750  0.68900  Biso   1.000  H
  H6       1.0000 0.79600  0.89250  0.31100  Biso   1.000  H
  C11      1.0000 0.25930  0.91930  0.72101  Biso   1.000  C
  C12      1.0000 0.74070  0.08070  0.27899  Biso   1.000  C
  H7       1.0000 0.22990  0.91340  0.78170  Biso   1.000  H
  H8       1.0000 0.77010  0.08660  0.21830  Biso   1.000  H
  C13      1.0000 0.31660  0.81190  0.68690  Biso   1.000  C
  C14      1.0000 0.68340  0.18810  0.31310  Biso   1.000  C
  H9       1.0000 0.32760  0.73250  0.72450  Biso   1.000  H
  H10      1.0000 0.67240  0.26750  0.27550  Biso   1.000  H
  C15      1.0000 0.71530  0.54040  0.55158  Biso   1.000  C
  C16      1.0000 0.28470  0.45960  0.44842  Biso   1.000  C
  C17      1.0000 0.83480  0.57220  0.58790  Biso   1.000  C
  C18      1.0000 0.16520  0.42780  0.41210  Biso   1.000  C
  C19      1.0000 0.84240  0.53670  0.67630  Biso   1.000  C
  C20      1.0000 0.15760  0.46330  0.32370  Biso   1.000  C
  H11      1.0000 0.77420  0.48770  0.71240  Biso   1.000  H
  H12      1.0000 0.22580  0.51230  0.28760  Biso   1.000  H
  C21      1.0000 0.94940  0.57250  0.71210  Biso   1.000  C
  C22      1.0000 0.05060  0.42750  0.28790  Biso   1.000  C
  H13      1.0000 0.95430  0.54960  0.77290  Biso   1.000  H
  H14      1.0000 0.04570  0.45040  0.22710  Biso   1.000  H
  C23      1.0000 0.04900  0.64210  0.65870  Biso   1.000  C
  C24      1.0000 0.95100  0.35790  0.34130  Biso   1.000  C
  H15      1.0000 0.12240  0.66690  0.68310  Biso   1.000  H
  H16      1.0000 0.87760  0.33310  0.31690  Biso   1.000  H
  C25      1.0000 0.04330  0.67590  0.57030  Biso   1.000  C
  C26      1.0000 0.95670  0.32410  0.42970  Biso   1.000  C
  H17      1.0000 0.11310  0.72230  0.53410  Biso   1.000  H
  H18      1.0000 0.88690  0.27770  0.46590  Biso   1.000  H
  C27      1.0000 0.93560  0.64200  0.53480  Biso   1.000  C
  C28      1.0000 0.06440  0.35800  0.46520  Biso   1.000  C
  H19      1.0000 0.93050  0.66630  0.47420  Biso   1.000  H
  H20      1.0000 0.06950  0.33370  0.52580  Biso   1.000  H
  C29      1.0000 0.11160  0.04260  0.12759  Biso   1.000  C
  C30      1.0000 0.88840  0.95740  0.87241  Biso   1.000  C
  C31      1.0000 0.17610  0.07550  0.20151  Biso   1.000  C
  C32      1.0000 0.82390  0.92450  0.79849  Biso   1.000  C
  C33      1.0000 0.12440  0.03290  0.28733  Biso   1.000  C
  C34      1.0000 0.87560  0.96710  0.71267  Biso   1.000  C
  H21      1.0000 0.04820  0.98100  0.29960  Biso   1.000  H
  H22      1.0000 0.95180  0.01900  0.70040  Biso   1.000  H
  C35      1.0000 0.18390  0.06600  0.35538  Biso   1.000  C
  C36      1.0000 0.81610  0.93400  0.64462  Biso   1.000  C
  H23      1.0000 0.14800  0.03720  0.41410  Biso   1.000  H
  H24      1.0000 0.85200  0.96280  0.58590  Biso   1.000  H
  C37      1.0000 0.29530  0.14080  0.33778  Biso   1.000  C
  C38      1.0000 0.70470  0.85920  0.66222  Biso   1.000  C
  H25      1.0000 0.33610  0.16290  0.38450  Biso   1.000  H
  H26      1.0000 0.66390  0.83710  0.61550  Biso   1.000  H
  C39      1.0000 0.34770  0.18380  0.25217  Biso   1.000  C
  C40      1.0000 0.65230  0.81620  0.74783  Biso   1.000  C
  H27      1.0000 0.42430  0.23520  0.24030  Biso   1.000  H
  H28      1.0000 0.57570  0.76480  0.75970  Biso   1.000  H
  C41      1.0000 0.28830  0.15160  0.18395  Biso   1.000  C
  C42      1.0000 0.71170  0.84840  0.81605  Biso   1.000  C
  H29      1.0000 0.32400  0.18140  0.12530  Biso   1.000  H
  H30      1.0000 0.67600  0.81860  0.87470  Biso   1.000  H
  C43      1.0000 0.86640  0.20750  0.01313  Biso   1.000  C
  C44      1.0000 0.13360  0.79250  0.98687  Biso   1.000  C
  C45      1.0000 0.78830  0.33020  0.02572  Biso   1.000  C
  C46      1.0000 0.21170  0.66980  0.97428  Biso   1.000  C
  C47      1.0000 0.84000  0.44980  0.98738  Biso   1.000  C
  C48      1.0000 0.16000  0.55020  0.01262  Biso   1.000  C
  H31      1.0000 0.92300  0.45380  0.95200  Biso   1.000  H
  H32      1.0000 0.07700  0.54620  0.04800  Biso   1.000  H
  C49      1.0000 0.77010  0.56380  0.00100  Biso   1.000  C
  C50      1.0000 0.22990  0.43620  0.99900  Biso   1.000  C
  H33      1.0000 0.80570  0.64570  0.97520  Biso   1.000  H
  H34      1.0000 0.19430  0.35430  0.02480  Biso   1.000  H
  C51      1.0000 0.64920  0.55770  0.05180  Biso   1.000  C
  C52      1.0000 0.35080  0.44230  0.94820  Biso   1.000  C
  H35      1.0000 0.60150  0.63560  0.06080  Biso   1.000  H
  H36      1.0000 0.39850  0.36440  0.93920  Biso   1.000  H
  C53      1.0000 0.59690  0.43880  0.08990  Biso   1.000  C
  C54      1.0000 0.40310  0.56120  0.91010  Biso   1.000  C
  H37      1.0000 0.51350  0.43510  0.12480  Biso   1.000  H
  H38      1.0000 0.48650  0.56490  0.87520  Biso   1.000  H
  C55      1.0000 0.66660  0.32470  0.07679  Biso   1.000  C
  C56      1.0000 0.33340  0.67530  0.92321  Biso   1.000  C
  H39      1.0000 0.63090  0.24300  0.10280  Biso   1.000  H
  H40      1.0000 0.36910  0.75700  0.89720  Biso   1.000  H
  C57      1.0000 0.25130  0.35170  0.72669  Biso   1.000  C
  C58      1.0000 0.74870  0.64830  0.27331  Biso   1.000  C
  H41      1.0000 0.20980  0.42010  0.69200  Biso   1.000  H
  H42      1.0000 0.79020  0.57990  0.30800  Biso   1.000  H
  C59      1.0000 0.17950  0.28410  0.79931  Biso   1.000  C
  C60      1.0000 0.82050  0.71590  0.20069  Biso   1.000  C
  H43      1.0000 0.08860  0.30440  0.81220  Biso   1.000  H
  H44      1.0000 0.91140  0.69560  0.18780  Biso   1.000  H
  C61      1.0000 0.36360  0.16610  0.83326  Biso   1.000  C
  C62      1.0000 0.63640  0.83390  0.16674  Biso   1.000  C
  C63      1.0000 0.43650  0.23070  0.75668  Biso   1.000  C
  C64      1.0000 0.56350  0.76930  0.24332  Biso   1.000  C
  C65      1.0000 0.43030  0.06910  0.89543  Biso   1.000  C
  C66      1.0000 0.56970  0.93090  0.10457  Biso   1.000  C
  H45      1.0000 0.36870  0.04250  0.94820  Biso   1.000  H
  H46      1.0000 0.63130  0.95750  0.05180  Biso   1.000  H
  H47      1.0000 0.50710  0.10870  0.91120  Biso   1.000  H
  H48      1.0000 0.49290  0.89130  0.08880  Biso   1.000  H
  H49      1.0000 0.45870  0.99290  0.86750  Biso   1.000  H
  H50      1.0000 0.54130  0.00710  0.13250  Biso   1.000  H
  C67      1.0000 0.57840  0.19600  0.73211  Biso   1.000  C
  C68      1.0000 0.42160  0.80400  0.26789  Biso   1.000  C
  H51      1.0000 0.61120  0.24720  0.67590  Biso   1.000  H
  H52      1.0000 0.38880  0.75280  0.32410  Biso   1.000  H
  H53      1.0000 0.58690  0.10330  0.72730  Biso   1.000  H
  H54      1.0000 0.41310  0.89670  0.27270  Biso   1.000  H
  H55      1.0000 0.62980  0.21500  0.77700  Biso   1.000  H
  H56      1.0000 0.37020  0.78500  0.22300  Biso   1.000  H
  Cu1      1.0000 0.46098  0.42822  0.57493  Biso   1.000  Cu
  Cu2      1.0000 0.53902  0.57178  0.42507  Biso   1.000  Cu
  Cu3      1.0000 0.08966  0.06753  0.94539  Biso   1.000  Cu
  Cu4      1.0000 0.91034  0.93247  0.05461  Biso   1.000  Cu
  N1       1.0000 0.37930  0.32291  0.70397  Biso   1.000  N
  N2       1.0000 0.62070  0.67709  0.29603  Biso   1.000  N
  N3       1.0000 0.23520  0.18986  0.85236  Biso   1.000  N
  N4       1.0000 0.76480  0.81014  0.14764  Biso   1.000  N
  O1       1.0000 0.46350  0.71742  0.48198  Biso   1.000  O
  O2       1.0000 0.53650  0.28258  0.51802  Biso   1.000  O
  O3       1.0000 0.39650  0.59469  0.60965  Biso   1.000  O
  O4       1.0000 0.60350  0.40531  0.39035  Biso   1.000  O
  O5       1.0000 0.63380  0.46710  0.60155  Biso   1.000  O
  O6       1.0000 0.36620  0.53290  0.39845  Biso   1.000  O
  O7       1.0000 0.70230  0.59040  0.47428  Biso   1.000  O
  O8       1.0000 0.29770  0.40960  0.52572  Biso   1.000  O
  O9       1.0000 0.01092  0.97236  0.14554  Biso   1.000  O
  O10      1.0000 0.98908  0.02764  0.85446  Biso   1.000  O
  O11      1.0000 0.16274  0.08880  0.05144  Biso   1.000  O
  O12      1.0000 0.83726  0.91120  0.94856  Biso   1.000  O
  O13      1.0000 0.97223  0.21835  0.96182  Biso   1.000  O
  O14      1.0000 0.02777  0.78165  0.03818  Biso   1.000  O
  O15      1.0000 0.82062  0.10276  0.05604  Biso   1.000  O
  O16      1.0000 0.17938  0.89724  0.94396  Biso   1.000  O
