data_image0
_cell_length_a       10.484
_cell_length_b       10.515
_cell_length_c       15.681
_cell_angle_alpha    81.244
_cell_angle_beta     82.174
_cell_angle_gamma    88.84

_symmetry_space_group_name_H-M    "P 1"
_symmetry_int_tables_number       1

loop_
  _symmetry_equiv_pos_as_xyz
  'x, y, z'

loop_
  _atom_site_label
  _atom_site_occupancy
  _atom_site_fract_x
  _atom_site_fract_y
  _atom_site_fract_z
  _atom_site_thermal_displace_type
  _atom_site_B_iso_or_equiv
  _atom_site_type_symbol
  C1       1.0000 0.41050  0.69830  0.56010  Biso   1.000  C
  C2       1.0000 0.58950  0.30170  0.43990  Biso   1.000  C
  C3       1.0000 0.35830  0.81470  0.59720  Biso   1.000  C
  C4       1.0000 0.64170  0.18530  0.40280  Biso   1.000  C
  C5       1.0000 0.35070  0.93050  0.54450  Biso   1.000  C
  C6       1.0000 0.64930  0.06950  0.45550  Biso   1.000  C
  H1       1.0000 0.38280  0.93830  0.48560  Biso   1.000  H
  H2       1.0000 0.61720  0.06170  0.51440  Biso   1.000  H
  C7       1.0000 0.29540  0.03600  0.57870  Biso   1.000  C
  C8       1.0000 0.70460  0.96400  0.42130  Biso   1.000  C
  H3       1.0000 0.29040  0.11440  0.54270  Biso   1.000  H
  H4       1.0000 0.70960  0.88560  0.45730  Biso   1.000  H
  C9       1.0000 0.24830  0.02490  0.66490  Biso   1.000  C
  C10      1.0000 0.75170  0.97510  0.33510  Biso   1.000  C
  H5       1.0000 0.20930  0.09530  0.68720  Biso   1.000  H
  H6       1.0000 0.79070  0.90470  0.31280  Biso   1.000  H
  C11      1.0000 0.25800  0.91070  0.71890  Biso   1.000  C
  C12      1.0000 0.74200  0.08930  0.28110  Biso   1.000  C
  H7       1.0000 0.22730  0.90440  0.77790  Biso   1.000  H
  H8       1.0000 0.77270  0.09560  0.22210  Biso   1.000  H
  C13      1.0000 0.31360  0.80490  0.68580  Biso   1.000  C
  C14      1.0000 0.68640  0.19510  0.31420  Biso   1.000  C
  H9       1.0000 0.32110  0.72760  0.72250  Biso   1.000  H
  H10      1.0000 0.67890  0.27240  0.27750  Biso   1.000  H
  C15      1.0000 0.71180  0.54380  0.54970  Biso   1.000  C
  C16      1.0000 0.28820  0.45620  0.45030  Biso   1.000  C
  C17      1.0000 0.83180  0.57560  0.58310  Biso   1.000  C
  C18      1.0000 0.16820  0.42440  0.41690  Biso   1.000  C
  C19      1.0000 0.84430  0.53670  0.66900  Biso   1.000  C
  C20      1.0000 0.15570  0.46330  0.33100  Biso   1.000  C
  H11      1.0000 0.77900  0.48790  0.70440  Biso   1.000  H
  H12      1.0000 0.22100  0.51210  0.29560  Biso   1.000  H
  C21      1.0000 0.95240  0.56800  0.70490  Biso   1.000  C
  C22      1.0000 0.04760  0.43200  0.29510  Biso   1.000  C
  H13      1.0000 0.96020  0.54360  0.76350  Biso   1.000  H
  H14      1.0000 0.03980  0.45640  0.23650  Biso   1.000  H
  C23      1.0000 0.04530  0.63640  0.64860  Biso   1.000  C
  C24      1.0000 0.95470  0.36360  0.35140  Biso   1.000  C
  H15      1.0000 0.11790  0.65890  0.67110  Biso   1.000  H
  H16      1.0000 0.88210  0.34110  0.32890  Biso   1.000  H
  C25      1.0000 0.04130  0.67490  0.56250  Biso   1.000  C
  C26      1.0000 0.95870  0.32510  0.43750  Biso   1.000  C
  H17      1.0000 0.10940  0.71890  0.52670  Biso   1.000  H
  H18      1.0000 0.89060  0.28110  0.47330  Biso   1.000  H
  C27      1.0000 0.92800  0.64450  0.53000  Biso   1.000  C
  C28      1.0000 0.07200  0.35550  0.47000  Biso   1.000  C
  H19      1.0000 0.91920  0.67180  0.47180  Biso   1.000  H
  H20      1.0000 0.08080  0.32820  0.52820  Biso   1.000  H
  C29      1.0000 0.11070  0.04210  0.12670  Biso   1.000  C
  C30      1.0000 0.88930  0.95790  0.87330  Biso   1.000  C
  C31      1.0000 0.17600  0.07330  0.19980  Biso   1.000  C
  C32      1.0000 0.82400  0.92670  0.80020  Biso   1.000  C
  C33      1.0000 0.12660  0.03080  0.28460  Biso   1.000  C
  C34      1.0000 0.87340  0.96920  0.71540  Biso   1.000  C
  H21      1.0000 0.05270  0.98030  0.29720  Biso   1.000  H
  H22      1.0000 0.94730  0.01970  0.70280  Biso   1.000  H
  C35      1.0000 0.18750  0.06330  0.35200  Biso   1.000  C
  C36      1.0000 0.81250  0.93670  0.64800  Biso   1.000  C
  H23      1.0000 0.15360  0.03510  0.40950  Biso   1.000  H
  H24      1.0000 0.84640  0.96490  0.59050  Biso   1.000  H
  C37      1.0000 0.29620  0.13610  0.33410  Biso   1.000  C
  C38      1.0000 0.70380  0.86390  0.66590  Biso   1.000  C
  H25      1.0000 0.33590  0.15800  0.37940  Biso   1.000  H
  H26      1.0000 0.66410  0.84200  0.62060  Biso   1.000  H
  C39      1.0000 0.34710  0.17690  0.25040  Biso   1.000  C
  C40      1.0000 0.65290  0.82310  0.74960  Biso   1.000  C
  H27      1.0000 0.42260  0.22500  0.23850  Biso   1.000  H
  H28      1.0000 0.57740  0.77500  0.76150  Biso   1.000  H
  C41      1.0000 0.28690  0.14700  0.18280  Biso   1.000  C
  C42      1.0000 0.71310  0.85300  0.81720  Biso   1.000  C
  H29      1.0000 0.32120  0.17670  0.12550  Biso   1.000  H
  H30      1.0000 0.67880  0.82330  0.87450  Biso   1.000  H
  C43      1.0000 0.87230  0.20550  0.01160  Biso   1.000  C
  C44      1.0000 0.12770  0.79450  0.98840  Biso   1.000  C
  C45      1.0000 0.79830  0.32780  0.02130  Biso   1.000  C
  C46      1.0000 0.20170  0.67220  0.97870  Biso   1.000  C
  C47      1.0000 0.84810  0.44400  0.98070  Biso   1.000  C
  C48      1.0000 0.15190  0.55600  0.01930  Biso   1.000  C
  H31      1.0000 0.92730  0.44790  0.94550  Biso   1.000  H
  H32      1.0000 0.07270  0.55210  0.05450  Biso   1.000  H
  C49      1.0000 0.77960  0.55680  0.99240  Biso   1.000  C
  C50      1.0000 0.22040  0.44320  0.00760  Biso   1.000  C
  H33      1.0000 0.81370  0.63590  0.96500  Biso   1.000  H
  H34      1.0000 0.18630  0.36410  0.03500  Biso   1.000  H
  C51      1.0000 0.66540  0.55230  0.04250  Biso   1.000  C
  C52      1.0000 0.33460  0.44770  0.95750  Biso   1.000  C
  H35      1.0000 0.62060  0.62800  0.04970  Biso   1.000  H
  H36      1.0000 0.37940  0.37200  0.95030  Biso   1.000  H
  C53      1.0000 0.61450  0.43740  0.08300  Biso   1.000  C
  C54      1.0000 0.38550  0.56260  0.91700  Biso   1.000  C
  H37      1.0000 0.53510  0.43440  0.11800  Biso   1.000  H
  H38      1.0000 0.46490  0.56560  0.88200  Biso   1.000  H
  C55      1.0000 0.68100  0.32550  0.07210  Biso   1.000  C
  C56      1.0000 0.31900  0.67450  0.92790  Biso   1.000  C
  H39      1.0000 0.64570  0.24710  0.09960  Biso   1.000  H
  H40      1.0000 0.35430  0.75290  0.90040  Biso   1.000  H
  C57      1.0000 0.25470  0.34580  0.72630  Biso   1.000  C
  C58      1.0000 0.74530  0.65420  0.27370  Biso   1.000  C
  H41      1.0000 0.21490  0.41000  0.69160  Biso   1.000  H
  H42      1.0000 0.78510  0.59000  0.30840  Biso   1.000  H
  C59      1.0000 0.18410  0.27790  0.79790  Biso   1.000  C
  C60      1.0000 0.81590  0.72210  0.20210  Biso   1.000  C
  H43      1.0000 0.09670  0.29530  0.80980  Biso   1.000  H
  H44      1.0000 0.90330  0.70470  0.19020  Biso   1.000  H
  C61      1.0000 0.36310  0.16700  0.83340  Biso   1.000  C
  C62      1.0000 0.63690  0.83300  0.16660  Biso   1.000  C
  C63      1.0000 0.43540  0.23260  0.75830  Biso   1.000  C
  C64      1.0000 0.56460  0.76740  0.24170  Biso   1.000  C
  C65      1.0000 0.42610  0.07320  0.89650  Biso   1.000  C
  C66      1.0000 0.57390  0.92680  0.10350  Biso   1.000  C
  H45      1.0000 0.36860  0.05380  0.94990  Biso   1.000  H
  H46      1.0000 0.63140  0.94620  0.05010  Biso   1.000  H
  H47      1.0000 0.50390  0.11010  0.90790  Biso   1.000  H
  H48      1.0000 0.49610  0.88990  0.09210  Biso   1.000  H
  H49      1.0000 0.44620  0.99560  0.87220  Biso   1.000  H
  H50      1.0000 0.55380  0.00440  0.12780  Biso   1.000  H
  C67      1.0000 0.57550  0.20370  0.73370  Biso   1.000  C
  C68      1.0000 0.42450  0.79630  0.26630  Biso   1.000  C
  H51      1.0000 0.60400  0.24650  0.67590  Biso   1.000  H
  H52      1.0000 0.39600  0.75350  0.32410  Biso   1.000  H
  H53      1.0000 0.58690  0.11250  0.73570  Biso   1.000  H
  H54      1.0000 0.41310  0.88750  0.26430  Biso   1.000  H
  H55      1.0000 0.62500  0.23360  0.77390  Biso   1.000  H
  H56      1.0000 0.37500  0.76640  0.22610  Biso   1.000  H
  Cu1      1.0000 0.46302  0.42845  0.57536  Biso   1.000  Cu
  Cu2      1.0000 0.53698  0.57155  0.42464  Biso   1.000  Cu
  Cu3      1.0000 0.09044  0.06568  0.94524  Biso   1.000  Cu
  Cu4      1.0000 0.90956  0.93432  0.05476  Biso   1.000  Cu
  N1       1.0000 0.38060  0.32170  0.70490  Biso   1.000  N
  N2       1.0000 0.61940  0.67830  0.29510  Biso   1.000  N
  N3       1.0000 0.23720  0.18740  0.85110  Biso   1.000  N
  N4       1.0000 0.76280  0.81260  0.14890  Biso   1.000  N
  O1       1.0000 0.46200  0.71360  0.48234  Biso   1.000  O
  O2       1.0000 0.53800  0.28640  0.51766  Biso   1.000  O
  O3       1.0000 0.39880  0.59250  0.60978  Biso   1.000  O
  O4       1.0000 0.60120  0.40750  0.39022  Biso   1.000  O
  O5       1.0000 0.63290  0.47200  0.60050  Biso   1.000  O
  O6       1.0000 0.36710  0.52800  0.39950  Biso   1.000  O
  O7       1.0000 0.69640  0.59370  0.47350  Biso   1.000  O
  O8       1.0000 0.30360  0.40630  0.52650  Biso   1.000  O
  O9       1.0000 0.00940  0.97490  0.14497  Biso   1.000  O
  O10      1.0000 0.99060  0.02510  0.85503  Biso   1.000  O
  O11      1.0000 0.16120  0.08760  0.05122  Biso   1.000  O
  O12      1.0000 0.83880  0.91240  0.94878  Biso   1.000  O
  O13      1.0000 0.97710  0.21460  0.96090  Biso   1.000  O
  O14      1.0000 0.02290  0.78540  0.03910  Biso   1.000  O
  O15      1.0000 0.82560  0.10330  0.05491  Biso   1.000  O
  O16      1.0000 0.17440  0.89670  0.94509  Biso   1.000  O
