data_image0
_cell_length_a       10.5149
_cell_length_b       10.3425
_cell_length_c       15.5194
_cell_angle_alpha    82.721
_cell_angle_beta     82.702
_cell_angle_gamma    89.957

_symmetry_space_group_name_H-M    "P 1"
_symmetry_int_tables_number       1

loop_
  _symmetry_equiv_pos_as_xyz
  'x, y, z'

loop_
  _atom_site_label
  _atom_site_occupancy
  _atom_site_fract_x
  _atom_site_fract_y
  _atom_site_fract_z
  _atom_site_thermal_displace_type
  _atom_site_B_iso_or_equiv
  _atom_site_type_symbol
  C1       1.0000 0.40950  0.70010  0.56090  Biso   1.000  C
  C2       1.0000 0.59050  0.29990  0.43910  Biso   1.000  C
  C3       1.0000 0.35420  0.81890  0.59780  Biso   1.000  C
  C4       1.0000 0.64580  0.18110  0.40220  Biso   1.000  C
  C5       1.0000 0.34690  0.93550  0.54400  Biso   1.000  C
  C6       1.0000 0.65310  0.06450  0.45600  Biso   1.000  C
  H1       1.0000 0.38210  0.94280  0.48410  Biso   1.000  H
  H2       1.0000 0.61790  0.05720  0.51590  Biso   1.000  H
  C7       1.0000 0.28810  0.04190  0.57770  Biso   1.000  C
  C8       1.0000 0.71190  0.95810  0.42230  Biso   1.000  C
  H3       1.0000 0.28380  0.12220  0.54100  Biso   1.000  H
  H4       1.0000 0.71620  0.87780  0.45900  Biso   1.000  H
  C9       1.0000 0.23580  0.03070  0.66490  Biso   1.000  C
  C10      1.0000 0.76420  0.96930  0.33510  Biso   1.000  C
  H5       1.0000 0.19220  0.10220  0.68740  Biso   1.000  H
  H6       1.0000 0.80780  0.89780  0.31260  Biso   1.000  H
  C11      1.0000 0.24670  0.91570  0.71940  Biso   1.000  C
  C12      1.0000 0.75330  0.08430  0.28060  Biso   1.000  C
  H7       1.0000 0.21320  0.90950  0.77960  Biso   1.000  H
  H8       1.0000 0.78680  0.09050  0.22040  Biso   1.000  H
  C13      1.0000 0.30630  0.80980  0.68670  Biso   1.000  C
  C14      1.0000 0.69370  0.19020  0.31330  Biso   1.000  C
  H9       1.0000 0.31460  0.73120  0.72440  Biso   1.000  H
  H10      1.0000 0.68540  0.26880  0.27560  Biso   1.000  H
  C15      1.0000 0.70790  0.54410  0.55800  Biso   1.000  C
  C16      1.0000 0.29210  0.45590  0.44200  Biso   1.000  C
  C17      1.0000 0.82420  0.57470  0.59630  Biso   1.000  C
  C18      1.0000 0.17580  0.42530  0.40370  Biso   1.000  C
  C19      1.0000 0.82360  0.54950  0.68630  Biso   1.000  C
  C20      1.0000 0.17640  0.45050  0.31370  Biso   1.000  C
  H11      1.0000 0.74960  0.51040  0.72130  Biso   1.000  H
  H12      1.0000 0.25040  0.48960  0.27870  Biso   1.000  H
  C21      1.0000 0.92930  0.58010  0.72650  Biso   1.000  C
  C22      1.0000 0.07070  0.41990  0.27350  Biso   1.000  C
  H13      1.0000 0.92760  0.56460  0.78830  Biso   1.000  H
  H14      1.0000 0.07240  0.43540  0.21170  Biso   1.000  H
  C23      1.0000 0.03540  0.63340  0.67360  Biso   1.000  C
  C24      1.0000 0.96460  0.36660  0.32640  Biso   1.000  C
  H15      1.0000 0.10930  0.65270  0.69930  Biso   1.000  H
  H16      1.0000 0.89070  0.34730  0.30070  Biso   1.000  H
  C25      1.0000 0.03760  0.65990  0.58350  Biso   1.000  C
  C26      1.0000 0.96240  0.34010  0.41650  Biso   1.000  C
  H17      1.0000 0.11190  0.69810  0.54820  Biso   1.000  H
  H18      1.0000 0.88810  0.30190  0.45180  Biso   1.000  H
  C27      1.0000 0.92860  0.62980  0.54470  Biso   1.000  C
  C28      1.0000 0.07140  0.37020  0.45530  Biso   1.000  C
  H19      1.0000 0.92870  0.64790  0.48310  Biso   1.000  H
  H20      1.0000 0.07130  0.35210  0.51690  Biso   1.000  H
  C29      1.0000 0.11430  0.04770  0.12710  Biso   1.000  C
  C30      1.0000 0.88570  0.95230  0.87290  Biso   1.000  C
  C31      1.0000 0.18250  0.08170  0.19950  Biso   1.000  C
  C32      1.0000 0.81750  0.91830  0.80050  Biso   1.000  C
  C33      1.0000 0.12980  0.05020  0.28610  Biso   1.000  C
  C34      1.0000 0.87020  0.94980  0.71390  Biso   1.000  C
  H21      1.0000 0.04880  0.00670  0.29950  Biso   1.000  H
  H22      1.0000 0.95120  0.99330  0.70050  Biso   1.000  H
  C35      1.0000 0.19440  0.08160  0.35330  Biso   1.000  C
  C36      1.0000 0.80560  0.91840  0.64670  Biso   1.000  C
  H23      1.0000 0.15760  0.05910  0.41240  Biso   1.000  H
  H24      1.0000 0.84240  0.94090  0.58760  Biso   1.000  H
  C37      1.0000 0.31250  0.14580  0.33470  Biso   1.000  C
  C38      1.0000 0.68750  0.85420  0.66530  Biso   1.000  C
  H25      1.0000 0.35660  0.16720  0.38090  Biso   1.000  H
  H26      1.0000 0.64340  0.83280  0.61910  Biso   1.000  H
  C39      1.0000 0.36500  0.17810  0.24890  Biso   1.000  C
  C40      1.0000 0.63500  0.82190  0.75110  Biso   1.000  C
  H27      1.0000 0.44560  0.22240  0.23590  Biso   1.000  H
  H28      1.0000 0.55440  0.77760  0.76410  Biso   1.000  H
  C41      1.0000 0.30160  0.14670  0.18130  Biso   1.000  C
  C42      1.0000 0.69840  0.85330  0.81870  Biso   1.000  C
  H29      1.0000 0.33890  0.16930  0.12230  Biso   1.000  H
  H30      1.0000 0.66110  0.83070  0.87770  Biso   1.000  H
  C43      1.0000 0.87470  0.20750  0.01340  Biso   1.000  C
  C44      1.0000 0.12530  0.79250  0.98660  Biso   1.000  C
  C45      1.0000 0.79800  0.32830  0.02420  Biso   1.000  C
  C46      1.0000 0.20200  0.67170  0.97580  Biso   1.000  C
  C47      1.0000 0.84550  0.44860  0.98360  Biso   1.000  C
  C48      1.0000 0.15450  0.55140  0.01640  Biso   1.000  C
  H31      1.0000 0.92640  0.45430  0.94810  Biso   1.000  H
  H32      1.0000 0.07360  0.54570  0.05190  Biso   1.000  H
  C49      1.0000 0.77650  0.56010  0.99400  Biso   1.000  C
  C50      1.0000 0.22350  0.43990  0.00600  Biso   1.000  C
  H33      1.0000 0.81070  0.64230  0.96680  Biso   1.000  H
  H34      1.0000 0.18930  0.35770  0.03320  Biso   1.000  H
  C51      1.0000 0.65760  0.55260  0.04400  Biso   1.000  C
  C52      1.0000 0.34240  0.44740  0.95600  Biso   1.000  C
  H35      1.0000 0.60930  0.62930  0.05020  Biso   1.000  H
  H36      1.0000 0.39070  0.37070  0.94980  Biso   1.000  H
  C53      1.0000 0.60970  0.43400  0.08450  Biso   1.000  C
  C54      1.0000 0.39030  0.56600  0.91550  Biso   1.000  C
  H37      1.0000 0.52830  0.42900  0.11940  Biso   1.000  H
  H38      1.0000 0.47170  0.57100  0.88060  Biso   1.000  H
  C55      1.0000 0.67930  0.32040  0.07510  Biso   1.000  C
  C56      1.0000 0.32070  0.67960  0.92490  Biso   1.000  C
  H39      1.0000 0.64560  0.23840  0.10340  Biso   1.000  H
  H40      1.0000 0.35440  0.76160  0.89660  Biso   1.000  H
  C57      1.0000 0.25130  0.35300  0.72720  Biso   1.000  C
  C58      1.0000 0.74870  0.64700  0.27280  Biso   1.000  C
  H41      1.0000 0.21270  0.42210  0.69370  Biso   1.000  H
  H42      1.0000 0.78730  0.57790  0.30630  Biso   1.000  H
  C59      1.0000 0.18170  0.28800  0.80050  Biso   1.000  C
  C60      1.0000 0.81830  0.71200  0.19950  Biso   1.000  C
  H43      1.0000 0.09500  0.31110  0.81560  Biso   1.000  H
  H44      1.0000 0.90500  0.68890  0.18440  Biso   1.000  H
  C61      1.0000 0.35610  0.16550  0.83080  Biso   1.000  C
  C62      1.0000 0.64390  0.83450  0.16920  Biso   1.000  C
  C63      1.0000 0.42570  0.22810  0.75300  Biso   1.000  C
  C64      1.0000 0.57430  0.77190  0.24700  Biso   1.000  C
  C65      1.0000 0.41910  0.06830  0.89100  Biso   1.000  C
  C66      1.0000 0.58090  0.93170  0.10900  Biso   1.000  C
  H45      1.0000 0.35980  0.04260  0.94440  Biso   1.000  H
  H46      1.0000 0.64020  0.95740  0.05560  Biso   1.000  H
  H47      1.0000 0.49680  0.10740  0.90610  Biso   1.000  H
  H48      1.0000 0.50320  0.89260  0.09390  Biso   1.000  H
  H49      1.0000 0.44180  0.99130  0.86180  Biso   1.000  H
  H50      1.0000 0.55820  0.00870  0.13820  Biso   1.000  H
  C67      1.0000 0.55960  0.18870  0.72430  Biso   1.000  C
  C68      1.0000 0.44040  0.81130  0.27570  Biso   1.000  C
  H51      1.0000 0.60010  0.25480  0.67810  Biso   1.000  H
  H52      1.0000 0.39990  0.74520  0.32190  Biso   1.000  H
  H53      1.0000 0.55770  0.10460  0.70170  Biso   1.000  H
  H54      1.0000 0.44230  0.89540  0.29830  Biso   1.000  H
  H55      1.0000 0.60870  0.18100  0.77420  Biso   1.000  H
  H56      1.0000 0.39130  0.81900  0.22580  Biso   1.000  H
  C69      1.0000 0.87930  0.26090  0.74110  Biso   1.000  C
  C70      1.0000 0.12070  0.73910  0.25890  Biso   1.000  C
  Cu1      1.0000 0.45723  0.42820  0.57390  Biso   1.000  Cu
  Cu2      1.0000 0.54277  0.57180  0.42610  Biso   1.000  Cu
  Cu3      1.0000 0.08775  0.06782  0.94450  Biso   1.000  Cu
  Cu4      1.0000 0.91225  0.93218  0.05550  Biso   1.000  Cu
  N1       1.0000 0.37270  0.32130  0.70160  Biso   1.000  N
  N2       1.0000 0.62730  0.67870  0.29840  Biso   1.000  N
  N3       1.0000 0.23310  0.19190  0.85190  Biso   1.000  N
  N4       1.0000 0.76690  0.80810  0.14810  Biso   1.000  N
  O1       1.0000 0.46700  0.71630  0.48416  Biso   1.000  O
  O2       1.0000 0.53300  0.28370  0.51584  Biso   1.000  O
  O3       1.0000 0.39230  0.59370  0.60990  Biso   1.000  O
  O4       1.0000 0.60770  0.40630  0.39010  Biso   1.000  O
  O5       1.0000 0.62340  0.47200  0.60570  Biso   1.000  O
  O6       1.0000 0.37660  0.52800  0.39430  Biso   1.000  O
  O7       1.0000 0.69890  0.59400  0.47970  Biso   1.000  O
  O8       1.0000 0.30110  0.40600  0.52030  Biso   1.000  O
  O9       1.0000 0.01360  0.97740  0.14608  Biso   1.000  O
  O10      1.0000 0.98640  0.02260  0.85392  Biso   1.000  O
  O11      1.0000 0.16240  0.09230  0.05078  Biso   1.000  O
  O12      1.0000 0.83760  0.90770  0.94922  Biso   1.000  O
  O13      1.0000 0.97750  0.21810  0.96220  Biso   1.000  O
  O14      1.0000 0.02250  0.78190  0.03780  Biso   1.000  O
  O15      1.0000 0.82930  0.10240  0.05720  Biso   1.000  O
  O16      1.0000 0.17070  0.89760  0.94280  Biso   1.000  O
  O17      1.0000 0.94150  0.25790  0.67600  Biso   1.000  O
  O18      1.0000 0.05850  0.74210  0.32400  Biso   1.000  O
  O19      1.0000 0.81440  0.26440  0.80460  Biso   1.000  O
  O20      1.0000 0.18560  0.73560  0.19540  Biso   1.000  O
