data_image0
_cell_length_a       7.3333
_cell_length_b       18.153
_cell_length_c       10.1729
_cell_angle_alpha    90
_cell_angle_beta     94.379
_cell_angle_gamma    90

_symmetry_space_group_name_H-M    "P 1"
_symmetry_int_tables_number       1

loop_
  _symmetry_equiv_pos_as_xyz
  'x, y, z'

loop_
  _atom_site_label
  _atom_site_occupancy
  _atom_site_fract_x
  _atom_site_fract_y
  _atom_site_fract_z
  _atom_site_thermal_displace_type
  _atom_site_B_iso_or_equiv
  _atom_site_type_symbol
  Cu1      1.0000 0.13443  0.09427  0.78290  Biso   1.000  Cu
  Cu2      1.0000 0.36557  0.59427  0.71710  Biso   1.000  Cu
  Cu3      1.0000 0.86557  0.90573  0.21710  Biso   1.000  Cu
  Cu4      1.0000 0.63443  0.40573  0.28290  Biso   1.000  Cu
  Cu5      1.0000 0.95599  0.06855  0.06806  Biso   1.000  Cu
  Cu6      1.0000 0.54401  0.56855  0.43194  Biso   1.000  Cu
  Cu7      1.0000 0.04401  0.93145  0.93194  Biso   1.000  Cu
  Cu8      1.0000 0.45599  0.43145  0.56806  Biso   1.000  Cu
  S1       1.0000 0.11983  0.43452  0.30896  Biso   1.000  S
  S2       1.0000 0.38017  0.93452  0.19104  Biso   1.000  S
  S3       1.0000 0.88017  0.56548  0.69104  Biso   1.000  S
  S4       1.0000 0.61983  0.06548  0.80896  Biso   1.000  S
  O1       1.0000 0.05270  0.16780  0.08590  Biso   1.000  O
  O2       1.0000 0.44730  0.66780  0.41410  Biso   1.000  O
  O3       1.0000 0.94730  0.83220  0.91410  Biso   1.000  O
  O4       1.0000 0.55270  0.33220  0.58590  Biso   1.000  O
  O5       1.0000 0.12960  0.03470  0.94290  Biso   1.000  O
  O6       1.0000 0.37040  0.53470  0.55710  Biso   1.000  O
  O7       1.0000 0.87040  0.96530  0.05710  Biso   1.000  O
  O8       1.0000 0.62960  0.46530  0.44290  Biso   1.000  O
  O9       1.0000 0.34050  0.51300  0.83650  Biso   1.000  O
  O10      1.0000 0.15950  0.01300  0.66350  Biso   1.000  O
  O11      1.0000 0.65950  0.48700  0.16350  Biso   1.000  O
  O12      1.0000 0.84050  0.98700  0.33650  Biso   1.000  O
  O13      1.0000 0.11840  0.18580  0.87460  Biso   1.000  O
  O14      1.0000 0.38160  0.68580  0.62540  Biso   1.000  O
  O15      1.0000 0.88160  0.81420  0.12540  Biso   1.000  O
  O16      1.0000 0.61840  0.31420  0.37460  Biso   1.000  O
  O17      1.0000 0.12820  0.51280  0.29740  Biso   1.000  O
  O18      1.0000 0.37180  0.01280  0.20260  Biso   1.000  O
  O19      1.0000 0.87180  0.48720  0.70260  Biso   1.000  O
  O20      1.0000 0.62820  0.98720  0.79740  Biso   1.000  O
  O21      1.0000 0.31310  0.40990  0.71380  Biso   1.000  O
  O22      1.0000 0.18690  0.90990  0.78620  Biso   1.000  O
  O23      1.0000 0.68690  0.59010  0.28620  Biso   1.000  O
  O24      1.0000 0.81310  0.09010  0.21380  Biso   1.000  O
  O25      1.0000 0.27400  0.40320  0.38700  Biso   1.000  O
  O26      1.0000 0.22600  0.90320  0.11300  Biso   1.000  O
  O27      1.0000 0.72600  0.59680  0.61300  Biso   1.000  O
  O28      1.0000 0.77400  0.09680  0.88700  Biso   1.000  O
  O29      1.0000 0.95020  0.40670  0.35500  Biso   1.000  O
  O30      1.0000 0.54980  0.90670  0.14500  Biso   1.000  O
  O31      1.0000 0.04980  0.59330  0.64500  Biso   1.000  O
  O32      1.0000 0.45020  0.09330  0.85500  Biso   1.000  O
  C1       1.0000 0.13720  0.39550  0.15030  Biso   1.000  C
  C2       1.0000 0.36280  0.89550  0.34970  Biso   1.000  C
  C3       1.0000 0.86280  0.60450  0.84970  Biso   1.000  C
  C4       1.0000 0.63720  0.10450  0.65030  Biso   1.000  C
  C5       1.0000 0.22840  0.40450  0.92990  Biso   1.000  C
  C6       1.0000 0.27160  0.90450  0.57010  Biso   1.000  C
  C7       1.0000 0.77160  0.59550  0.07010  Biso   1.000  C
  C8       1.0000 0.72840  0.09550  0.42990  Biso   1.000  C
  C9       1.0000 0.19570  0.33000  0.91410  Biso   1.000  C
  C10      1.0000 0.30430  0.83000  0.58590  Biso   1.000  C
  C11      1.0000 0.80430  0.67000  0.08590  Biso   1.000  C
  C12      1.0000 0.69570  0.17000  0.41410  Biso   1.000  C
  H1       1.0000 0.21750  0.30780  0.83440  Biso   1.000  H
  H2       1.0000 0.28250  0.80780  0.66560  Biso   1.000  H
  H3       1.0000 0.78250  0.69220  0.16560  Biso   1.000  H
  H4       1.0000 0.71750  0.19220  0.33440  Biso   1.000  H
  C13      1.0000 0.13070  0.28690  0.01480  Biso   1.000  C
  C14      1.0000 0.36930  0.78690  0.48520  Biso   1.000  C
  C15      1.0000 0.86930  0.71310  0.98520  Biso   1.000  C
  C16      1.0000 0.63070  0.21310  0.51480  Biso   1.000  C
  C17      1.0000 0.09770  0.20760  0.99070  Biso   1.000  C
  C18      1.0000 0.40230  0.70760  0.50930  Biso   1.000  C
  C19      1.0000 0.90230  0.79240  0.00930  Biso   1.000  C
  C20      1.0000 0.59770  0.29240  0.49070  Biso   1.000  C
  C21      1.0000 0.10310  0.32070  0.13470  Biso   1.000  C
  C22      1.0000 0.39690  0.82070  0.36530  Biso   1.000  C
  C23      1.0000 0.89690  0.67930  0.86530  Biso   1.000  C
  C24      1.0000 0.60310  0.17930  0.63470  Biso   1.000  C
  H5       1.0000 0.06210  0.29330  0.20380  Biso   1.000  H
  H6       1.0000 0.43790  0.79330  0.29620  Biso   1.000  H
  H7       1.0000 0.93790  0.70670  0.79620  Biso   1.000  H
  H8       1.0000 0.56210  0.20670  0.70380  Biso   1.000  H
  C25      1.0000 0.19930  0.43830  0.04970  Biso   1.000  C
  C26      1.0000 0.30070  0.93830  0.45030  Biso   1.000  C
  C27      1.0000 0.80070  0.56170  0.95030  Biso   1.000  C
  C28      1.0000 0.69930  0.06170  0.54970  Biso   1.000  C
  H9       1.0000 0.22110  0.48840  0.06190  Biso   1.000  H
  H10      1.0000 0.27890  0.98840  0.43810  Biso   1.000  H
  H11      1.0000 0.77890  0.51160  0.93810  Biso   1.000  H
  H12      1.0000 0.72110  0.01160  0.56190  Biso   1.000  H
  C29      1.0000 0.30030  0.44640  0.81700  Biso   1.000  C
  C30      1.0000 0.19970  0.94640  0.68300  Biso   1.000  C
  C31      1.0000 0.69970  0.55360  0.18300  Biso   1.000  C
  C32      1.0000 0.80030  0.05360  0.31700  Biso   1.000  C
  O33      1.0000 0.11770  0.15510  0.62230  Biso   1.000  O
  O34      1.0000 0.38230  0.65510  0.87770  Biso   1.000  O
  O35      1.0000 0.88230  0.84490  0.37770  Biso   1.000  O
  O36      1.0000 0.61770  0.34490  0.12230  Biso   1.000  O
  O37      1.0000 0.03870  0.30050  0.58610  Biso   1.000  O
  O38      1.0000 0.46130  0.80050  0.91390  Biso   1.000  O
  O39      1.0000 0.96130  0.69950  0.41390  Biso   1.000  O
  O40      1.0000 0.53870  0.19950  0.08610  Biso   1.000  O
  O41      1.0000 0.21420  0.13250  0.36390  Biso   1.000  O
  O42      1.0000 0.28580  0.63250  0.13610  Biso   1.000  O
  O43      1.0000 0.78580  0.86750  0.63610  Biso   1.000  O
  O44      1.0000 0.71420  0.36750  0.86390  Biso   1.000  O
