data_image0
_cell_length_a       7.3354
_cell_length_b       18.14
_cell_length_c       10.179
_cell_angle_alpha    90
_cell_angle_beta     94.337
_cell_angle_gamma    90

_symmetry_space_group_name_H-M    "P 1"
_symmetry_int_tables_number       1

loop_
  _symmetry_equiv_pos_as_xyz
  'x, y, z'

loop_
  _atom_site_label
  _atom_site_occupancy
  _atom_site_fract_x
  _atom_site_fract_y
  _atom_site_fract_z
  _atom_site_thermal_displace_type
  _atom_site_B_iso_or_equiv
  _atom_site_type_symbol
  Cu1      1.0000 0.13457  0.09449  0.78304  Biso   1.000  Cu
  Cu2      1.0000 0.36543  0.59449  0.71696  Biso   1.000  Cu
  Cu3      1.0000 0.86543  0.90551  0.21696  Biso   1.000  Cu
  Cu4      1.0000 0.63457  0.40551  0.28304  Biso   1.000  Cu
  Cu5      1.0000 0.95679  0.06850  0.06845  Biso   1.000  Cu
  Cu6      1.0000 0.54321  0.56850  0.43155  Biso   1.000  Cu
  Cu7      1.0000 0.04321  0.93150  0.93155  Biso   1.000  Cu
  Cu8      1.0000 0.45679  0.43150  0.56845  Biso   1.000  Cu
  S1       1.0000 0.12060  0.43463  0.30905  Biso   1.000  S
  S2       1.0000 0.37940  0.93463  0.19095  Biso   1.000  S
  S3       1.0000 0.87940  0.56537  0.69095  Biso   1.000  S
  S4       1.0000 0.62060  0.06537  0.80905  Biso   1.000  S
  O1       1.0000 0.05260  0.16804  0.08560  Biso   1.000  O
  O2       1.0000 0.44740  0.66804  0.41440  Biso   1.000  O
  O3       1.0000 0.94740  0.83196  0.91440  Biso   1.000  O
  O4       1.0000 0.55260  0.33196  0.58560  Biso   1.000  O
  O5       1.0000 0.12940  0.03479  0.94260  Biso   1.000  O
  O6       1.0000 0.37060  0.53479  0.55740  Biso   1.000  O
  O7       1.0000 0.87060  0.96521  0.05740  Biso   1.000  O
  O8       1.0000 0.62940  0.46521  0.44260  Biso   1.000  O
  O9       1.0000 0.34120  0.51353  0.83670  Biso   1.000  O
  O10      1.0000 0.15880  0.01353  0.66330  Biso   1.000  O
  O11      1.0000 0.65880  0.48647  0.16330  Biso   1.000  O
  O12      1.0000 0.84120  0.98647  0.33670  Biso   1.000  O
  O13      1.0000 0.11880  0.18607  0.87480  Biso   1.000  O
  O14      1.0000 0.38120  0.68607  0.62520  Biso   1.000  O
  O15      1.0000 0.88120  0.81393  0.12520  Biso   1.000  O
  O16      1.0000 0.61880  0.31393  0.37480  Biso   1.000  O
  O17      1.0000 0.12970  0.51280  0.29810  Biso   1.000  O
  O18      1.0000 0.37030  0.01280  0.20190  Biso   1.000  O
  O19      1.0000 0.87030  0.48720  0.70190  Biso   1.000  O
  O20      1.0000 0.62970  0.98720  0.79810  Biso   1.000  O
  O21      1.0000 0.31440  0.41040  0.71410  Biso   1.000  O
  O22      1.0000 0.18560  0.91040  0.78590  Biso   1.000  O
  O23      1.0000 0.68560  0.58960  0.28590  Biso   1.000  O
  O24      1.0000 0.81440  0.08960  0.21410  Biso   1.000  O
  O25      1.0000 0.27370  0.40270  0.38790  Biso   1.000  O
  O26      1.0000 0.22630  0.90270  0.11210  Biso   1.000  O
  O27      1.0000 0.72630  0.59730  0.61210  Biso   1.000  O
  O28      1.0000 0.77370  0.09730  0.88790  Biso   1.000  O
  O29      1.0000 0.95080  0.40730  0.35490  Biso   1.000  O
  O30      1.0000 0.54920  0.90730  0.14510  Biso   1.000  O
  O31      1.0000 0.04920  0.59270  0.64510  Biso   1.000  O
  O32      1.0000 0.45080  0.09270  0.85490  Biso   1.000  O
  C1       1.0000 0.13850  0.39590  0.15040  Biso   1.000  C
  C2       1.0000 0.36150  0.89590  0.34960  Biso   1.000  C
  C3       1.0000 0.86150  0.60410  0.84960  Biso   1.000  C
  C4       1.0000 0.63850  0.10410  0.65040  Biso   1.000  C
  C5       1.0000 0.22900  0.40500  0.93090  Biso   1.000  C
  C6       1.0000 0.27100  0.90500  0.56910  Biso   1.000  C
  C7       1.0000 0.77100  0.59500  0.06910  Biso   1.000  C
  C8       1.0000 0.72900  0.09500  0.43090  Biso   1.000  C
  C9       1.0000 0.19640  0.33000  0.91390  Biso   1.000  C
  C10      1.0000 0.30360  0.83000  0.58610  Biso   1.000  C
  C11      1.0000 0.80360  0.67000  0.08610  Biso   1.000  C
  C12      1.0000 0.69640  0.17000  0.41390  Biso   1.000  C
  H1       1.0000 0.21760  0.30770  0.83410  Biso   1.000  H
  H2       1.0000 0.28240  0.80770  0.66590  Biso   1.000  H
  H3       1.0000 0.78240  0.69230  0.16590  Biso   1.000  H
  H4       1.0000 0.71760  0.19230  0.33410  Biso   1.000  H
  C13      1.0000 0.13210  0.28760  0.01520  Biso   1.000  C
  C14      1.0000 0.36790  0.78760  0.48480  Biso   1.000  C
  C15      1.0000 0.86790  0.71240  0.98480  Biso   1.000  C
  C16      1.0000 0.63210  0.21240  0.51520  Biso   1.000  C
  C17      1.0000 0.09800  0.20710  0.99090  Biso   1.000  C
  C18      1.0000 0.40200  0.70710  0.50910  Biso   1.000  C
  C19      1.0000 0.90200  0.79290  0.00910  Biso   1.000  C
  C20      1.0000 0.59800  0.29290  0.49090  Biso   1.000  C
  C21      1.0000 0.10400  0.32080  0.13490  Biso   1.000  C
  C22      1.0000 0.39600  0.82080  0.36510  Biso   1.000  C
  C23      1.0000 0.89600  0.67920  0.86510  Biso   1.000  C
  C24      1.0000 0.60400  0.17920  0.63490  Biso   1.000  C
  H5       1.0000 0.06270  0.29320  0.20380  Biso   1.000  H
  H6       1.0000 0.43730  0.79320  0.29620  Biso   1.000  H
  H7       1.0000 0.93730  0.70680  0.79620  Biso   1.000  H
  H8       1.0000 0.56270  0.20680  0.70380  Biso   1.000  H
  C25      1.0000 0.19910  0.43870  0.04960  Biso   1.000  C
  C26      1.0000 0.30090  0.93870  0.45040  Biso   1.000  C
  C27      1.0000 0.80090  0.56130  0.95040  Biso   1.000  C
  C28      1.0000 0.69910  0.06130  0.54960  Biso   1.000  C
  H9       1.0000 0.21940  0.48890  0.06140  Biso   1.000  H
  H10      1.0000 0.28060  0.98890  0.43860  Biso   1.000  H
  H11      1.0000 0.78060  0.51110  0.93860  Biso   1.000  H
  H12      1.0000 0.71940  0.01110  0.56140  Biso   1.000  H
  C29      1.0000 0.30130  0.44660  0.81790  Biso   1.000  C
  C30      1.0000 0.19870  0.94660  0.68210  Biso   1.000  C
  C31      1.0000 0.69870  0.55340  0.18210  Biso   1.000  C
  C32      1.0000 0.80130  0.05340  0.31790  Biso   1.000  C
  O33      1.0000 0.11810  0.15560  0.62260  Biso   1.000  O
  O34      1.0000 0.38190  0.65560  0.87740  Biso   1.000  O
  O35      1.0000 0.88190  0.84440  0.37740  Biso   1.000  O
  O36      1.0000 0.61810  0.34440  0.12260  Biso   1.000  O
  O37      1.0000 0.03920  0.30100  0.58700  Biso   1.000  O
  O38      1.0000 0.46080  0.80100  0.91300  Biso   1.000  O
  O39      1.0000 0.96080  0.69900  0.41300  Biso   1.000  O
  O40      1.0000 0.53920  0.19900  0.08700  Biso   1.000  O
  O41      1.0000 0.21470  0.13370  0.36390  Biso   1.000  O
  O42      1.0000 0.28530  0.63370  0.13610  Biso   1.000  O
  O43      1.0000 0.78530  0.86630  0.63610  Biso   1.000  O
  O44      1.0000 0.71470  0.36630  0.86390  Biso   1.000  O
