data_image0
_cell_length_a       7.306
_cell_length_b       18.111
_cell_length_c       10.205
_cell_angle_alpha    90
_cell_angle_beta     94.248
_cell_angle_gamma    90

_symmetry_space_group_name_H-M    "P 1"
_symmetry_int_tables_number       1

loop_
  _symmetry_equiv_pos_as_xyz
  'x, y, z'

loop_
  _atom_site_label
  _atom_site_occupancy
  _atom_site_fract_x
  _atom_site_fract_y
  _atom_site_fract_z
  _atom_site_thermal_displace_type
  _atom_site_B_iso_or_equiv
  _atom_site_type_symbol
  Cu1      1.0000 0.13545  0.09472  0.78410  Biso   1.000  Cu
  Cu2      1.0000 0.36455  0.59472  0.71590  Biso   1.000  Cu
  Cu3      1.0000 0.86455  0.90528  0.21590  Biso   1.000  Cu
  Cu4      1.0000 0.63545  0.40528  0.28410  Biso   1.000  Cu
  Cu5      1.0000 0.96049  0.06842  0.07021  Biso   1.000  Cu
  Cu6      1.0000 0.53951  0.56842  0.42979  Biso   1.000  Cu
  Cu7      1.0000 0.03951  0.93158  0.92979  Biso   1.000  Cu
  Cu8      1.0000 0.46049  0.43158  0.57021  Biso   1.000  Cu
  S1       1.0000 0.12379  0.43494  0.30957  Biso   1.000  S
  S2       1.0000 0.37621  0.93494  0.19043  Biso   1.000  S
  S3       1.0000 0.87621  0.56506  0.69043  Biso   1.000  S
  S4       1.0000 0.62379  0.06506  0.80957  Biso   1.000  S
  O1       1.0000 0.05600  0.16789  0.08560  Biso   1.000  O
  O2       1.0000 0.44400  0.66789  0.41440  Biso   1.000  O
  O3       1.0000 0.94400  0.83211  0.91440  Biso   1.000  O
  O4       1.0000 0.55600  0.33211  0.58560  Biso   1.000  O
  O5       1.0000 0.13060  0.03442  0.94170  Biso   1.000  O
  O6       1.0000 0.36940  0.53442  0.55830  Biso   1.000  O
  O7       1.0000 0.86940  0.96558  0.05830  Biso   1.000  O
  O8       1.0000 0.63060  0.46558  0.44170  Biso   1.000  O
  O9       1.0000 0.34400  0.51400  0.83820  Biso   1.000  O
  O10      1.0000 0.15600  0.01400  0.66180  Biso   1.000  O
  O11      1.0000 0.65600  0.48600  0.16180  Biso   1.000  O
  O12      1.0000 0.84400  0.98600  0.33820  Biso   1.000  O
  O13      1.0000 0.12270  0.18641  0.87560  Biso   1.000  O
  O14      1.0000 0.37730  0.68641  0.62440  Biso   1.000  O
  O15      1.0000 0.87730  0.81359  0.12440  Biso   1.000  O
  O16      1.0000 0.62270  0.31359  0.37560  Biso   1.000  O
  O17      1.0000 0.14170  0.51310  0.29960  Biso   1.000  O
  O18      1.0000 0.35830  0.01310  0.20040  Biso   1.000  O
  O19      1.0000 0.85830  0.48690  0.70040  Biso   1.000  O
  O20      1.0000 0.64170  0.98690  0.79960  Biso   1.000  O
  O21      1.0000 0.32120  0.41080  0.71710  Biso   1.000  O
  O22      1.0000 0.17880  0.91080  0.78290  Biso   1.000  O
  O23      1.0000 0.67880  0.58920  0.28290  Biso   1.000  O
  O24      1.0000 0.82120  0.08920  0.21710  Biso   1.000  O
  O25      1.0000 0.27430  0.40160  0.38890  Biso   1.000  O
  O26      1.0000 0.22570  0.90160  0.11110  Biso   1.000  O
  O27      1.0000 0.72570  0.59840  0.61110  Biso   1.000  O
  O28      1.0000 0.77430  0.09840  0.88890  Biso   1.000  O
  O29      1.0000 0.95110  0.40870  0.35270  Biso   1.000  O
  O30      1.0000 0.54890  0.90870  0.14730  Biso   1.000  O
  O31      1.0000 0.04890  0.59130  0.64730  Biso   1.000  O
  O32      1.0000 0.45110  0.09130  0.85270  Biso   1.000  O
  C1       1.0000 0.14140  0.39580  0.15160  Biso   1.000  C
  C2       1.0000 0.35860  0.89580  0.34840  Biso   1.000  C
  C3       1.0000 0.85860  0.60420  0.84840  Biso   1.000  C
  C4       1.0000 0.64140  0.10420  0.65160  Biso   1.000  C
  C5       1.0000 0.23390  0.40500  0.93100  Biso   1.000  C
  C6       1.0000 0.26610  0.90500  0.56900  Biso   1.000  C
  C7       1.0000 0.76610  0.59500  0.06900  Biso   1.000  C
  C8       1.0000 0.73390  0.09500  0.43100  Biso   1.000  C
  C9       1.0000 0.20040  0.33030  0.91530  Biso   1.000  C
  C10      1.0000 0.29960  0.83030  0.58470  Biso   1.000  C
  C11      1.0000 0.79960  0.66970  0.08470  Biso   1.000  C
  C12      1.0000 0.70040  0.16970  0.41530  Biso   1.000  C
  H1       1.0000 0.22110  0.30790  0.83570  Biso   1.000  H
  H2       1.0000 0.27890  0.80790  0.66430  Biso   1.000  H
  H3       1.0000 0.77890  0.69210  0.16430  Biso   1.000  H
  H4       1.0000 0.72110  0.19210  0.33570  Biso   1.000  H
  C13      1.0000 0.13650  0.28810  0.01570  Biso   1.000  C
  C14      1.0000 0.36350  0.78810  0.48430  Biso   1.000  C
  C15      1.0000 0.86350  0.71190  0.98430  Biso   1.000  C
  C16      1.0000 0.63650  0.21190  0.51570  Biso   1.000  C
  C17      1.0000 0.10150  0.20760  0.99120  Biso   1.000  C
  C18      1.0000 0.39850  0.70760  0.50880  Biso   1.000  C
  C19      1.0000 0.89850  0.79240  0.00880  Biso   1.000  C
  C20      1.0000 0.60150  0.29240  0.49120  Biso   1.000  C
  C21      1.0000 0.10680  0.32090  0.13460  Biso   1.000  C
  C22      1.0000 0.39320  0.82090  0.36540  Biso   1.000  C
  C23      1.0000 0.89320  0.67910  0.86540  Biso   1.000  C
  C24      1.0000 0.60680  0.17910  0.63460  Biso   1.000  C
  H5       1.0000 0.06410  0.29300  0.20250  Biso   1.000  H
  H6       1.0000 0.43590  0.79300  0.29750  Biso   1.000  H
  H7       1.0000 0.93590  0.70700  0.79750  Biso   1.000  H
  H8       1.0000 0.56410  0.20700  0.70250  Biso   1.000  H
  C25      1.0000 0.20480  0.43900  0.05100  Biso   1.000  C
  C26      1.0000 0.29520  0.93900  0.44900  Biso   1.000  C
  C27      1.0000 0.79520  0.56100  0.94900  Biso   1.000  C
  C28      1.0000 0.70480  0.06100  0.55100  Biso   1.000  C
  H9       1.0000 0.22710  0.48910  0.06340  Biso   1.000  H
  H10      1.0000 0.27290  0.98910  0.43660  Biso   1.000  H
  H11      1.0000 0.77290  0.51090  0.93660  Biso   1.000  H
  H12      1.0000 0.72710  0.01090  0.56340  Biso   1.000  H
  C29      1.0000 0.30580  0.44710  0.82000  Biso   1.000  C
  C30      1.0000 0.19420  0.94710  0.68000  Biso   1.000  C
  C31      1.0000 0.69420  0.55290  0.18000  Biso   1.000  C
  C32      1.0000 0.80580  0.05290  0.32000  Biso   1.000  C
  O33      1.0000 0.12040  0.15640  0.62390  Biso   1.000  O
  O34      1.0000 0.37960  0.65640  0.87610  Biso   1.000  O
  O35      1.0000 0.87960  0.84360  0.37610  Biso   1.000  O
  O36      1.0000 0.62040  0.34360  0.12390  Biso   1.000  O
  O37      1.0000 0.04120  0.30080  0.58590  Biso   1.000  O
  O38      1.0000 0.45880  0.80080  0.91410  Biso   1.000  O
  O39      1.0000 0.95880  0.69920  0.41410  Biso   1.000  O
  O40      1.0000 0.54120  0.19920  0.08590  Biso   1.000  O
  O41      1.0000 0.21590  0.13560  0.36900  Biso   1.000  O
  O42      1.0000 0.28410  0.63560  0.13100  Biso   1.000  O
  O43      1.0000 0.78410  0.86440  0.63100  Biso   1.000  O
  O44      1.0000 0.71590  0.36440  0.86900  Biso   1.000  O
