data_image0
_cell_length_a       7.315
_cell_length_b       18.168
_cell_length_c       10.219
_cell_angle_alpha    90
_cell_angle_beta     94.163
_cell_angle_gamma    90

_symmetry_space_group_name_H-M    "P 1"
_symmetry_int_tables_number       1

loop_
  _symmetry_equiv_pos_as_xyz
  'x, y, z'

loop_
  _atom_site_label
  _atom_site_occupancy
  _atom_site_fract_x
  _atom_site_fract_y
  _atom_site_fract_z
  _atom_site_thermal_displace_type
  _atom_site_B_iso_or_equiv
  _atom_site_type_symbol
  Cu1      1.0000 0.13548  0.09467  0.78444  Biso   1.000  Cu
  Cu2      1.0000 0.36452  0.59467  0.71556  Biso   1.000  Cu
  Cu3      1.0000 0.86452  0.90533  0.21556  Biso   1.000  Cu
  Cu4      1.0000 0.63548  0.40533  0.28444  Biso   1.000  Cu
  Cu5      1.0000 0.96147  0.06843  0.07042  Biso   1.000  Cu
  Cu6      1.0000 0.53853  0.56843  0.42958  Biso   1.000  Cu
  Cu7      1.0000 0.03853  0.93157  0.92958  Biso   1.000  Cu
  Cu8      1.0000 0.46147  0.43157  0.57042  Biso   1.000  Cu
  S1       1.0000 0.12420  0.43513  0.30937  Biso   1.000  S
  S2       1.0000 0.37580  0.93513  0.19063  Biso   1.000  S
  S3       1.0000 0.87580  0.56487  0.69063  Biso   1.000  S
  S4       1.0000 0.62420  0.06487  0.80937  Biso   1.000  S
  O1       1.0000 0.05770  0.16760  0.08520  Biso   1.000  O
  O2       1.0000 0.44230  0.66760  0.41480  Biso   1.000  O
  O3       1.0000 0.94230  0.83240  0.91480  Biso   1.000  O
  O4       1.0000 0.55770  0.33240  0.58520  Biso   1.000  O
  O5       1.0000 0.13190  0.03450  0.94190  Biso   1.000  O
  O6       1.0000 0.36810  0.53450  0.55810  Biso   1.000  O
  O7       1.0000 0.86810  0.96550  0.05810  Biso   1.000  O
  O8       1.0000 0.63190  0.46550  0.44190  Biso   1.000  O
  O9       1.0000 0.34250  0.51410  0.83740  Biso   1.000  O
  O10      1.0000 0.15750  0.01410  0.66260  Biso   1.000  O
  O11      1.0000 0.65750  0.48590  0.16260  Biso   1.000  O
  O12      1.0000 0.84250  0.98590  0.33740  Biso   1.000  O
  O13      1.0000 0.12330  0.18630  0.87590  Biso   1.000  O
  O14      1.0000 0.37670  0.68630  0.62410  Biso   1.000  O
  O15      1.0000 0.87670  0.81370  0.12410  Biso   1.000  O
  O16      1.0000 0.62330  0.31370  0.37590  Biso   1.000  O
  O17      1.0000 0.14310  0.51320  0.30030  Biso   1.000  O
  O18      1.0000 0.35690  0.01320  0.19970  Biso   1.000  O
  O19      1.0000 0.85690  0.48680  0.69970  Biso   1.000  O
  O20      1.0000 0.64310  0.98680  0.80030  Biso   1.000  O
  O21      1.0000 0.32500  0.41060  0.71830  Biso   1.000  O
  O22      1.0000 0.17500  0.91060  0.78170  Biso   1.000  O
  O23      1.0000 0.67500  0.58940  0.28170  Biso   1.000  O
  O24      1.0000 0.82500  0.08940  0.21830  Biso   1.000  O
  O25      1.0000 0.27420  0.40090  0.38900  Biso   1.000  O
  O26      1.0000 0.22580  0.90090  0.11100  Biso   1.000  O
  O27      1.0000 0.72580  0.59910  0.61100  Biso   1.000  O
  O28      1.0000 0.77420  0.09910  0.88900  Biso   1.000  O
  O29      1.0000 0.94870  0.40920  0.35360  Biso   1.000  O
  O30      1.0000 0.55130  0.90920  0.14640  Biso   1.000  O
  O31      1.0000 0.05130  0.59080  0.64640  Biso   1.000  O
  O32      1.0000 0.44870  0.09080  0.85360  Biso   1.000  O
  C1       1.0000 0.14340  0.39570  0.15030  Biso   1.000  C
  C2       1.0000 0.35660  0.89570  0.34970  Biso   1.000  C
  C3       1.0000 0.85660  0.60430  0.84970  Biso   1.000  C
  C4       1.0000 0.64340  0.10430  0.65030  Biso   1.000  C
  C5       1.0000 0.23320  0.40480  0.93240  Biso   1.000  C
  C6       1.0000 0.26680  0.90480  0.56760  Biso   1.000  C
  C7       1.0000 0.76680  0.59520  0.06760  Biso   1.000  C
  C8       1.0000 0.73320  0.09520  0.43240  Biso   1.000  C
  C9       1.0000 0.19900  0.33030  0.91530  Biso   1.000  C
  C10      1.0000 0.30100  0.83030  0.58470  Biso   1.000  C
  C11      1.0000 0.80100  0.66970  0.08470  Biso   1.000  C
  C12      1.0000 0.69900  0.16970  0.41530  Biso   1.000  C
  H1       1.0000 0.21810  0.30850  0.83500  Biso   1.000  H
  H2       1.0000 0.28190  0.80850  0.66500  Biso   1.000  H
  H3       1.0000 0.78190  0.69150  0.16500  Biso   1.000  H
  H4       1.0000 0.71810  0.19150  0.33500  Biso   1.000  H
  C13      1.0000 0.13700  0.28760  0.01550  Biso   1.000  C
  C14      1.0000 0.36300  0.78760  0.48450  Biso   1.000  C
  C15      1.0000 0.86300  0.71240  0.98450  Biso   1.000  C
  C16      1.0000 0.63700  0.21240  0.51550  Biso   1.000  C
  C17      1.0000 0.10120  0.20750  0.99190  Biso   1.000  C
  C18      1.0000 0.39880  0.70750  0.50810  Biso   1.000  C
  C19      1.0000 0.89880  0.79250  0.00810  Biso   1.000  C
  C20      1.0000 0.60120  0.29250  0.49190  Biso   1.000  C
  C21      1.0000 0.10840  0.32090  0.13400  Biso   1.000  C
  C22      1.0000 0.39160  0.82090  0.36600  Biso   1.000  C
  C23      1.0000 0.89160  0.67910  0.86600  Biso   1.000  C
  C24      1.0000 0.60840  0.17910  0.63400  Biso   1.000  C
  H5       1.0000 0.06600  0.29340  0.20240  Biso   1.000  H
  H6       1.0000 0.43400  0.79340  0.29760  Biso   1.000  H
  H7       1.0000 0.93400  0.70660  0.79760  Biso   1.000  H
  H8       1.0000 0.56600  0.20660  0.70240  Biso   1.000  H
  C25      1.0000 0.20580  0.43920  0.05050  Biso   1.000  C
  C26      1.0000 0.29420  0.93920  0.44950  Biso   1.000  C
  C27      1.0000 0.79420  0.56080  0.94950  Biso   1.000  C
  C28      1.0000 0.70580  0.06080  0.55050  Biso   1.000  C
  H9       1.0000 0.22810  0.48920  0.06270  Biso   1.000  H
  H10      1.0000 0.27190  0.98920  0.43730  Biso   1.000  H
  H11      1.0000 0.77190  0.51080  0.93730  Biso   1.000  H
  H12      1.0000 0.72810  0.01080  0.56270  Biso   1.000  H
  C29      1.0000 0.30730  0.44750  0.82160  Biso   1.000  C
  C30      1.0000 0.19270  0.94750  0.67840  Biso   1.000  C
  C31      1.0000 0.69270  0.55250  0.17840  Biso   1.000  C
  C32      1.0000 0.80730  0.05250  0.32160  Biso   1.000  C
  O33      1.0000 0.11930  0.15600  0.62380  Biso   1.000  O
  O34      1.0000 0.38070  0.65600  0.87620  Biso   1.000  O
  O35      1.0000 0.88070  0.84400  0.37620  Biso   1.000  O
  O36      1.0000 0.61930  0.34400  0.12380  Biso   1.000  O
  O37      1.0000 0.03880  0.30100  0.58550  Biso   1.000  O
  O38      1.0000 0.46120  0.80100  0.91450  Biso   1.000  O
  O39      1.0000 0.96120  0.69900  0.41450  Biso   1.000  O
  O40      1.0000 0.53880  0.19900  0.08550  Biso   1.000  O
  O41      1.0000 0.21000  0.13580  0.36800  Biso   1.000  O
  O42      1.0000 0.29000  0.63580  0.13200  Biso   1.000  O
  O43      1.0000 0.79000  0.86420  0.63200  Biso   1.000  O
  O44      1.0000 0.71000  0.36420  0.86800  Biso   1.000  O
