data_image0
_cell_length_a       7.3354
_cell_length_b       18.14
_cell_length_c       10.179
_cell_angle_alpha    90
_cell_angle_beta     94.337
_cell_angle_gamma    90

_symmetry_space_group_name_H-M    "P 1"
_symmetry_int_tables_number       1

loop_
  _symmetry_equiv_pos_as_xyz
  'x, y, z'

loop_
  _atom_site_label
  _atom_site_occupancy
  _atom_site_fract_x
  _atom_site_fract_y
  _atom_site_fract_z
  _atom_site_thermal_displace_type
  _atom_site_B_iso_or_equiv
  _atom_site_type_symbol
  Cu1      1.0000 0.13459  0.09449  0.78304  Biso   1.000  Cu
  Cu2      1.0000 0.36541  0.59449  0.71696  Biso   1.000  Cu
  Cu3      1.0000 0.86541  0.90551  0.21696  Biso   1.000  Cu
  Cu4      1.0000 0.63459  0.40551  0.28304  Biso   1.000  Cu
  Cu5      1.0000 0.95682  0.06850  0.06846  Biso   1.000  Cu
  Cu6      1.0000 0.54318  0.56850  0.43154  Biso   1.000  Cu
  Cu7      1.0000 0.04318  0.93150  0.93154  Biso   1.000  Cu
  Cu8      1.0000 0.45682  0.43150  0.56846  Biso   1.000  Cu
  S1       1.0000 0.12060  0.43462  0.30904  Biso   1.000  S
  S2       1.0000 0.37940  0.93462  0.19096  Biso   1.000  S
  S3       1.0000 0.87940  0.56538  0.69096  Biso   1.000  S
  S4       1.0000 0.62060  0.06538  0.80904  Biso   1.000  S
  O1       1.0000 0.05240  0.16803  0.08560  Biso   1.000  O
  O2       1.0000 0.44760  0.66803  0.41440  Biso   1.000  O
  O3       1.0000 0.94760  0.83197  0.91440  Biso   1.000  O
  O4       1.0000 0.55240  0.33197  0.58560  Biso   1.000  O
  O5       1.0000 0.12940  0.03480  0.94270  Biso   1.000  O
  O6       1.0000 0.37060  0.53480  0.55730  Biso   1.000  O
  O7       1.0000 0.87060  0.96520  0.05730  Biso   1.000  O
  O8       1.0000 0.62940  0.46520  0.44270  Biso   1.000  O
  O9       1.0000 0.34100  0.51352  0.83660  Biso   1.000  O
  O10      1.0000 0.15900  0.01352  0.66340  Biso   1.000  O
  O11      1.0000 0.65900  0.48648  0.16340  Biso   1.000  O
  O12      1.0000 0.84100  0.98648  0.33660  Biso   1.000  O
  O13      1.0000 0.11880  0.18608  0.87470  Biso   1.000  O
  O14      1.0000 0.38120  0.68608  0.62530  Biso   1.000  O
  O15      1.0000 0.88120  0.81392  0.12530  Biso   1.000  O
  O16      1.0000 0.61880  0.31392  0.37470  Biso   1.000  O
  O17      1.0000 0.12970  0.51280  0.29800  Biso   1.000  O
  O18      1.0000 0.37030  0.01280  0.20200  Biso   1.000  O
  O19      1.0000 0.87030  0.48720  0.70200  Biso   1.000  O
  O20      1.0000 0.62970  0.98720  0.79800  Biso   1.000  O
  O21      1.0000 0.31450  0.41026  0.71410  Biso   1.000  O
  O22      1.0000 0.18550  0.91026  0.78590  Biso   1.000  O
  O23      1.0000 0.68550  0.58974  0.28590  Biso   1.000  O
  O24      1.0000 0.81450  0.08974  0.21410  Biso   1.000  O
  O25      1.0000 0.27390  0.40280  0.38770  Biso   1.000  O
  O26      1.0000 0.22610  0.90280  0.11230  Biso   1.000  O
  O27      1.0000 0.72610  0.59720  0.61230  Biso   1.000  O
  O28      1.0000 0.77390  0.09720  0.88770  Biso   1.000  O
  O29      1.0000 0.95090  0.40740  0.35500  Biso   1.000  O
  O30      1.0000 0.54910  0.90740  0.14500  Biso   1.000  O
  O31      1.0000 0.04910  0.59260  0.64500  Biso   1.000  O
  O32      1.0000 0.45090  0.09260  0.85500  Biso   1.000  O
  C1       1.0000 0.13860  0.39590  0.15040  Biso   1.000  C
  C2       1.0000 0.36140  0.89590  0.34960  Biso   1.000  C
  C3       1.0000 0.86140  0.60410  0.84960  Biso   1.000  C
  C4       1.0000 0.63860  0.10410  0.65040  Biso   1.000  C
  C5       1.0000 0.22910  0.40500  0.93070  Biso   1.000  C
  C6       1.0000 0.27090  0.90500  0.56930  Biso   1.000  C
  C7       1.0000 0.77090  0.59500  0.06930  Biso   1.000  C
  C8       1.0000 0.72910  0.09500  0.43070  Biso   1.000  C
  C9       1.0000 0.19660  0.32990  0.91390  Biso   1.000  C
  C10      1.0000 0.30340  0.82990  0.58610  Biso   1.000  C
  C11      1.0000 0.80340  0.67010  0.08610  Biso   1.000  C
  C12      1.0000 0.69660  0.17010  0.41390  Biso   1.000  C
  H1       1.0000 0.21830  0.30770  0.83430  Biso   1.000  H
  H2       1.0000 0.28170  0.80770  0.66570  Biso   1.000  H
  H3       1.0000 0.78170  0.69230  0.16570  Biso   1.000  H
  H4       1.0000 0.71830  0.19230  0.33430  Biso   1.000  H
  C13      1.0000 0.13200  0.28760  0.01510  Biso   1.000  C
  C14      1.0000 0.36800  0.78760  0.48490  Biso   1.000  C
  C15      1.0000 0.86800  0.71240  0.98490  Biso   1.000  C
  C16      1.0000 0.63200  0.21240  0.51510  Biso   1.000  C
  C17      1.0000 0.09790  0.20720  0.99090  Biso   1.000  C
  C18      1.0000 0.40210  0.70720  0.50910  Biso   1.000  C
  C19      1.0000 0.90210  0.79280  0.00910  Biso   1.000  C
  C20      1.0000 0.59790  0.29280  0.49090  Biso   1.000  C
  C21      1.0000 0.10430  0.32080  0.13500  Biso   1.000  C
  C22      1.0000 0.39570  0.82080  0.36500  Biso   1.000  C
  C23      1.0000 0.89570  0.67920  0.86500  Biso   1.000  C
  C24      1.0000 0.60430  0.17920  0.63500  Biso   1.000  C
  H5       1.0000 0.06340  0.29330  0.20400  Biso   1.000  H
  H6       1.0000 0.43660  0.79330  0.29600  Biso   1.000  H
  H7       1.0000 0.93660  0.70670  0.79600  Biso   1.000  H
  H8       1.0000 0.56340  0.20670  0.70400  Biso   1.000  H
  C25      1.0000 0.19910  0.43860  0.04970  Biso   1.000  C
  C26      1.0000 0.30090  0.93860  0.45030  Biso   1.000  C
  C27      1.0000 0.80090  0.56140  0.95030  Biso   1.000  C
  C28      1.0000 0.69910  0.06140  0.54970  Biso   1.000  C
  H9       1.0000 0.21930  0.48890  0.06160  Biso   1.000  H
  H10      1.0000 0.28070  0.98890  0.43840  Biso   1.000  H
  H11      1.0000 0.78070  0.51110  0.93840  Biso   1.000  H
  H12      1.0000 0.71930  0.01110  0.56160  Biso   1.000  H
  C29      1.0000 0.30100  0.44650  0.81790  Biso   1.000  C
  C30      1.0000 0.19900  0.94650  0.68210  Biso   1.000  C
  C31      1.0000 0.69900  0.55350  0.18210  Biso   1.000  C
  C32      1.0000 0.80100  0.05350  0.31790  Biso   1.000  C
  O33      1.0000 0.11790  0.15560  0.62260  Biso   1.000  O
  O34      1.0000 0.38210  0.65560  0.87740  Biso   1.000  O
  O35      1.0000 0.88210  0.84440  0.37740  Biso   1.000  O
  O36      1.0000 0.61790  0.34440  0.12260  Biso   1.000  O
  O37      1.0000 0.03880  0.30090  0.58670  Biso   1.000  O
  O38      1.0000 0.46120  0.80090  0.91330  Biso   1.000  O
  O39      1.0000 0.96120  0.69910  0.41330  Biso   1.000  O
  O40      1.0000 0.53880  0.19910  0.08670  Biso   1.000  O
  O41      1.0000 0.21530  0.13360  0.36430  Biso   1.000  O
  O42      1.0000 0.28470  0.63360  0.13570  Biso   1.000  O
  O43      1.0000 0.78470  0.86640  0.63570  Biso   1.000  O
  O44      1.0000 0.71530  0.36640  0.86430  Biso   1.000  O
