data_image0
_cell_length_a       7.302
_cell_length_b       18.15
_cell_length_c       10.267
_cell_angle_alpha    90
_cell_angle_beta     94.01
_cell_angle_gamma    90

_symmetry_space_group_name_H-M    "P 1"
_symmetry_int_tables_number       1

loop_
  _symmetry_equiv_pos_as_xyz
  'x, y, z'

loop_
  _atom_site_label
  _atom_site_occupancy
  _atom_site_fract_x
  _atom_site_fract_y
  _atom_site_fract_z
  _atom_site_thermal_displace_type
  _atom_site_B_iso_or_equiv
  _atom_site_type_symbol
  Cu1      1.0000 0.13590  0.09474  0.78500  Biso   1.000  Cu
  Cu2      1.0000 0.36410  0.59474  0.71500  Biso   1.000  Cu
  Cu3      1.0000 0.86410  0.90526  0.21500  Biso   1.000  Cu
  Cu4      1.0000 0.63590  0.40526  0.28500  Biso   1.000  Cu
  Cu5      1.0000 0.96250  0.06834  0.07080  Biso   1.000  Cu
  Cu6      1.0000 0.53750  0.56834  0.42920  Biso   1.000  Cu
  Cu7      1.0000 0.03750  0.93166  0.92920  Biso   1.000  Cu
  Cu8      1.0000 0.46250  0.43166  0.57080  Biso   1.000  Cu
  S1       1.0000 0.12670  0.43500  0.30930  Biso   1.000  S
  S2       1.0000 0.37330  0.93500  0.19070  Biso   1.000  S
  S3       1.0000 0.87330  0.56500  0.69070  Biso   1.000  S
  S4       1.0000 0.62670  0.06500  0.80930  Biso   1.000  S
  O1       1.0000 0.05900  0.16820  0.08440  Biso   1.000  O
  O2       1.0000 0.44100  0.66820  0.41560  Biso   1.000  O
  O3       1.0000 0.94100  0.83180  0.91560  Biso   1.000  O
  O4       1.0000 0.55900  0.33180  0.58440  Biso   1.000  O
  O5       1.0000 0.12970  0.03430  0.94460  Biso   1.000  O
  O6       1.0000 0.37030  0.53430  0.55540  Biso   1.000  O
  O7       1.0000 0.87030  0.96570  0.05540  Biso   1.000  O
  O8       1.0000 0.62970  0.46570  0.44460  Biso   1.000  O
  O9       1.0000 0.34480  0.51450  0.83980  Biso   1.000  O
  O10      1.0000 0.15520  0.01450  0.66020  Biso   1.000  O
  O11      1.0000 0.65520  0.48550  0.16020  Biso   1.000  O
  O12      1.0000 0.84480  0.98550  0.33980  Biso   1.000  O
  O13      1.0000 0.12160  0.18660  0.87420  Biso   1.000  O
  O14      1.0000 0.37840  0.68660  0.62580  Biso   1.000  O
  O15      1.0000 0.87840  0.81340  0.12580  Biso   1.000  O
  O16      1.0000 0.62160  0.31340  0.37420  Biso   1.000  O
  O17      1.0000 0.14800  0.51280  0.29880  Biso   1.000  O
  O18      1.0000 0.35200  0.01280  0.20120  Biso   1.000  O
  O19      1.0000 0.85200  0.48720  0.70120  Biso   1.000  O
  O20      1.0000 0.64800  0.98720  0.79880  Biso   1.000  O
  O21      1.0000 0.32700  0.41040  0.72250  Biso   1.000  O
  O22      1.0000 0.17300  0.91040  0.77750  Biso   1.000  O
  O23      1.0000 0.67300  0.58960  0.27750  Biso   1.000  O
  O24      1.0000 0.82700  0.08960  0.22250  Biso   1.000  O
  O25      1.0000 0.27430  0.40100  0.39060  Biso   1.000  O
  O26      1.0000 0.22570  0.90100  0.10940  Biso   1.000  O
  O27      1.0000 0.72570  0.59900  0.60940  Biso   1.000  O
  O28      1.0000 0.77430  0.09900  0.89060  Biso   1.000  O
  O29      1.0000 0.95330  0.41000  0.35600  Biso   1.000  O
  O30      1.0000 0.54670  0.91000  0.14400  Biso   1.000  O
  O31      1.0000 0.04670  0.59000  0.64400  Biso   1.000  O
  O32      1.0000 0.45330  0.09000  0.85600  Biso   1.000  O
  C1       1.0000 0.14500  0.39640  0.14860  Biso   1.000  C
  C2       1.0000 0.35500  0.89640  0.35140  Biso   1.000  C
  C3       1.0000 0.85500  0.60360  0.85140  Biso   1.000  C
  C4       1.0000 0.64500  0.10360  0.64860  Biso   1.000  C
  C5       1.0000 0.23500  0.40550  0.93300  Biso   1.000  C
  C6       1.0000 0.26500  0.90550  0.56700  Biso   1.000  C
  C7       1.0000 0.76500  0.59450  0.06700  Biso   1.000  C
  C8       1.0000 0.73500  0.09450  0.43300  Biso   1.000  C
  C9       1.0000 0.20100  0.33100  0.91200  Biso   1.000  C
  C10      1.0000 0.29900  0.83100  0.58800  Biso   1.000  C
  C11      1.0000 0.79900  0.66900  0.08800  Biso   1.000  C
  C12      1.0000 0.70100  0.16900  0.41200  Biso   1.000  C
  H1       1.0000 0.21920  0.30960  0.83200  Biso   1.000  H
  H2       1.0000 0.28080  0.80960  0.66800  Biso   1.000  H
  H3       1.0000 0.78080  0.69040  0.16800  Biso   1.000  H
  H4       1.0000 0.71920  0.19040  0.33200  Biso   1.000  H
  C13      1.0000 0.13900  0.28850  0.01490  Biso   1.000  C
  C14      1.0000 0.36100  0.78850  0.48510  Biso   1.000  C
  C15      1.0000 0.86100  0.71150  0.98510  Biso   1.000  C
  C16      1.0000 0.63900  0.21150  0.51490  Biso   1.000  C
  C17      1.0000 0.10400  0.20700  0.99540  Biso   1.000  C
  C18      1.0000 0.39600  0.70700  0.50460  Biso   1.000  C
  C19      1.0000 0.89600  0.79300  0.00460  Biso   1.000  C
  C20      1.0000 0.60400  0.29300  0.49540  Biso   1.000  C
  C21      1.0000 0.10700  0.32080  0.13080  Biso   1.000  C
  C22      1.0000 0.39300  0.82080  0.36920  Biso   1.000  C
  C23      1.0000 0.89300  0.67920  0.86920  Biso   1.000  C
  C24      1.0000 0.60700  0.17920  0.63080  Biso   1.000  C
  H5       1.0000 0.05980  0.29340  0.19730  Biso   1.000  H
  H6       1.0000 0.44020  0.79340  0.30270  Biso   1.000  H
  H7       1.0000 0.94020  0.70660  0.80270  Biso   1.000  H
  H8       1.0000 0.55980  0.20660  0.69730  Biso   1.000  H
  C25      1.0000 0.20500  0.43880  0.04400  Biso   1.000  C
  C26      1.0000 0.29500  0.93880  0.45600  Biso   1.000  C
  C27      1.0000 0.79500  0.56120  0.95600  Biso   1.000  C
  C28      1.0000 0.70500  0.06120  0.54400  Biso   1.000  C
  H9       1.0000 0.22300  0.48930  0.05370  Biso   1.000  H
  H10      1.0000 0.27700  0.98930  0.44630  Biso   1.000  H
  H11      1.0000 0.77700  0.51070  0.94630  Biso   1.000  H
  H12      1.0000 0.72300  0.01070  0.55370  Biso   1.000  H
  C29      1.0000 0.30500  0.44670  0.81500  Biso   1.000  C
  C30      1.0000 0.19500  0.94670  0.68500  Biso   1.000  C
  C31      1.0000 0.69500  0.55330  0.18500  Biso   1.000  C
  C32      1.0000 0.80500  0.05330  0.31500  Biso   1.000  C
  O33      1.0000 0.12280  0.15560  0.61660  Biso   1.000  O
  O34      1.0000 0.37720  0.65560  0.88340  Biso   1.000  O
  O35      1.0000 0.87720  0.84440  0.38340  Biso   1.000  O
  O36      1.0000 0.62280  0.34440  0.11660  Biso   1.000  O
  O37      1.0000 0.04700  0.29980  0.57990  Biso   1.000  O
  O38      1.0000 0.45300  0.79980  0.92010  Biso   1.000  O
  O39      1.0000 0.95300  0.70020  0.42010  Biso   1.000  O
  O40      1.0000 0.54700  0.20020  0.07990  Biso   1.000  O
  O41      1.0000 0.20600  0.13400  0.36200  Biso   1.000  O
  O42      1.0000 0.29400  0.63400  0.13800  Biso   1.000  O
  O43      1.0000 0.79400  0.86600  0.63800  Biso   1.000  O
  O44      1.0000 0.70600  0.36600  0.86200  Biso   1.000  O
