data_image0
_cell_length_a       7.301
_cell_length_b       18.048
_cell_length_c       10.21
_cell_angle_alpha    90
_cell_angle_beta     94.334
_cell_angle_gamma    90

_symmetry_space_group_name_H-M    "P 1"
_symmetry_int_tables_number       1

loop_
  _symmetry_equiv_pos_as_xyz
  'x, y, z'

loop_
  _atom_site_label
  _atom_site_occupancy
  _atom_site_fract_x
  _atom_site_fract_y
  _atom_site_fract_z
  _atom_site_thermal_displace_type
  _atom_site_B_iso_or_equiv
  _atom_site_type_symbol
  Cu1      1.0000 0.13496  0.09466  0.78407  Biso   1.000  Cu
  Cu2      1.0000 0.36504  0.59466  0.71593  Biso   1.000  Cu
  Cu3      1.0000 0.86504  0.90534  0.21593  Biso   1.000  Cu
  Cu4      1.0000 0.63496  0.40534  0.28407  Biso   1.000  Cu
  Cu5      1.0000 0.96000  0.06841  0.06999  Biso   1.000  Cu
  Cu6      1.0000 0.54000  0.56841  0.43001  Biso   1.000  Cu
  Cu7      1.0000 0.04000  0.93159  0.93001  Biso   1.000  Cu
  Cu8      1.0000 0.46000  0.43159  0.56999  Biso   1.000  Cu
  S1       1.0000 0.12330  0.43481  0.30961  Biso   1.000  S
  S2       1.0000 0.37670  0.93481  0.19039  Biso   1.000  S
  S3       1.0000 0.87670  0.56519  0.69039  Biso   1.000  S
  S4       1.0000 0.62330  0.06519  0.80961  Biso   1.000  S
  O1       1.0000 0.05660  0.16780  0.08490  Biso   1.000  O
  O2       1.0000 0.44340  0.66780  0.41510  Biso   1.000  O
  O3       1.0000 0.94340  0.83220  0.91510  Biso   1.000  O
  O4       1.0000 0.55660  0.33220  0.58490  Biso   1.000  O
  O5       1.0000 0.12880  0.03480  0.94330  Biso   1.000  O
  O6       1.0000 0.37120  0.53480  0.55670  Biso   1.000  O
  O7       1.0000 0.87120  0.96520  0.05670  Biso   1.000  O
  O8       1.0000 0.62880  0.46520  0.44330  Biso   1.000  O
  O9       1.0000 0.34400  0.51380  0.83730  Biso   1.000  O
  O10      1.0000 0.15600  0.01380  0.66270  Biso   1.000  O
  O11      1.0000 0.65600  0.48620  0.16270  Biso   1.000  O
  O12      1.0000 0.84400  0.98620  0.33730  Biso   1.000  O
  O13      1.0000 0.12230  0.18620  0.87570  Biso   1.000  O
  O14      1.0000 0.37770  0.68620  0.62430  Biso   1.000  O
  O15      1.0000 0.87770  0.81380  0.12430  Biso   1.000  O
  O16      1.0000 0.62230  0.31380  0.37570  Biso   1.000  O
  O17      1.0000 0.13860  0.51290  0.29950  Biso   1.000  O
  O18      1.0000 0.36140  0.01290  0.20050  Biso   1.000  O
  O19      1.0000 0.86140  0.48710  0.70050  Biso   1.000  O
  O20      1.0000 0.63860  0.98710  0.79950  Biso   1.000  O
  O21      1.0000 0.31980  0.41060  0.71720  Biso   1.000  O
  O22      1.0000 0.18020  0.91060  0.78280  Biso   1.000  O
  O23      1.0000 0.68020  0.58940  0.28280  Biso   1.000  O
  O24      1.0000 0.81980  0.08940  0.21720  Biso   1.000  O
  O25      1.0000 0.27360  0.40150  0.38790  Biso   1.000  O
  O26      1.0000 0.22640  0.90150  0.11210  Biso   1.000  O
  O27      1.0000 0.72640  0.59850  0.61210  Biso   1.000  O
  O28      1.0000 0.77360  0.09850  0.88790  Biso   1.000  O
  O29      1.0000 0.95220  0.40820  0.35240  Biso   1.000  O
  O30      1.0000 0.54780  0.90820  0.14760  Biso   1.000  O
  O31      1.0000 0.04780  0.59180  0.64760  Biso   1.000  O
  O32      1.0000 0.45220  0.09180  0.85240  Biso   1.000  O
  C1       1.0000 0.14370  0.39640  0.15130  Biso   1.000  C
  C2       1.0000 0.35630  0.89640  0.34870  Biso   1.000  C
  C3       1.0000 0.85630  0.60360  0.84870  Biso   1.000  C
  C4       1.0000 0.64370  0.10360  0.65130  Biso   1.000  C
  C5       1.0000 0.23170  0.40510  0.92990  Biso   1.000  C
  C6       1.0000 0.26830  0.90510  0.57010  Biso   1.000  C
  C7       1.0000 0.76830  0.59490  0.07010  Biso   1.000  C
  C8       1.0000 0.73170  0.09490  0.42990  Biso   1.000  C
  C9       1.0000 0.19940  0.33040  0.91490  Biso   1.000  C
  C10      1.0000 0.30060  0.83040  0.58510  Biso   1.000  C
  C11      1.0000 0.80060  0.66960  0.08510  Biso   1.000  C
  C12      1.0000 0.69940  0.16960  0.41490  Biso   1.000  C
  H1       1.0000 0.22150  0.30780  0.83570  Biso   1.000  H
  H2       1.0000 0.27850  0.80780  0.66430  Biso   1.000  H
  H3       1.0000 0.77850  0.69220  0.16430  Biso   1.000  H
  H4       1.0000 0.72150  0.19220  0.33570  Biso   1.000  H
  C13      1.0000 0.13540  0.28810  0.01340  Biso   1.000  C
  C14      1.0000 0.36460  0.78810  0.48660  Biso   1.000  C
  C15      1.0000 0.86460  0.71190  0.98660  Biso   1.000  C
  C16      1.0000 0.63540  0.21190  0.51340  Biso   1.000  C
  C17      1.0000 0.10140  0.20700  0.98840  Biso   1.000  C
  C18      1.0000 0.39860  0.70700  0.51160  Biso   1.000  C
  C19      1.0000 0.89860  0.79300  0.01160  Biso   1.000  C
  C20      1.0000 0.60140  0.29300  0.48840  Biso   1.000  C
  C21      1.0000 0.10680  0.32050  0.13350  Biso   1.000  C
  C22      1.0000 0.39320  0.82050  0.36650  Biso   1.000  C
  C23      1.0000 0.89320  0.67950  0.86650  Biso   1.000  C
  C24      1.0000 0.60680  0.17950  0.63350  Biso   1.000  C
  H5       1.0000 0.06400  0.29230  0.20120  Biso   1.000  H
  H6       1.0000 0.43600  0.79230  0.29880  Biso   1.000  H
  H7       1.0000 0.93600  0.70770  0.79880  Biso   1.000  H
  H8       1.0000 0.56400  0.20770  0.70120  Biso   1.000  H
  C25      1.0000 0.20470  0.43900  0.05190  Biso   1.000  C
  C26      1.0000 0.29530  0.93900  0.44810  Biso   1.000  C
  C27      1.0000 0.79530  0.56100  0.94810  Biso   1.000  C
  C28      1.0000 0.70470  0.06100  0.55190  Biso   1.000  C
  H9       1.0000 0.22780  0.48930  0.06460  Biso   1.000  H
  H10      1.0000 0.27220  0.98930  0.43540  Biso   1.000  H
  H11      1.0000 0.77220  0.51070  0.93540  Biso   1.000  H
  H12      1.0000 0.72780  0.01070  0.56460  Biso   1.000  H
  C29      1.0000 0.30570  0.44710  0.81920  Biso   1.000  C
  C30      1.0000 0.19430  0.94710  0.68080  Biso   1.000  C
  C31      1.0000 0.69430  0.55290  0.18080  Biso   1.000  C
  C32      1.0000 0.80570  0.05290  0.31920  Biso   1.000  C
  O33      1.0000 0.12080  0.15630  0.62370  Biso   1.000  O
  O34      1.0000 0.37920  0.65630  0.87630  Biso   1.000  O
  O35      1.0000 0.87920  0.84370  0.37630  Biso   1.000  O
  O36      1.0000 0.62080  0.34370  0.12370  Biso   1.000  O
  O37      1.0000 0.03710  0.30130  0.58670  Biso   1.000  O
  O38      1.0000 0.46290  0.80130  0.91330  Biso   1.000  O
  O39      1.0000 0.96290  0.69870  0.41330  Biso   1.000  O
  O40      1.0000 0.53710  0.19870  0.08670  Biso   1.000  O
  O41      1.0000 0.22300  0.13590  0.36870  Biso   1.000  O
  O42      1.0000 0.27700  0.63590  0.13130  Biso   1.000  O
  O43      1.0000 0.77700  0.86410  0.63130  Biso   1.000  O
  O44      1.0000 0.72300  0.36410  0.86870  Biso   1.000  O
