data_image0
_cell_length_a       7.283
_cell_length_b       18.119
_cell_length_c       10.262
_cell_angle_alpha    90
_cell_angle_beta     94.119
_cell_angle_gamma    90

_symmetry_space_group_name_H-M    "P 1"
_symmetry_int_tables_number       1

loop_
  _symmetry_equiv_pos_as_xyz
  'x, y, z'

loop_
  _atom_site_label
  _atom_site_occupancy
  _atom_site_fract_x
  _atom_site_fract_y
  _atom_site_fract_z
  _atom_site_thermal_displace_type
  _atom_site_B_iso_or_equiv
  _atom_site_type_symbol
  Cu1      1.0000 0.13752  0.09426  0.78576  Biso   1.000  Cu
  Cu2      1.0000 0.36248  0.59426  0.71424  Biso   1.000  Cu
  Cu3      1.0000 0.86248  0.90574  0.21424  Biso   1.000  Cu
  Cu4      1.0000 0.63752  0.40574  0.28576  Biso   1.000  Cu
  Cu5      1.0000 0.96365  0.06844  0.07077  Biso   1.000  Cu
  Cu6      1.0000 0.53635  0.56844  0.42923  Biso   1.000  Cu
  Cu7      1.0000 0.03635  0.93156  0.92923  Biso   1.000  Cu
  Cu8      1.0000 0.46365  0.43156  0.57077  Biso   1.000  Cu
  S1       1.0000 0.12860  0.43513  0.30757  Biso   1.000  S
  S2       1.0000 0.37140  0.93513  0.19243  Biso   1.000  S
  S3       1.0000 0.87140  0.56487  0.69243  Biso   1.000  S
  S4       1.0000 0.62860  0.06487  0.80757  Biso   1.000  S
  O1       1.0000 0.05820  0.16780  0.08410  Biso   1.000  O
  O2       1.0000 0.44180  0.66780  0.41590  Biso   1.000  O
  O3       1.0000 0.94180  0.83220  0.91590  Biso   1.000  O
  O4       1.0000 0.55820  0.33220  0.58410  Biso   1.000  O
  O5       1.0000 0.13180  0.03400  0.94230  Biso   1.000  O
  O6       1.0000 0.36820  0.53400  0.55770  Biso   1.000  O
  O7       1.0000 0.86820  0.96600  0.05770  Biso   1.000  O
  O8       1.0000 0.63180  0.46600  0.44230  Biso   1.000  O
  O9       1.0000 0.34600  0.51370  0.83680  Biso   1.000  O
  O10      1.0000 0.15400  0.01370  0.66320  Biso   1.000  O
  O11      1.0000 0.65400  0.48630  0.16320  Biso   1.000  O
  O12      1.0000 0.84600  0.98630  0.33680  Biso   1.000  O
  O13      1.0000 0.12760  0.18620  0.87650  Biso   1.000  O
  O14      1.0000 0.37240  0.68620  0.62350  Biso   1.000  O
  O15      1.0000 0.87240  0.81380  0.12350  Biso   1.000  O
  O16      1.0000 0.62760  0.31380  0.37650  Biso   1.000  O
  O17      1.0000 0.15050  0.51300  0.29720  Biso   1.000  O
  O18      1.0000 0.34950  0.01300  0.20280  Biso   1.000  O
  O19      1.0000 0.84950  0.48700  0.70280  Biso   1.000  O
  O20      1.0000 0.65050  0.98700  0.79720  Biso   1.000  O
  O21      1.0000 0.32840  0.41040  0.71780  Biso   1.000  O
  O22      1.0000 0.17160  0.91040  0.78220  Biso   1.000  O
  O23      1.0000 0.67160  0.58960  0.28220  Biso   1.000  O
  O24      1.0000 0.82840  0.08960  0.21780  Biso   1.000  O
  O25      1.0000 0.27650  0.40090  0.38620  Biso   1.000  O
  O26      1.0000 0.22350  0.90090  0.11380  Biso   1.000  O
  O27      1.0000 0.72350  0.59910  0.61380  Biso   1.000  O
  O28      1.0000 0.77650  0.09910  0.88620  Biso   1.000  O
  O29      1.0000 0.95620  0.41080  0.35020  Biso   1.000  O
  O30      1.0000 0.54380  0.91080  0.14980  Biso   1.000  O
  O31      1.0000 0.04380  0.58920  0.64980  Biso   1.000  O
  O32      1.0000 0.45620  0.08920  0.85020  Biso   1.000  O
  C1       1.0000 0.14560  0.39600  0.15040  Biso   1.000  C
  C2       1.0000 0.35440  0.89600  0.34960  Biso   1.000  C
  C3       1.0000 0.85440  0.60400  0.84960  Biso   1.000  C
  C4       1.0000 0.64560  0.10400  0.65040  Biso   1.000  C
  C5       1.0000 0.23530  0.40510  0.93110  Biso   1.000  C
  C6       1.0000 0.26470  0.90510  0.56890  Biso   1.000  C
  C7       1.0000 0.76470  0.59490  0.06890  Biso   1.000  C
  C8       1.0000 0.73530  0.09490  0.43110  Biso   1.000  C
  C9       1.0000 0.20310  0.33040  0.91530  Biso   1.000  C
  C10      1.0000 0.29690  0.83040  0.58470  Biso   1.000  C
  C11      1.0000 0.79690  0.66960  0.08470  Biso   1.000  C
  C12      1.0000 0.70310  0.16960  0.41530  Biso   1.000  C
  H1       1.0000 0.22460  0.30830  0.83600  Biso   1.000  H
  H2       1.0000 0.27540  0.80830  0.66400  Biso   1.000  H
  H3       1.0000 0.77540  0.69170  0.16400  Biso   1.000  H
  H4       1.0000 0.72460  0.19170  0.33600  Biso   1.000  H
  C13      1.0000 0.13920  0.28750  0.01490  Biso   1.000  C
  C14      1.0000 0.36080  0.78750  0.48510  Biso   1.000  C
  C15      1.0000 0.86080  0.71250  0.98510  Biso   1.000  C
  C16      1.0000 0.63920  0.21250  0.51490  Biso   1.000  C
  C17      1.0000 0.10420  0.20800  0.99180  Biso   1.000  C
  C18      1.0000 0.39580  0.70800  0.50820  Biso   1.000  C
  C19      1.0000 0.89580  0.79200  0.00820  Biso   1.000  C
  C20      1.0000 0.60420  0.29200  0.49180  Biso   1.000  C
  C21      1.0000 0.11050  0.32130  0.13250  Biso   1.000  C
  C22      1.0000 0.38950  0.82130  0.36750  Biso   1.000  C
  C23      1.0000 0.88950  0.67870  0.86750  Biso   1.000  C
  C24      1.0000 0.61050  0.17870  0.63250  Biso   1.000  C
  H5       1.0000 0.06720  0.29360  0.20030  Biso   1.000  H
  H6       1.0000 0.43280  0.79360  0.29970  Biso   1.000  H
  H7       1.0000 0.93280  0.70640  0.79970  Biso   1.000  H
  H8       1.0000 0.56720  0.20640  0.70030  Biso   1.000  H
  C25      1.0000 0.20690  0.43790  0.04990  Biso   1.000  C
  C26      1.0000 0.29310  0.93790  0.45010  Biso   1.000  C
  C27      1.0000 0.79310  0.56210  0.95010  Biso   1.000  C
  C28      1.0000 0.70690  0.06210  0.54990  Biso   1.000  C
  H9       1.0000 0.22900  0.48810  0.06200  Biso   1.000  H
  H10      1.0000 0.27100  0.98810  0.43800  Biso   1.000  H
  H11      1.0000 0.77100  0.51190  0.93800  Biso   1.000  H
  H12      1.0000 0.72900  0.01190  0.56200  Biso   1.000  H
  C29      1.0000 0.30950  0.44690  0.82000  Biso   1.000  C
  C30      1.0000 0.19050  0.94690  0.68000  Biso   1.000  C
  C31      1.0000 0.69050  0.55310  0.18000  Biso   1.000  C
  C32      1.0000 0.80950  0.05310  0.32000  Biso   1.000  C
  O33      1.0000 0.12340  0.15590  0.62560  Biso   1.000  O
  O34      1.0000 0.37660  0.65590  0.87440  Biso   1.000  O
  O35      1.0000 0.87660  0.84410  0.37440  Biso   1.000  O
  O36      1.0000 0.62340  0.34410  0.12560  Biso   1.000  O
  O37      1.0000 0.05230  0.29950  0.58110  Biso   1.000  O
  O38      1.0000 0.44770  0.79950  0.91890  Biso   1.000  O
  O39      1.0000 0.94770  0.70050  0.41890  Biso   1.000  O
  O40      1.0000 0.55230  0.20050  0.08110  Biso   1.000  O
  O41      1.0000 0.21500  0.13830  0.37200  Biso   1.000  O
  O42      1.0000 0.28500  0.63830  0.12800  Biso   1.000  O
  O43      1.0000 0.78500  0.86170  0.62800  Biso   1.000  O
  O44      1.0000 0.71500  0.36170  0.87200  Biso   1.000  O
