data_image0
_cell_length_a       7.271
_cell_length_b       18.061
_cell_length_c       10.212
_cell_angle_alpha    90
_cell_angle_beta     94.234
_cell_angle_gamma    90

_symmetry_space_group_name_H-M    "P 1"
_symmetry_int_tables_number       1

loop_
  _symmetry_equiv_pos_as_xyz
  'x, y, z'

loop_
  _atom_site_label
  _atom_site_occupancy
  _atom_site_fract_x
  _atom_site_fract_y
  _atom_site_fract_z
  _atom_site_thermal_displace_type
  _atom_site_B_iso_or_equiv
  _atom_site_type_symbol
  Cu1      1.0000 0.13685  0.09445  0.78546  Biso   1.000  Cu
  Cu2      1.0000 0.36315  0.59445  0.71454  Biso   1.000  Cu
  Cu3      1.0000 0.86315  0.90555  0.21454  Biso   1.000  Cu
  Cu4      1.0000 0.63685  0.40555  0.28546  Biso   1.000  Cu
  Cu5      1.0000 0.96345  0.06840  0.07083  Biso   1.000  Cu
  Cu6      1.0000 0.53655  0.56840  0.42917  Biso   1.000  Cu
  Cu7      1.0000 0.03655  0.93160  0.92917  Biso   1.000  Cu
  Cu8      1.0000 0.46345  0.43160  0.57083  Biso   1.000  Cu
  S1       1.0000 0.12780  0.43516  0.30811  Biso   1.000  S
  S2       1.0000 0.37220  0.93516  0.19189  Biso   1.000  S
  S3       1.0000 0.87220  0.56484  0.69189  Biso   1.000  S
  S4       1.0000 0.62780  0.06484  0.80811  Biso   1.000  S
  O1       1.0000 0.05710  0.16800  0.08440  Biso   1.000  O
  O2       1.0000 0.44290  0.66800  0.41560  Biso   1.000  O
  O3       1.0000 0.94290  0.83200  0.91560  Biso   1.000  O
  O4       1.0000 0.55710  0.33200  0.58440  Biso   1.000  O
  O5       1.0000 0.13110  0.03420  0.94270  Biso   1.000  O
  O6       1.0000 0.36890  0.53420  0.55730  Biso   1.000  O
  O7       1.0000 0.86890  0.96580  0.05730  Biso   1.000  O
  O8       1.0000 0.63110  0.46580  0.44270  Biso   1.000  O
  O9       1.0000 0.34500  0.51420  0.83750  Biso   1.000  O
  O10      1.0000 0.15500  0.01420  0.66250  Biso   1.000  O
  O11      1.0000 0.65500  0.48580  0.16250  Biso   1.000  O
  O12      1.0000 0.84500  0.98580  0.33750  Biso   1.000  O
  O13      1.0000 0.12610  0.18610  0.87710  Biso   1.000  O
  O14      1.0000 0.37390  0.68610  0.62290  Biso   1.000  O
  O15      1.0000 0.87390  0.81390  0.12290  Biso   1.000  O
  O16      1.0000 0.62610  0.31390  0.37710  Biso   1.000  O
  O17      1.0000 0.14730  0.51320  0.29800  Biso   1.000  O
  O18      1.0000 0.35270  0.01320  0.20200  Biso   1.000  O
  O19      1.0000 0.85270  0.48680  0.70200  Biso   1.000  O
  O20      1.0000 0.64730  0.98680  0.79800  Biso   1.000  O
  O21      1.0000 0.32800  0.41060  0.71780  Biso   1.000  O
  O22      1.0000 0.17200  0.91060  0.78220  Biso   1.000  O
  O23      1.0000 0.67200  0.58940  0.28220  Biso   1.000  O
  O24      1.0000 0.82800  0.08940  0.21780  Biso   1.000  O
  O25      1.0000 0.27560  0.40150  0.38670  Biso   1.000  O
  O26      1.0000 0.22440  0.90150  0.11330  Biso   1.000  O
  O27      1.0000 0.72440  0.59850  0.61330  Biso   1.000  O
  O28      1.0000 0.77560  0.09850  0.88670  Biso   1.000  O
  O29      1.0000 0.95500  0.41050  0.35090  Biso   1.000  O
  O30      1.0000 0.54500  0.91050  0.14910  Biso   1.000  O
  O31      1.0000 0.04500  0.58950  0.64910  Biso   1.000  O
  O32      1.0000 0.45500  0.08950  0.85090  Biso   1.000  O
  C1       1.0000 0.14530  0.39590  0.15050  Biso   1.000  C
  C2       1.0000 0.35470  0.89590  0.34950  Biso   1.000  C
  C3       1.0000 0.85470  0.60410  0.84950  Biso   1.000  C
  C4       1.0000 0.64530  0.10410  0.65050  Biso   1.000  C
  C5       1.0000 0.23460  0.40510  0.93070  Biso   1.000  C
  C6       1.0000 0.26540  0.90510  0.56930  Biso   1.000  C
  C7       1.0000 0.76540  0.59490  0.06930  Biso   1.000  C
  C8       1.0000 0.73460  0.09490  0.43070  Biso   1.000  C
  C9       1.0000 0.20170  0.33050  0.91510  Biso   1.000  C
  C10      1.0000 0.29830  0.83050  0.58490  Biso   1.000  C
  C11      1.0000 0.79830  0.66950  0.08490  Biso   1.000  C
  C12      1.0000 0.70170  0.16950  0.41510  Biso   1.000  C
  H1       1.0000 0.22240  0.30840  0.83520  Biso   1.000  H
  H2       1.0000 0.27760  0.80840  0.66480  Biso   1.000  H
  H3       1.0000 0.77760  0.69160  0.16480  Biso   1.000  H
  H4       1.0000 0.72240  0.19160  0.33520  Biso   1.000  H
  C13      1.0000 0.13880  0.28740  0.01430  Biso   1.000  C
  C14      1.0000 0.36120  0.78740  0.48570  Biso   1.000  C
  C15      1.0000 0.86120  0.71260  0.98570  Biso   1.000  C
  C16      1.0000 0.63880  0.21260  0.51430  Biso   1.000  C
  C17      1.0000 0.10350  0.20780  0.99170  Biso   1.000  C
  C18      1.0000 0.39650  0.70780  0.50830  Biso   1.000  C
  C19      1.0000 0.89650  0.79220  0.00830  Biso   1.000  C
  C20      1.0000 0.60350  0.29220  0.49170  Biso   1.000  C
  C21      1.0000 0.10970  0.32110  0.13350  Biso   1.000  C
  C22      1.0000 0.39030  0.82110  0.36650  Biso   1.000  C
  C23      1.0000 0.89030  0.67890  0.86650  Biso   1.000  C
  C24      1.0000 0.60970  0.17890  0.63350  Biso   1.000  C
  H5       1.0000 0.06650  0.29350  0.20160  Biso   1.000  H
  H6       1.0000 0.43350  0.79350  0.29840  Biso   1.000  H
  H7       1.0000 0.93350  0.70650  0.79840  Biso   1.000  H
  H8       1.0000 0.56650  0.20650  0.70160  Biso   1.000  H
  C25      1.0000 0.20570  0.43830  0.05040  Biso   1.000  C
  C26      1.0000 0.29430  0.93830  0.44960  Biso   1.000  C
  C27      1.0000 0.79430  0.56170  0.94960  Biso   1.000  C
  C28      1.0000 0.70570  0.06170  0.55040  Biso   1.000  C
  H9       1.0000 0.22710  0.48870  0.06250  Biso   1.000  H
  H10      1.0000 0.27290  0.98870  0.43750  Biso   1.000  H
  H11      1.0000 0.77290  0.51130  0.93750  Biso   1.000  H
  H12      1.0000 0.72710  0.01130  0.56250  Biso   1.000  H
  C29      1.0000 0.30850  0.44680  0.82090  Biso   1.000  C
  C30      1.0000 0.19150  0.94680  0.67910  Biso   1.000  C
  C31      1.0000 0.69150  0.55320  0.17910  Biso   1.000  C
  C32      1.0000 0.80850  0.05320  0.32090  Biso   1.000  C
  O33      1.0000 0.12240  0.15630  0.62520  Biso   1.000  O
  O34      1.0000 0.37760  0.65630  0.87480  Biso   1.000  O
  O35      1.0000 0.87760  0.84370  0.37480  Biso   1.000  O
  O36      1.0000 0.62240  0.34370  0.12520  Biso   1.000  O
  O37      1.0000 0.04640  0.30070  0.58690  Biso   1.000  O
  O38      1.0000 0.45360  0.80070  0.91310  Biso   1.000  O
  O39      1.0000 0.95360  0.69930  0.41310  Biso   1.000  O
  O40      1.0000 0.54640  0.19930  0.08690  Biso   1.000  O
  O41      1.0000 0.21700  0.13720  0.37060  Biso   1.000  O
  O42      1.0000 0.28300  0.63720  0.12940  Biso   1.000  O
  O43      1.0000 0.78300  0.86280  0.62940  Biso   1.000  O
  O44      1.0000 0.71700  0.36280  0.87060  Biso   1.000  O
