data_image0
_cell_length_a       7.252
_cell_length_b       18.068
_cell_length_c       10.23
_cell_angle_alpha    90
_cell_angle_beta     94.216
_cell_angle_gamma    90

_symmetry_space_group_name_H-M    "P 1"
_symmetry_int_tables_number       1

loop_
  _symmetry_equiv_pos_as_xyz
  'x, y, z'

loop_
  _atom_site_label
  _atom_site_occupancy
  _atom_site_fract_x
  _atom_site_fract_y
  _atom_site_fract_z
  _atom_site_thermal_displace_type
  _atom_site_B_iso_or_equiv
  _atom_site_type_symbol
  Cu1      1.0000 0.13778  0.09413  0.78599  Biso   1.000  Cu
  Cu2      1.0000 0.36222  0.59413  0.71401  Biso   1.000  Cu
  Cu3      1.0000 0.86222  0.90587  0.21401  Biso   1.000  Cu
  Cu4      1.0000 0.63778  0.40587  0.28599  Biso   1.000  Cu
  Cu5      1.0000 0.96372  0.06851  0.07042  Biso   1.000  Cu
  Cu6      1.0000 0.53628  0.56851  0.42958  Biso   1.000  Cu
  Cu7      1.0000 0.03628  0.93149  0.92958  Biso   1.000  Cu
  Cu8      1.0000 0.46372  0.43149  0.57042  Biso   1.000  Cu
  S1       1.0000 0.12930  0.43524  0.30680  Biso   1.000  S
  S2       1.0000 0.37070  0.93524  0.19320  Biso   1.000  S
  S3       1.0000 0.87070  0.56476  0.69320  Biso   1.000  S
  S4       1.0000 0.62930  0.06476  0.80680  Biso   1.000  S
  O1       1.0000 0.05930  0.16710  0.08440  Biso   1.000  O
  O2       1.0000 0.44070  0.66710  0.41560  Biso   1.000  O
  O3       1.0000 0.94070  0.83290  0.91560  Biso   1.000  O
  O4       1.0000 0.55930  0.33290  0.58440  Biso   1.000  O
  O5       1.0000 0.13150  0.03360  0.94240  Biso   1.000  O
  O6       1.0000 0.36850  0.53360  0.55760  Biso   1.000  O
  O7       1.0000 0.86850  0.96640  0.05760  Biso   1.000  O
  O8       1.0000 0.63150  0.46640  0.44240  Biso   1.000  O
  O9       1.0000 0.34380  0.51360  0.83680  Biso   1.000  O
  O10      1.0000 0.15620  0.01360  0.66320  Biso   1.000  O
  O11      1.0000 0.65620  0.48640  0.16320  Biso   1.000  O
  O12      1.0000 0.84380  0.98640  0.33680  Biso   1.000  O
  O13      1.0000 0.12610  0.18600  0.87660  Biso   1.000  O
  O14      1.0000 0.37390  0.68600  0.62340  Biso   1.000  O
  O15      1.0000 0.87390  0.81400  0.12340  Biso   1.000  O
  O16      1.0000 0.62610  0.31400  0.37660  Biso   1.000  O
  O17      1.0000 0.14990  0.51250  0.29740  Biso   1.000  O
  O18      1.0000 0.35010  0.01250  0.20260  Biso   1.000  O
  O19      1.0000 0.85010  0.48750  0.70260  Biso   1.000  O
  O20      1.0000 0.64990  0.98750  0.79740  Biso   1.000  O
  O21      1.0000 0.32870  0.41010  0.71590  Biso   1.000  O
  O22      1.0000 0.17130  0.91010  0.78410  Biso   1.000  O
  O23      1.0000 0.67130  0.58990  0.28410  Biso   1.000  O
  O24      1.0000 0.82870  0.08990  0.21590  Biso   1.000  O
  O25      1.0000 0.27770  0.40020  0.38810  Biso   1.000  O
  O26      1.0000 0.22230  0.90020  0.11190  Biso   1.000  O
  O27      1.0000 0.72230  0.59980  0.61190  Biso   1.000  O
  O28      1.0000 0.77770  0.09980  0.88810  Biso   1.000  O
  O29      1.0000 0.95690  0.41000  0.35070  Biso   1.000  O
  O30      1.0000 0.54310  0.91000  0.14930  Biso   1.000  O
  O31      1.0000 0.04310  0.59000  0.64930  Biso   1.000  O
  O32      1.0000 0.45690  0.09000  0.85070  Biso   1.000  O
  C1       1.0000 0.14750  0.39610  0.15080  Biso   1.000  C
  C2       1.0000 0.35250  0.89610  0.34920  Biso   1.000  C
  C3       1.0000 0.85250  0.60390  0.84920  Biso   1.000  C
  C4       1.0000 0.64750  0.10390  0.65080  Biso   1.000  C
  C5       1.0000 0.23600  0.40520  0.92930  Biso   1.000  C
  C6       1.0000 0.26400  0.90520  0.57070  Biso   1.000  C
  C7       1.0000 0.76400  0.59480  0.07070  Biso   1.000  C
  C8       1.0000 0.73600  0.09480  0.42930  Biso   1.000  C
  C9       1.0000 0.20210  0.33070  0.91480  Biso   1.000  C
  C10      1.0000 0.29790  0.83070  0.58520  Biso   1.000  C
  C11      1.0000 0.79790  0.66930  0.08520  Biso   1.000  C
  C12      1.0000 0.70210  0.16930  0.41480  Biso   1.000  C
  H1       1.0000 0.22130  0.30850  0.83500  Biso   1.000  H
  H2       1.0000 0.27870  0.80850  0.66500  Biso   1.000  H
  H3       1.0000 0.77870  0.69150  0.16500  Biso   1.000  H
  H4       1.0000 0.72130  0.19150  0.33500  Biso   1.000  H
  C13      1.0000 0.14060  0.28780  0.01390  Biso   1.000  C
  C14      1.0000 0.35940  0.78780  0.48610  Biso   1.000  C
  C15      1.0000 0.85940  0.71220  0.98610  Biso   1.000  C
  C16      1.0000 0.64060  0.21220  0.51390  Biso   1.000  C
  C17      1.0000 0.10470  0.20750  0.99200  Biso   1.000  C
  C18      1.0000 0.39530  0.70750  0.50800  Biso   1.000  C
  C19      1.0000 0.89530  0.79250  0.00800  Biso   1.000  C
  C20      1.0000 0.60470  0.29250  0.49200  Biso   1.000  C
  C21      1.0000 0.11100  0.32060  0.13280  Biso   1.000  C
  C22      1.0000 0.38900  0.82060  0.36720  Biso   1.000  C
  C23      1.0000 0.88900  0.67940  0.86720  Biso   1.000  C
  C24      1.0000 0.61100  0.17940  0.63280  Biso   1.000  C
  H5       1.0000 0.06710  0.29270  0.20030  Biso   1.000  H
  H6       1.0000 0.43290  0.79270  0.29970  Biso   1.000  H
  H7       1.0000 0.93290  0.70730  0.79970  Biso   1.000  H
  H8       1.0000 0.56710  0.20730  0.70030  Biso   1.000  H
  C25      1.0000 0.20760  0.43780  0.04960  Biso   1.000  C
  C26      1.0000 0.29240  0.93780  0.45040  Biso   1.000  C
  C27      1.0000 0.79240  0.56220  0.95040  Biso   1.000  C
  C28      1.0000 0.70760  0.06220  0.54960  Biso   1.000  C
  H9       1.0000 0.22950  0.48820  0.06170  Biso   1.000  H
  H10      1.0000 0.27050  0.98820  0.43830  Biso   1.000  H
  H11      1.0000 0.77050  0.51180  0.93830  Biso   1.000  H
  H12      1.0000 0.72950  0.01180  0.56170  Biso   1.000  H
  C29      1.0000 0.31000  0.44690  0.81760  Biso   1.000  C
  C30      1.0000 0.19000  0.94690  0.68240  Biso   1.000  C
  C31      1.0000 0.69000  0.55310  0.18240  Biso   1.000  C
  C32      1.0000 0.81000  0.05310  0.31760  Biso   1.000  C
  O33      1.0000 0.12450  0.15480  0.62620  Biso   1.000  O
  O34      1.0000 0.37550  0.65480  0.87380  Biso   1.000  O
  O35      1.0000 0.87550  0.84520  0.37380  Biso   1.000  O
  O36      1.0000 0.62450  0.34520  0.12620  Biso   1.000  O
  O37      1.0000 0.05100  0.30000  0.58280  Biso   1.000  O
  O38      1.0000 0.44900  0.80000  0.91720  Biso   1.000  O
  O39      1.0000 0.94900  0.70000  0.41720  Biso   1.000  O
  O40      1.0000 0.55100  0.20000  0.08280  Biso   1.000  O
  O41      1.0000 0.21100  0.13600  0.37400  Biso   1.000  O
  O42      1.0000 0.28900  0.63600  0.12600  Biso   1.000  O
  O43      1.0000 0.78900  0.86400  0.62600  Biso   1.000  O
  O44      1.0000 0.71100  0.36400  0.87400  Biso   1.000  O
