data_image0
_cell_length_a       7.301
_cell_length_b       18.032
_cell_length_c       10.133
_cell_angle_alpha    90
_cell_angle_beta     94.307
_cell_angle_gamma    90

_symmetry_space_group_name_H-M    "P 1"
_symmetry_int_tables_number       1

loop_
  _symmetry_equiv_pos_as_xyz
  'x, y, z'

loop_
  _atom_site_label
  _atom_site_occupancy
  _atom_site_fract_x
  _atom_site_fract_y
  _atom_site_fract_z
  _atom_site_thermal_displace_type
  _atom_site_B_iso_or_equiv
  _atom_site_type_symbol
  Cu1      1.0000 0.13493  0.09464  0.78361  Biso   1.000  Cu
  Cu2      1.0000 0.36507  0.59464  0.71639  Biso   1.000  Cu
  Cu3      1.0000 0.86507  0.90536  0.21639  Biso   1.000  Cu
  Cu4      1.0000 0.63493  0.40536  0.28361  Biso   1.000  Cu
  Cu5      1.0000 0.54131  0.56848  0.43048  Biso   1.000  Cu
  Cu6      1.0000 0.95869  0.06848  0.06952  Biso   1.000  Cu
  Cu7      1.0000 0.45869  0.43152  0.56952  Biso   1.000  Cu
  Cu8      1.0000 0.04131  0.93152  0.93048  Biso   1.000  Cu
  S1       1.0000 0.37770  0.93484  0.19073  Biso   1.000  S
  S2       1.0000 0.12230  0.43484  0.30927  Biso   1.000  S
  S3       1.0000 0.62230  0.06516  0.80927  Biso   1.000  S
  S4       1.0000 0.87770  0.56516  0.69073  Biso   1.000  S
  O1       1.0000 0.44620  0.66840  0.41480  Biso   1.000  O
  O2       1.0000 0.05380  0.16840  0.08520  Biso   1.000  O
  O3       1.0000 0.55380  0.33160  0.58520  Biso   1.000  O
  O4       1.0000 0.94620  0.83160  0.91480  Biso   1.000  O
  O5       1.0000 0.12910  0.03500  0.94340  Biso   1.000  O
  O6       1.0000 0.37090  0.53500  0.55660  Biso   1.000  O
  O7       1.0000 0.87090  0.96500  0.05660  Biso   1.000  O
  O8       1.0000 0.62910  0.46500  0.44340  Biso   1.000  O
  O9       1.0000 0.15870  0.01370  0.66320  Biso   1.000  O
  O10      1.0000 0.34130  0.51370  0.83680  Biso   1.000  O
  O11      1.0000 0.84130  0.98630  0.33680  Biso   1.000  O
  O12      1.0000 0.65870  0.48630  0.16320  Biso   1.000  O
  O13      1.0000 0.38010  0.68620  0.62480  Biso   1.000  O
  O14      1.0000 0.11990  0.18620  0.87520  Biso   1.000  O
  O15      1.0000 0.61990  0.31380  0.37520  Biso   1.000  O
  O16      1.0000 0.88010  0.81380  0.12480  Biso   1.000  O
  O17      1.0000 0.36600  0.01240  0.19980  Biso   1.000  O
  O18      1.0000 0.13400  0.51240  0.30020  Biso   1.000  O
  O19      1.0000 0.63400  0.98760  0.80020  Biso   1.000  O
  O20      1.0000 0.86600  0.48760  0.69980  Biso   1.000  O
  O21      1.0000 0.18230  0.91050  0.78360  Biso   1.000  O
  O22      1.0000 0.31770  0.41050  0.71640  Biso   1.000  O
  O23      1.0000 0.81770  0.08950  0.21640  Biso   1.000  O
  O24      1.0000 0.68230  0.58950  0.28360  Biso   1.000  O
  O25      1.0000 0.22700  0.90200  0.11130  Biso   1.000  O
  O26      1.0000 0.27300  0.40200  0.38870  Biso   1.000  O
  O27      1.0000 0.77300  0.09800  0.88870  Biso   1.000  O
  O28      1.0000 0.72700  0.59800  0.61130  Biso   1.000  O
  O29      1.0000 0.54790  0.90820  0.14670  Biso   1.000  O
  O30      1.0000 0.95210  0.40820  0.35330  Biso   1.000  O
  O31      1.0000 0.45210  0.09180  0.85330  Biso   1.000  O
  O32      1.0000 0.04790  0.59180  0.64670  Biso   1.000  O
  C1       1.0000 0.35910  0.89630  0.35040  Biso   1.000  C
  C2       1.0000 0.14090  0.39630  0.14960  Biso   1.000  C
  C3       1.0000 0.64090  0.10370  0.64960  Biso   1.000  C
  C4       1.0000 0.85910  0.60370  0.85040  Biso   1.000  C
  C5       1.0000 0.27010  0.90460  0.56970  Biso   1.000  C
  C6       1.0000 0.22990  0.40460  0.93030  Biso   1.000  C
  C7       1.0000 0.72990  0.09540  0.43030  Biso   1.000  C
  C8       1.0000 0.77010  0.59540  0.06970  Biso   1.000  C
  C9       1.0000 0.30290  0.83040  0.58550  Biso   1.000  C
  C10      1.0000 0.19710  0.33040  0.91450  Biso   1.000  C
  C11      1.0000 0.69710  0.16960  0.41450  Biso   1.000  C
  C12      1.0000 0.80290  0.66960  0.08550  Biso   1.000  C
  H1       1.0000 0.28270  0.80800  0.66580  Biso   1.000  H
  H2       1.0000 0.21730  0.30800  0.83420  Biso   1.000  H
  H3       1.0000 0.71730  0.19200  0.33420  Biso   1.000  H
  H4       1.0000 0.78270  0.69200  0.16580  Biso   1.000  H
  C13      1.0000 0.36510  0.78790  0.48490  Biso   1.000  C
  C14      1.0000 0.13490  0.28790  0.01510  Biso   1.000  C
  C15      1.0000 0.63490  0.21210  0.51510  Biso   1.000  C
  C16      1.0000 0.86510  0.71210  0.98490  Biso   1.000  C
  C17      1.0000 0.40110  0.70700  0.50890  Biso   1.000  C
  C18      1.0000 0.09890  0.20700  0.99110  Biso   1.000  C
  C19      1.0000 0.59890  0.29300  0.49110  Biso   1.000  C
  C20      1.0000 0.90110  0.79300  0.00890  Biso   1.000  C
  C21      1.0000 0.39630  0.82050  0.36560  Biso   1.000  C
  C22      1.0000 0.10370  0.32050  0.13440  Biso   1.000  C
  C23      1.0000 0.60370  0.17950  0.63440  Biso   1.000  C
  C24      1.0000 0.89630  0.67950  0.86560  Biso   1.000  C
  H5       1.0000 0.44080  0.79300  0.29720  Biso   1.000  H
  H6       1.0000 0.05920  0.29300  0.20280  Biso   1.000  H
  H7       1.0000 0.55920  0.20700  0.70280  Biso   1.000  H
  H8       1.0000 0.94080  0.70700  0.79720  Biso   1.000  H
  C25      1.0000 0.29760  0.93830  0.44850  Biso   1.000  C
  C26      1.0000 0.20240  0.43830  0.05150  Biso   1.000  C
  C27      1.0000 0.70240  0.06170  0.55150  Biso   1.000  C
  C28      1.0000 0.79760  0.56170  0.94850  Biso   1.000  C
  H9       1.0000 0.27410  0.98860  0.43560  Biso   1.000  H
  H10      1.0000 0.22590  0.48860  0.06440  Biso   1.000  H
  H11      1.0000 0.72590  0.01140  0.56440  Biso   1.000  H
  H12      1.0000 0.77410  0.51140  0.93560  Biso   1.000  H
  C29      1.0000 0.19750  0.94730  0.68030  Biso   1.000  C
  C30      1.0000 0.30250  0.44730  0.81970  Biso   1.000  C
  C31      1.0000 0.80250  0.05270  0.31970  Biso   1.000  C
  C32      1.0000 0.69750  0.55270  0.18030  Biso   1.000  C
  O33      1.0000 0.11930  0.15620  0.62370  Biso   1.000  O
  O34      1.0000 0.38070  0.65620  0.87630  Biso   1.000  O
  O35      1.0000 0.88070  0.84380  0.37630  Biso   1.000  O
  O36      1.0000 0.61930  0.34380  0.12370  Biso   1.000  O
  O37      1.0000 0.03850  0.30110  0.58740  Biso   1.000  O
  O38      1.0000 0.46150  0.80110  0.91260  Biso   1.000  O
  O39      1.0000 0.96150  0.69890  0.41260  Biso   1.000  O
  O40      1.0000 0.53850  0.19890  0.08740  Biso   1.000  O
  O41      1.0000 0.21560  0.13360  0.36700  Biso   1.000  O
  O42      1.0000 0.28440  0.63360  0.13300  Biso   1.000  O
  O43      1.0000 0.78440  0.86640  0.63300  Biso   1.000  O
  O44      1.0000 0.71560  0.36640  0.86700  Biso   1.000  O
