data_image0
_cell_length_a       8.2762
_cell_length_b       12.727
_cell_length_c       15.09
_cell_angle_alpha    90
_cell_angle_beta     90.08
_cell_angle_gamma    90

_symmetry_space_group_name_H-M    "P 1"
_symmetry_int_tables_number       1

loop_
  _symmetry_equiv_pos_as_xyz
  'x, y, z'

loop_
  _atom_site_label
  _atom_site_occupancy
  _atom_site_fract_x
  _atom_site_fract_y
  _atom_site_fract_z
  _atom_site_thermal_displace_type
  _atom_site_B_iso_or_equiv
  _atom_site_type_symbol
  Cu1      1.0000 0.68636  0.63087  0.83156  Biso   1.000  Cu
  Cu2      1.0000 0.31364  0.13087  0.66844  Biso   1.000  Cu
  Cu3      1.0000 0.31364  0.36913  0.16844  Biso   1.000  Cu
  Cu4      1.0000 0.68636  0.86913  0.33156  Biso   1.000  Cu
  Na1      1.0000 0.32768  0.58110  0.48633  Biso   1.000  Na
  Na2      1.0000 0.67232  0.08110  0.01367  Biso   1.000  Na
  Na3      1.0000 0.67232  0.41890  0.51367  Biso   1.000  Na
  Na4      1.0000 0.32768  0.91890  0.98633  Biso   1.000  Na
  Na5      1.0000 0.31914  0.70423  0.84792  Biso   1.000  Na
  Na6      1.0000 0.68086  0.20423  0.65208  Biso   1.000  Na
  Na7      1.0000 0.68086  0.29577  0.15208  Biso   1.000  Na
  Na8      1.0000 0.31914  0.79577  0.34792  Biso   1.000  Na
  O1       1.0000 0.53950  0.75699  0.74175  Biso   1.000  O
  O2       1.0000 0.46050  0.25699  0.75825  Biso   1.000  O
  O3       1.0000 0.46050  0.24301  0.25825  Biso   1.000  O
  O4       1.0000 0.53950  0.74301  0.24175  Biso   1.000  O
  C1       1.0000 0.52750  0.71240  0.65346  Biso   1.000  C
  C2       1.0000 0.47250  0.21240  0.84654  Biso   1.000  C
  C3       1.0000 0.47250  0.28760  0.34654  Biso   1.000  C
  C4       1.0000 0.52750  0.78760  0.15346  Biso   1.000  C
  H1       1.0000 0.41660  0.71930  0.63140  Biso   1.000  H
  H2       1.0000 0.58340  0.21930  0.86860  Biso   1.000  H
  H3       1.0000 0.58340  0.28070  0.36860  Biso   1.000  H
  H4       1.0000 0.41660  0.78070  0.13140  Biso   1.000  H
  C5       1.0000 0.64210  0.77759  0.59606  Biso   1.000  C
  C6       1.0000 0.35790  0.27759  0.90394  Biso   1.000  C
  C7       1.0000 0.35790  0.22241  0.40394  Biso   1.000  C
  C8       1.0000 0.64210  0.72241  0.09606  Biso   1.000  C
  H5       1.0000 0.75030  0.74740  0.60300  Biso   1.000  H
  H6       1.0000 0.24970  0.24740  0.89700  Biso   1.000  H
  H7       1.0000 0.24970  0.25260  0.39700  Biso   1.000  H
  H8       1.0000 0.75030  0.75260  0.10300  Biso   1.000  H
  C9       1.0000 0.64320  0.88499  0.64286  Biso   1.000  C
  C10      1.0000 0.35680  0.38499  0.85714  Biso   1.000  C
  C11      1.0000 0.35680  0.11501  0.35714  Biso   1.000  C
  C12      1.0000 0.64320  0.61501  0.14286  Biso   1.000  C
  H9       1.0000 0.74330  0.92320  0.63020  Biso   1.000  H
  H10      1.0000 0.25670  0.42320  0.86980  Biso   1.000  H
  H11      1.0000 0.25670  0.07680  0.36980  Biso   1.000  H
  H12      1.0000 0.74330  0.57680  0.13020  Biso   1.000  H
  C13      1.0000 0.63770  0.85034  0.74053  Biso   1.000  C
  C14      1.0000 0.36230  0.35034  0.75947  Biso   1.000  C
  C15      1.0000 0.36230  0.14966  0.25947  Biso   1.000  C
  C16      1.0000 0.63770  0.64966  0.24053  Biso   1.000  C
  H13      1.0000 0.58560  0.90520  0.77600  Biso   1.000  H
  H14      1.0000 0.41440  0.40520  0.72400  Biso   1.000  H
  H15      1.0000 0.41440  0.09480  0.22400  Biso   1.000  H
  H16      1.0000 0.58560  0.59480  0.27600  Biso   1.000  H
  C17      1.0000 0.57590  0.59726  0.65526  Biso   1.000  C
  C18      1.0000 0.42410  0.09726  0.84474  Biso   1.000  C
  C19      1.0000 0.42410  0.40274  0.34474  Biso   1.000  C
  C20      1.0000 0.57590  0.90274  0.15526  Biso   1.000  C
  O5       1.0000 0.68306  0.56903  0.71148  Biso   1.000  O
  O6       1.0000 0.31694  0.06903  0.78852  Biso   1.000  O
  O7       1.0000 0.31694  0.43097  0.28852  Biso   1.000  O
  O8       1.0000 0.68306  0.93097  0.21148  Biso   1.000  O
  O9       1.0000 0.51450  0.53813  0.60001  Biso   1.000  O
  O10      1.0000 0.48550  0.03813  0.89999  Biso   1.000  O
  O11      1.0000 0.48550  0.46187  0.39999  Biso   1.000  O
  O12      1.0000 0.51450  0.96187  0.10001  Biso   1.000  O
  C21      1.0000 0.60720  0.78278  0.49670  Biso   1.000  C
  C22      1.0000 0.39280  0.28278  0.00330  Biso   1.000  C
  C23      1.0000 0.39280  0.21722  0.50330  Biso   1.000  C
  C24      1.0000 0.60720  0.71722  0.99670  Biso   1.000  C
  O13      1.0000 0.49526  0.73362  0.46210  Biso   1.000  O
  O14      1.0000 0.50474  0.23362  0.03790  Biso   1.000  O
  O15      1.0000 0.50474  0.26638  0.53790  Biso   1.000  O
  O16      1.0000 0.49526  0.76638  0.96210  Biso   1.000  O
  O17      1.0000 0.70873  0.84022  0.45613  Biso   1.000  O
  O18      1.0000 0.29127  0.34022  0.04387  Biso   1.000  O
  O19      1.0000 0.29127  0.15978  0.54387  Biso   1.000  O
  O20      1.0000 0.70873  0.65978  0.95613  Biso   1.000  O
  C25      1.0000 0.49600  0.95373  0.62448  Biso   1.000  C
  C26      1.0000 0.50400  0.45373  0.87552  Biso   1.000  C
  C27      1.0000 0.50400  0.04627  0.37552  Biso   1.000  C
  C28      1.0000 0.49600  0.54627  0.12448  Biso   1.000  C
  O21      1.0000 0.37196  0.91444  0.59377  Biso   1.000  O
  O22      1.0000 0.62804  0.41444  0.90623  Biso   1.000  O
  O23      1.0000 0.62804  0.08556  0.40623  Biso   1.000  O
  O24      1.0000 0.37196  0.58556  0.09377  Biso   1.000  O
  O25      1.0000 0.51198  0.04929  0.64833  Biso   1.000  O
  O26      1.0000 0.48802  0.54929  0.85167  Biso   1.000  O
  O27      1.0000 0.48802  0.95071  0.35167  Biso   1.000  O
  O28      1.0000 0.51198  0.45071  0.14833  Biso   1.000  O
  C29      1.0000 0.80780  0.83040  0.77598  Biso   1.000  C
  C30      1.0000 0.19220  0.33040  0.72402  Biso   1.000  C
  C31      1.0000 0.19220  0.16960  0.22402  Biso   1.000  C
  C32      1.0000 0.80780  0.66960  0.27598  Biso   1.000  C
  O29      1.0000 0.90009  0.90792  0.77760  Biso   1.000  O
  O30      1.0000 0.09991  0.40792  0.72240  Biso   1.000  O
  O31      1.0000 0.09991  0.09208  0.22240  Biso   1.000  O
  O32      1.0000 0.90009  0.59208  0.27760  Biso   1.000  O
  O33      1.0000 0.84809  0.73990  0.80210  Biso   1.000  O
  O34      1.0000 0.15191  0.23990  0.69790  Biso   1.000  O
  O35      1.0000 0.15191  0.26010  0.19790  Biso   1.000  O
  O36      1.0000 0.84809  0.76010  0.30210  Biso   1.000  O
  O37      1.0000 0.91550  0.50263  0.86216  Biso   1.000  O
  O38      1.0000 0.08450  0.00263  0.63784  Biso   1.000  O
  O39      1.0000 0.08450  0.49737  0.13784  Biso   1.000  O
  O40      1.0000 0.91550  0.99737  0.36216  Biso   1.000  O
  H17      1.0000 0.83000  0.46300  0.87700  Biso   1.000  H
  H18      1.0000 0.17000  0.96300  0.62300  Biso   1.000  H
  H19      1.0000 0.17000  0.53700  0.12300  Biso   1.000  H
  H20      1.0000 0.83000  0.03700  0.37700  Biso   1.000  H
  H21      1.0000 0.96600  0.46300  0.82400  Biso   1.000  H
  H22      1.0000 0.03400  0.96300  0.67600  Biso   1.000  H
  H23      1.0000 0.03400  0.53700  0.17600  Biso   1.000  H
  H24      1.0000 0.96600  0.03700  0.32400  Biso   1.000  H
  O41      1.0000 0.21250  0.62810  0.34339  Biso   1.000  O
  O42      1.0000 0.78750  0.12810  0.15661  Biso   1.000  O
  O43      1.0000 0.78750  0.37190  0.65661  Biso   1.000  O
  O44      1.0000 0.21250  0.87190  0.84339  Biso   1.000  O
  H25      1.0000 0.11600  0.62700  0.32900  Biso   1.000  H
  H26      1.0000 0.88400  0.12700  0.17100  Biso   1.000  H
  H27      1.0000 0.88400  0.37300  0.67100  Biso   1.000  H
  H28      1.0000 0.11600  0.87300  0.82900  Biso   1.000  H
  H29      1.0000 0.25000  0.57800  0.32300  Biso   1.000  H
  H30      1.0000 0.75000  0.07800  0.17700  Biso   1.000  H
  H31      1.0000 0.75000  0.42200  0.67700  Biso   1.000  H
  H32      1.0000 0.25000  0.92200  0.82300  Biso   1.000  H
  O45      1.0000 0.14620  0.63032  0.95411  Biso   1.000  O
  O46      1.0000 0.85380  0.13032  0.54589  Biso   1.000  O
  O47      1.0000 0.85380  0.36968  0.04589  Biso   1.000  O
  O48      1.0000 0.14620  0.86968  0.45411  Biso   1.000  O
  H33      1.0000 0.05700  0.62000  0.94900  Biso   1.000  H
  H34      1.0000 0.94300  0.12000  0.55100  Biso   1.000  H
  H35      1.0000 0.94300  0.38000  0.05100  Biso   1.000  H
  H36      1.0000 0.05700  0.88000  0.44900  Biso   1.000  H
  H37      1.0000 0.18800  0.59200  0.99100  Biso   1.000  H
  H38      1.0000 0.81200  0.09200  0.50900  Biso   1.000  H
  H39      1.0000 0.81200  0.40800  0.00900  Biso   1.000  H
  H40      1.0000 0.18800  0.90800  0.49100  Biso   1.000  H
  O49      1.0000 0.16330  0.43200  0.51710  Biso   1.000  O
  O50      1.0000 0.83670  0.93200  0.98290  Biso   1.000  O
  O51      1.0000 0.83670  0.56800  0.48290  Biso   1.000  O
  O52      1.0000 0.16330  0.06800  0.01710  Biso   1.000  O
  H41      1.0000 0.16100  0.43200  0.56100  Biso   1.000  H
  H42      1.0000 0.83900  0.93200  0.93900  Biso   1.000  H
  H43      1.0000 0.83900  0.56800  0.43900  Biso   1.000  H
  H44      1.0000 0.16100  0.06800  0.06100  Biso   1.000  H
  H45      1.0000 0.07400  0.39800  0.49300  Biso   1.000  H
  H46      1.0000 0.92600  0.89800  0.00700  Biso   1.000  H
  H47      1.0000 0.92600  0.60200  0.50700  Biso   1.000  H
  H48      1.0000 0.07400  0.10200  0.99300  Biso   1.000  H
  O53      1.0000 0.13960  0.64026  0.73470  Biso   1.000  O
  O54      1.0000 0.86040  0.14026  0.76530  Biso   1.000  O
  O55      1.0000 0.86040  0.35974  0.26530  Biso   1.000  O
  O56      1.0000 0.13960  0.85974  0.23470  Biso   1.000  O
  H49      1.0000 0.06000  0.66000  0.75100  Biso   1.000  H
  H50      1.0000 0.94000  0.16000  0.74900  Biso   1.000  H
  H51      1.0000 0.94000  0.34000  0.24900  Biso   1.000  H
  H52      1.0000 0.06000  0.84000  0.25100  Biso   1.000  H
  H53      1.0000 0.13200  0.58200  0.73200  Biso   1.000  H
  H54      1.0000 0.86800  0.08200  0.76800  Biso   1.000  H
  H55      1.0000 0.86800  0.41800  0.26800  Biso   1.000  H
  H56      1.0000 0.13200  0.91800  0.23200  Biso   1.000  H
  O57      1.0000 0.10870  0.68099  0.55078  Biso   1.000  O
  O58      1.0000 0.89130  0.18099  0.94922  Biso   1.000  O
  O59      1.0000 0.89130  0.31901  0.44922  Biso   1.000  O
  O60      1.0000 0.10870  0.81901  0.05078  Biso   1.000  O
  H57      1.0000 0.12500  0.68900  0.60600  Biso   1.000  H
  H58      1.0000 0.87500  0.18900  0.89400  Biso   1.000  H
  H59      1.0000 0.87500  0.31100  0.39400  Biso   1.000  H
  H60      1.0000 0.12500  0.81100  0.10600  Biso   1.000  H
  H61      1.0000 0.11700  0.74100  0.53500  Biso   1.000  H
  H62      1.0000 0.88300  0.24100  0.96500  Biso   1.000  H
  H63      1.0000 0.88300  0.25900  0.46500  Biso   1.000  H
  H64      1.0000 0.11700  0.75900  0.03500  Biso   1.000  H
