data_image0
_cell_length_a       7.5666
_cell_length_b       10.4595
_cell_length_c       10.5323
_cell_angle_alpha    75.387
_cell_angle_beta     76.875
_cell_angle_gamma    87.483

_symmetry_space_group_name_H-M    "P 1"
_symmetry_int_tables_number       1

loop_
  _symmetry_equiv_pos_as_xyz
  'x, y, z'

loop_
  _atom_site_label
  _atom_site_occupancy
  _atom_site_fract_x
  _atom_site_fract_y
  _atom_site_fract_z
  _atom_site_thermal_displace_type
  _atom_site_B_iso_or_equiv
  _atom_site_type_symbol
  N1       1.0000 0.93620  0.86650  0.06200  Biso   1.000  N
  N2       1.0000 0.06380  0.13350  0.93800  Biso   1.000  N
  H1       1.0000 0.94660  0.78200  0.08440  Biso   1.000  H
  H2       1.0000 0.05340  0.21800  0.91560  Biso   1.000  H
  S1       1.0000 0.44710  0.71777  0.20370  Biso   1.000  S
  S2       1.0000 0.55290  0.28223  0.79630  Biso   1.000  S
  Cu1      1.0000 0.00000  0.50000  0.00000  Biso   1.000  Cu
  Cu2      1.0000 0.00000  0.00000  0.50000  Biso   1.000  Cu
  O1       1.0000 0.09370  0.46900  0.82010  Biso   1.000  O
  O2       1.0000 0.90630  0.53100  0.17990  Biso   1.000  O
  O3       1.0000 0.19700  0.69680  0.96570  Biso   1.000  O
  O4       1.0000 0.80300  0.30320  0.03430  Biso   1.000  O
  O5       1.0000 0.20470  0.67100  0.72190  Biso   1.000  O
  O6       1.0000 0.79530  0.32900  0.27810  Biso   1.000  O
  O7       1.0000 0.46140  0.97640  0.69280  Biso   1.000  O
  O8       1.0000 0.53860  0.02360  0.30720  Biso   1.000  O
  O9       1.0000 0.07320  0.16390  0.52750  Biso   1.000  O
  O10      1.0000 0.92680  0.83610  0.47250  Biso   1.000  O
  O11      1.0000 0.21120  0.21800  0.31120  Biso   1.000  O
  O12      1.0000 0.78880  0.78200  0.68880  Biso   1.000  O
  O13      1.0000 0.60570  0.76890  0.23220  Biso   1.000  O
  O14      1.0000 0.39430  0.23110  0.76780  Biso   1.000  O
  O15      1.0000 0.49440  0.65710  0.09040  Biso   1.000  O
  O16      1.0000 0.50560  0.34290  0.90960  Biso   1.000  O
  O17      1.0000 0.30640  0.81330  0.19000  Biso   1.000  O
  O18      1.0000 0.69360  0.18670  0.81000  Biso   1.000  O
  O19      1.0000 0.18190  0.37180  0.06260  Biso   1.000  O
  O20      1.0000 0.81810  0.62820  0.93740  Biso   1.000  O
  O21      1.0000 0.20080  0.91360  0.57370  Biso   1.000  O
  O22      1.0000 0.79920  0.08640  0.42630  Biso   1.000  O
  C1       1.0000 0.17010  0.55720  0.71850  Biso   1.000  C
  C2       1.0000 0.82990  0.44280  0.28150  Biso   1.000  C
  C3       1.0000 0.21820  0.52260  0.58260  Biso   1.000  C
  C4       1.0000 0.78180  0.47740  0.41740  Biso   1.000  C
  C5       1.0000 0.16960  0.40190  0.56850  Biso   1.000  C
  C6       1.0000 0.83040  0.59810  0.43150  Biso   1.000  C
  H3       1.0000 0.10570  0.33970  0.64240  Biso   1.000  H
  H4       1.0000 0.89430  0.66030  0.35760  Biso   1.000  H
  C7       1.0000 0.21730  0.37410  0.44160  Biso   1.000  C
  C8       1.0000 0.78270  0.62590  0.55840  Biso   1.000  C
  C9       1.0000 0.16480  0.24300  0.42350  Biso   1.000  C
  C10      1.0000 0.83520  0.75700  0.57650  Biso   1.000  C
  C11      1.0000 0.30950  0.46810  0.33080  Biso   1.000  C
  C12      1.0000 0.69050  0.53190  0.66920  Biso   1.000  C
  H5       1.0000 0.34240  0.44940  0.24680  Biso   1.000  H
  H6       1.0000 0.65760  0.55060  0.75320  Biso   1.000  H
  C13      1.0000 0.35190  0.58950  0.34640  Biso   1.000  C
  C14      1.0000 0.64810  0.41050  0.65360  Biso   1.000  C
  C15      1.0000 0.30950  0.61710  0.47120  Biso   1.000  C
  C16      1.0000 0.69050  0.38290  0.52880  Biso   1.000  C
  H7       1.0000 0.34180  0.69830  0.48070  Biso   1.000  H
  H8       1.0000 0.65820  0.30170  0.51930  Biso   1.000  H
  C17      1.0000 0.88680  0.94340  0.93430  Biso   1.000  C
  C18      1.0000 0.11320  0.05660  0.06570  Biso   1.000  C
  H9       1.0000 0.77350  0.98880  0.95550  Biso   1.000  H
  H10      1.0000 0.22650  0.01120  0.04450  Biso   1.000  H
  H11      1.0000 0.87030  0.88360  0.88080  Biso   1.000  H
  H12      1.0000 0.12970  0.11640  0.11920  Biso   1.000  H
  C19      1.0000 0.96480  0.95740  0.14460  Biso   1.000  C
  C20      1.0000 0.03520  0.04260  0.85540  Biso   1.000  C
  H13      1.0000 0.99780  0.90680  0.22640  Biso   1.000  H
  H14      1.0000 0.00220  0.09320  0.77360  Biso   1.000  H
  H15      1.0000 0.85310  0.00320  0.16980  Biso   1.000  H
  H16      1.0000 0.14690  0.99680  0.83020  Biso   1.000  H
