data_image0
_cell_length_a       15.3759
_cell_length_b       18.8359
_cell_length_c       14.1292
_cell_angle_alpha    90
_cell_angle_beta     90.324
_cell_angle_gamma    90

_symmetry_space_group_name_H-M    "P 1"
_symmetry_int_tables_number       1

loop_
  _symmetry_equiv_pos_as_xyz
  'x, y, z'

loop_
  _atom_site_label
  _atom_site_occupancy
  _atom_site_fract_x
  _atom_site_fract_y
  _atom_site_fract_z
  _atom_site_thermal_displace_type
  _atom_site_B_iso_or_equiv
  _atom_site_type_symbol
  Cu1      1.0000 0.16884  0.27839  0.86926  Biso   1.000  Cu
  Cu2      1.0000 0.66884  0.77839  0.86926  Biso   1.000  Cu
  Cu3      1.0000 0.83116  0.27839  0.13074  Biso   1.000  Cu
  Cu4      1.0000 0.33116  0.77839  0.13074  Biso   1.000  Cu
  Cu5      1.0000 0.83116  0.72161  0.13074  Biso   1.000  Cu
  Cu6      1.0000 0.33116  0.22161  0.13074  Biso   1.000  Cu
  Cu7      1.0000 0.16884  0.72161  0.86926  Biso   1.000  Cu
  Cu8      1.0000 0.66884  0.22161  0.86926  Biso   1.000  Cu
  O1       1.0000 0.20090  0.18970  0.80530  Biso   1.000  O
  O2       1.0000 0.70090  0.68970  0.80530  Biso   1.000  O
  O3       1.0000 0.79910  0.18970  0.19470  Biso   1.000  O
  O4       1.0000 0.29910  0.68970  0.19470  Biso   1.000  O
  O5       1.0000 0.79910  0.81030  0.19470  Biso   1.000  O
  O6       1.0000 0.29910  0.31030  0.19470  Biso   1.000  O
  O7       1.0000 0.20090  0.81030  0.80530  Biso   1.000  O
  O8       1.0000 0.70090  0.31030  0.80530  Biso   1.000  O
  O9       1.0000 0.18750  0.12820  0.93850  Biso   1.000  O
  O10      1.0000 0.68750  0.62820  0.93850  Biso   1.000  O
  O11      1.0000 0.81250  0.12820  0.06150  Biso   1.000  O
  O12      1.0000 0.31250  0.62820  0.06150  Biso   1.000  O
  O13      1.0000 0.81250  0.87180  0.06150  Biso   1.000  O
  O14      1.0000 0.31250  0.37180  0.06150  Biso   1.000  O
  O15      1.0000 0.18750  0.87180  0.93850  Biso   1.000  O
  O16      1.0000 0.68750  0.37180  0.93850  Biso   1.000  O
  O17      1.0000 0.29100  0.00000  0.50220  Biso   1.000  O
  O18      1.0000 0.79100  0.50000  0.50220  Biso   1.000  O
  O19      1.0000 0.70900  0.00000  0.49780  Biso   1.000  O
  O20      1.0000 0.20900  0.50000  0.49780  Biso   1.000  O
  O21      1.0000 0.17700  0.06070  0.49470  Biso   1.000  O
  O22      1.0000 0.67700  0.56070  0.49470  Biso   1.000  O
  O23      1.0000 0.82300  0.06070  0.50530  Biso   1.000  O
  O24      1.0000 0.32300  0.56070  0.50530  Biso   1.000  O
  O25      1.0000 0.82300  0.93930  0.50530  Biso   1.000  O
  O26      1.0000 0.32300  0.43930  0.50530  Biso   1.000  O
  O27      1.0000 0.17700  0.93930  0.49470  Biso   1.000  O
  O28      1.0000 0.67700  0.43930  0.49470  Biso   1.000  O
  O29      1.0000 0.14110  0.63190  0.93170  Biso   1.000  O
  O30      1.0000 0.64110  0.13190  0.93170  Biso   1.000  O
  O31      1.0000 0.85890  0.63190  0.06830  Biso   1.000  O
  O32      1.0000 0.35890  0.13190  0.06830  Biso   1.000  O
  O33      1.0000 0.85890  0.36810  0.06830  Biso   1.000  O
  O34      1.0000 0.35890  0.86810  0.06830  Biso   1.000  O
  O35      1.0000 0.14110  0.36810  0.93170  Biso   1.000  O
  O36      1.0000 0.64110  0.86810  0.93170  Biso   1.000  O
  O37      1.0000 0.09750  0.68960  0.06010  Biso   1.000  O
  O38      1.0000 0.59750  0.18960  0.06010  Biso   1.000  O
  O39      1.0000 0.90250  0.68960  0.93990  Biso   1.000  O
  O40      1.0000 0.40250  0.18960  0.93990  Biso   1.000  O
  O41      1.0000 0.90250  0.31040  0.93990  Biso   1.000  O
  O42      1.0000 0.40250  0.81040  0.93990  Biso   1.000  O
  O43      1.0000 0.09750  0.31040  0.06010  Biso   1.000  O
  O44      1.0000 0.59750  0.81040  0.06010  Biso   1.000  O
  O45      1.0000 0.87140  0.50000  0.25450  Biso   1.000  O
  O46      1.0000 0.37140  0.00000  0.25450  Biso   1.000  O
  O47      1.0000 0.12860  0.50000  0.74550  Biso   1.000  O
  O48      1.0000 0.62860  0.00000  0.74550  Biso   1.000  O
  O49      1.0000 0.97480  0.43680  0.34090  Biso   1.000  O
  O50      1.0000 0.47480  0.93680  0.34090  Biso   1.000  O
  O51      1.0000 0.02520  0.43680  0.65910  Biso   1.000  O
  O52      1.0000 0.52520  0.93680  0.65910  Biso   1.000  O
  O53      1.0000 0.02520  0.56320  0.65910  Biso   1.000  O
  O54      1.0000 0.52520  0.06320  0.65910  Biso   1.000  O
  O55      1.0000 0.97480  0.56320  0.34090  Biso   1.000  O
  O56      1.0000 0.47480  0.06320  0.34090  Biso   1.000  O
  O57      1.0000 0.04580  0.24880  0.86210  Biso   1.000  O
  O58      1.0000 0.54580  0.74880  0.86210  Biso   1.000  O
  O59      1.0000 0.95420  0.24880  0.13790  Biso   1.000  O
  O60      1.0000 0.45420  0.74880  0.13790  Biso   1.000  O
  O61      1.0000 0.95420  0.75120  0.13790  Biso   1.000  O
  O62      1.0000 0.45420  0.25120  0.13790  Biso   1.000  O
  O63      1.0000 0.04580  0.75120  0.86210  Biso   1.000  O
  O64      1.0000 0.54580  0.25120  0.86210  Biso   1.000  O
  O65      1.0000 0.17090  0.33380  0.72890  Biso   1.000  O
  O66      1.0000 0.67090  0.83380  0.72890  Biso   1.000  O
  O67      1.0000 0.82910  0.33380  0.27110  Biso   1.000  O
  O68      1.0000 0.32910  0.83380  0.27110  Biso   1.000  O
  O69      1.0000 0.82910  0.66620  0.27110  Biso   1.000  O
  O70      1.0000 0.32910  0.16620  0.27110  Biso   1.000  O
  O71      1.0000 0.17090  0.66620  0.72890  Biso   1.000  O
  O72      1.0000 0.67090  0.16620  0.72890  Biso   1.000  O
  O73      1.0000 0.29190  0.29450  0.90750  Biso   1.000  O
  O74      1.0000 0.79190  0.79450  0.90750  Biso   1.000  O
  O75      1.0000 0.70810  0.29450  0.09250  Biso   1.000  O
  O76      1.0000 0.20810  0.79450  0.09250  Biso   1.000  O
  O77      1.0000 0.70810  0.70550  0.09250  Biso   1.000  O
  O78      1.0000 0.20810  0.20550  0.09250  Biso   1.000  O
  O79      1.0000 0.29190  0.70550  0.90750  Biso   1.000  O
  O80      1.0000 0.79190  0.20550  0.90750  Biso   1.000  O
  C1       1.0000 0.19740  0.13240  0.85130  Biso   1.000  C
  C2       1.0000 0.69740  0.63240  0.85130  Biso   1.000  C
  C3       1.0000 0.80260  0.13240  0.14870  Biso   1.000  C
  C4       1.0000 0.30260  0.63240  0.14870  Biso   1.000  C
  C5       1.0000 0.80260  0.86760  0.14870  Biso   1.000  C
  C6       1.0000 0.30260  0.36760  0.14870  Biso   1.000  C
  C7       1.0000 0.19740  0.86760  0.85130  Biso   1.000  C
  C8       1.0000 0.69740  0.36760  0.85130  Biso   1.000  C
  C9       1.0000 0.20250  0.06430  0.79640  Biso   1.000  C
  C10      1.0000 0.70250  0.56430  0.79640  Biso   1.000  C
  C11      1.0000 0.79750  0.06430  0.20360  Biso   1.000  C
  C12      1.0000 0.29750  0.56430  0.20360  Biso   1.000  C
  C13      1.0000 0.79750  0.93570  0.20360  Biso   1.000  C
  C14      1.0000 0.29750  0.43570  0.20360  Biso   1.000  C
  C15      1.0000 0.20250  0.93570  0.79640  Biso   1.000  C
  C16      1.0000 0.70250  0.43570  0.79640  Biso   1.000  C
  C17      1.0000 0.20590  0.06410  0.69880  Biso   1.000  C
  C18      1.0000 0.70590  0.56410  0.69880  Biso   1.000  C
  C19      1.0000 0.79410  0.06410  0.30120  Biso   1.000  C
  C20      1.0000 0.29410  0.56410  0.30120  Biso   1.000  C
  C21      1.0000 0.79410  0.93590  0.30120  Biso   1.000  C
  C22      1.0000 0.29410  0.43590  0.30120  Biso   1.000  C
  C23      1.0000 0.20590  0.93590  0.69880  Biso   1.000  C
  C24      1.0000 0.70590  0.43590  0.69880  Biso   1.000  C
  H1       1.0000 0.20780  0.10660  0.66550  Biso   1.000  H
  H2       1.0000 0.70780  0.60660  0.66550  Biso   1.000  H
  H3       1.0000 0.79220  0.10660  0.33450  Biso   1.000  H
  H4       1.0000 0.29220  0.60660  0.33450  Biso   1.000  H
  H5       1.0000 0.79220  0.89340  0.33450  Biso   1.000  H
  H6       1.0000 0.29220  0.39340  0.33450  Biso   1.000  H
  H7       1.0000 0.20780  0.89340  0.66550  Biso   1.000  H
  H8       1.0000 0.70780  0.39340  0.66550  Biso   1.000  H
  C25      1.0000 0.20650  0.00000  0.65120  Biso   1.000  C
  C26      1.0000 0.70650  0.50000  0.65120  Biso   1.000  C
  C27      1.0000 0.79350  0.00000  0.34880  Biso   1.000  C
  C28      1.0000 0.29350  0.50000  0.34880  Biso   1.000  C
  C29      1.0000 0.19990  0.00000  0.84380  Biso   1.000  C
  C30      1.0000 0.69990  0.50000  0.84380  Biso   1.000  C
  C31      1.0000 0.80010  0.00000  0.15620  Biso   1.000  C
  C32      1.0000 0.30010  0.50000  0.15620  Biso   1.000  C
  H9       1.0000 0.19620  0.00000  0.90940  Biso   1.000  H
  H10      1.0000 0.69620  0.50000  0.90940  Biso   1.000  H
  H11      1.0000 0.80380  0.00000  0.09060  Biso   1.000  H
  H12      1.0000 0.30380  0.50000  0.09060  Biso   1.000  H
  C33      1.0000 0.11140  0.63370  0.01480  Biso   1.000  C
  C34      1.0000 0.61140  0.13370  0.01480  Biso   1.000  C
  C35      1.0000 0.88860  0.63370  0.98520  Biso   1.000  C
  C36      1.0000 0.38860  0.13370  0.98520  Biso   1.000  C
  C37      1.0000 0.88860  0.36630  0.98520  Biso   1.000  C
  C38      1.0000 0.38860  0.86630  0.98520  Biso   1.000  C
  C39      1.0000 0.11140  0.36630  0.01480  Biso   1.000  C
  C40      1.0000 0.61140  0.86630  0.01480  Biso   1.000  C
  C41      1.0000 0.09010  0.56400  0.06090  Biso   1.000  C
  C42      1.0000 0.59010  0.06400  0.06090  Biso   1.000  C
  C43      1.0000 0.90990  0.56400  0.93910  Biso   1.000  C
  C44      1.0000 0.40990  0.06400  0.93910  Biso   1.000  C
  C45      1.0000 0.90990  0.43600  0.93910  Biso   1.000  C
  C46      1.0000 0.40990  0.93600  0.93910  Biso   1.000  C
  C47      1.0000 0.09010  0.43600  0.06090  Biso   1.000  C
  C48      1.0000 0.59010  0.93600  0.06090  Biso   1.000  C
  C49      1.0000 0.04800  0.56390  0.14770  Biso   1.000  C
  C50      1.0000 0.54800  0.06390  0.14770  Biso   1.000  C
  C51      1.0000 0.95200  0.56390  0.85230  Biso   1.000  C
  C52      1.0000 0.45200  0.06390  0.85230  Biso   1.000  C
  C53      1.0000 0.95200  0.43610  0.85230  Biso   1.000  C
  C54      1.0000 0.45200  0.93610  0.85230  Biso   1.000  C
  C55      1.0000 0.04800  0.43610  0.14770  Biso   1.000  C
  C56      1.0000 0.54800  0.93610  0.14770  Biso   1.000  C
  H13      1.0000 0.03550  0.60650  0.17790  Biso   1.000  H
  H14      1.0000 0.53550  0.10650  0.17790  Biso   1.000  H
  H15      1.0000 0.96450  0.60650  0.82210  Biso   1.000  H
  H16      1.0000 0.46450  0.10650  0.82210  Biso   1.000  H
  H17      1.0000 0.96450  0.39350  0.82210  Biso   1.000  H
  H18      1.0000 0.46450  0.89350  0.82210  Biso   1.000  H
  H19      1.0000 0.03550  0.39350  0.17790  Biso   1.000  H
  H20      1.0000 0.53550  0.89350  0.17790  Biso   1.000  H
  C57      1.0000 0.02480  0.50000  0.18910  Biso   1.000  C
  C58      1.0000 0.52480  0.00000  0.18910  Biso   1.000  C
  C59      1.0000 0.97520  0.50000  0.81090  Biso   1.000  C
  C60      1.0000 0.47520  0.00000  0.81090  Biso   1.000  C
  C61      1.0000 0.10980  0.50000  0.01640  Biso   1.000  C
  C62      1.0000 0.60980  0.00000  0.01640  Biso   1.000  C
  C63      1.0000 0.89020  0.50000  0.98360  Biso   1.000  C
  C64      1.0000 0.39020  0.00000  0.98360  Biso   1.000  C
  H21      1.0000 0.13600  0.50000  0.95720  Biso   1.000  H
  H22      1.0000 0.63600  0.00000  0.95720  Biso   1.000  H
  H23      1.0000 0.86400  0.50000  0.04280  Biso   1.000  H
  H24      1.0000 0.36400  0.00000  0.04280  Biso   1.000  H
  S1       1.0000 0.20700  0.00000  0.52440  Biso   1.000  S
  S2       1.0000 0.70700  0.50000  0.52440  Biso   1.000  S
  S3       1.0000 0.79300  0.00000  0.47560  Biso   1.000  S
  S4       1.0000 0.29300  0.50000  0.47560  Biso   1.000  S
  S5       1.0000 0.95840  0.50000  0.29040  Biso   1.000  S
  S6       1.0000 0.45840  0.00000  0.29040  Biso   1.000  S
  S7       1.0000 0.04160  0.50000  0.70960  Biso   1.000  S
  S8       1.0000 0.54160  0.00000  0.70960  Biso   1.000  S
  O81      1.0000 0.98320  0.20240  0.69880  Biso   1.000  O
  O82      1.0000 0.48320  0.70240  0.69880  Biso   1.000  O
  O83      1.0000 0.01680  0.20240  0.30120  Biso   1.000  O
  O84      1.0000 0.51680  0.70240  0.30120  Biso   1.000  O
  O85      1.0000 0.01680  0.79760  0.30120  Biso   1.000  O
  O86      1.0000 0.51680  0.29760  0.30120  Biso   1.000  O
  O87      1.0000 0.98320  0.79760  0.69880  Biso   1.000  O
  O88      1.0000 0.48320  0.29760  0.69880  Biso   1.000  O
  O89      1.0000 0.83580  0.28130  0.67000  Biso   1.000  O
  O90      1.0000 0.33580  0.78130  0.67000  Biso   1.000  O
  O91      1.0000 0.16420  0.28130  0.33000  Biso   1.000  O
  O92      1.0000 0.66420  0.78130  0.33000  Biso   1.000  O
  O93      1.0000 0.16420  0.71870  0.33000  Biso   1.000  O
  O94      1.0000 0.66420  0.21870  0.33000  Biso   1.000  O
  O95      1.0000 0.83580  0.71870  0.67000  Biso   1.000  O
  O96      1.0000 0.33580  0.21870  0.67000  Biso   1.000  O
  O97      1.0000 0.09080  0.62180  0.46720  Biso   1.000  O
  O98      1.0000 0.59080  0.12180  0.46720  Biso   1.000  O
  O99      1.0000 0.90920  0.62180  0.53280  Biso   1.000  O
  O100     1.0000 0.40920  0.12180  0.53280  Biso   1.000  O
  O101     1.0000 0.90920  0.37820  0.53280  Biso   1.000  O
  O102     1.0000 0.40920  0.87820  0.53280  Biso   1.000  O
  O103     1.0000 0.09080  0.37820  0.46720  Biso   1.000  O
  O104     1.0000 0.59080  0.87820  0.46720  Biso   1.000  O
  O105     1.0000 0.10030  0.24690  0.56660  Biso   1.000  O
  O106     1.0000 0.60030  0.74690  0.56660  Biso   1.000  O
  O107     1.0000 0.89970  0.24690  0.43340  Biso   1.000  O
  O108     1.0000 0.39970  0.74690  0.43340  Biso   1.000  O
  O109     1.0000 0.89970  0.75310  0.43340  Biso   1.000  O
  O110     1.0000 0.39970  0.25310  0.43340  Biso   1.000  O
  O111     1.0000 0.10030  0.75310  0.56660  Biso   1.000  O
  O112     1.0000 0.60030  0.25310  0.56660  Biso   1.000  O
  O113     1.0000 0.22900  0.19300  0.46000  Biso   1.000  O
  O114     1.0000 0.72900  0.69300  0.46000  Biso   1.000  O
  O115     1.0000 0.77100  0.19300  0.54000  Biso   1.000  O
  O116     1.0000 0.27100  0.69300  0.54000  Biso   1.000  O
  O117     1.0000 0.77100  0.80700  0.54000  Biso   1.000  O
  O118     1.0000 0.27100  0.30700  0.54000  Biso   1.000  O
  O119     1.0000 0.22900  0.80700  0.46000  Biso   1.000  O
  O120     1.0000 0.72900  0.30700  0.46000  Biso   1.000  O
  O121     1.0000 0.00000  0.11700  0.50000  Biso   1.000  O
  O122     1.0000 0.50000  0.61700  0.50000  Biso   1.000  O
  O123     1.0000 0.00000  0.88300  0.50000  Biso   1.000  O
  O124     1.0000 0.50000  0.38300  0.50000  Biso   1.000  O
  N1       1.0000 0.06460  0.06430  0.23140  Biso   1.000  N
  N2       1.0000 0.56460  0.56430  0.23140  Biso   1.000  N
  N3       1.0000 0.93540  0.06430  0.76860  Biso   1.000  N
  N4       1.0000 0.43540  0.56430  0.76860  Biso   1.000  N
  N5       1.0000 0.93540  0.93570  0.76860  Biso   1.000  N
  N6       1.0000 0.43540  0.43570  0.76860  Biso   1.000  N
  N7       1.0000 0.06460  0.93570  0.23140  Biso   1.000  N
  N8       1.0000 0.56460  0.43570  0.23140  Biso   1.000  N
  C65      1.0000 0.15620  0.06550  0.25220  Biso   1.000  C
  C66      1.0000 0.65620  0.56550  0.25220  Biso   1.000  C
  C67      1.0000 0.84380  0.06550  0.74780  Biso   1.000  C
  C68      1.0000 0.34380  0.56550  0.74780  Biso   1.000  C
  C69      1.0000 0.84380  0.93450  0.74780  Biso   1.000  C
  C70      1.0000 0.34380  0.43450  0.74780  Biso   1.000  C
  C71      1.0000 0.15620  0.93450  0.25220  Biso   1.000  C
  C72      1.0000 0.65620  0.43450  0.25220  Biso   1.000  C
  H25      1.0000 0.16520  0.06700  0.32020  Biso   1.000  H
  H26      1.0000 0.66520  0.56700  0.32020  Biso   1.000  H
  H27      1.0000 0.83480  0.06700  0.67980  Biso   1.000  H
  H28      1.0000 0.33480  0.56700  0.67980  Biso   1.000  H
  H29      1.0000 0.83480  0.93300  0.67980  Biso   1.000  H
  H30      1.0000 0.33480  0.43300  0.67980  Biso   1.000  H
  H31      1.0000 0.16520  0.93300  0.32020  Biso   1.000  H
  H32      1.0000 0.66520  0.43300  0.32020  Biso   1.000  H
  H33      1.0000 0.18220  0.10760  0.22500  Biso   1.000  H
  H34      1.0000 0.68220  0.60760  0.22500  Biso   1.000  H
  H35      1.0000 0.81780  0.10760  0.77500  Biso   1.000  H
  H36      1.0000 0.31780  0.60760  0.77500  Biso   1.000  H
  H37      1.0000 0.81780  0.89240  0.77500  Biso   1.000  H
  H38      1.0000 0.31780  0.39240  0.77500  Biso   1.000  H
  H39      1.0000 0.18220  0.89240  0.22500  Biso   1.000  H
  H40      1.0000 0.68220  0.39240  0.22500  Biso   1.000  H
  C73      1.0000 0.18360  0.00000  0.10440  Biso   1.000  C
  C74      1.0000 0.68360  0.50000  0.10440  Biso   1.000  C
  C75      1.0000 0.81640  0.00000  0.89560  Biso   1.000  C
  C76      1.0000 0.31640  0.50000  0.89560  Biso   1.000  C
  H41      1.0000 0.21010  0.04170  0.07650  Biso   1.000  H
  H42      1.0000 0.71010  0.54170  0.07650  Biso   1.000  H
  H43      1.0000 0.78990  0.04170  0.92350  Biso   1.000  H
  H44      1.0000 0.28990  0.54170  0.92350  Biso   1.000  H
  H45      1.0000 0.78990  0.95830  0.92350  Biso   1.000  H
  H46      1.0000 0.28990  0.45830  0.92350  Biso   1.000  H
  H47      1.0000 0.21010  0.95830  0.07650  Biso   1.000  H
  H48      1.0000 0.71010  0.45830  0.07650  Biso   1.000  H
  C77      1.0000 0.05110  0.06360  0.12820  Biso   1.000  C
  C78      1.0000 0.55110  0.56360  0.12820  Biso   1.000  C
  C79      1.0000 0.94890  0.06360  0.87180  Biso   1.000  C
  C80      1.0000 0.44890  0.56360  0.87180  Biso   1.000  C
  C81      1.0000 0.94890  0.93640  0.87180  Biso   1.000  C
  C82      1.0000 0.44890  0.43640  0.87180  Biso   1.000  C
  C83      1.0000 0.05110  0.93640  0.12820  Biso   1.000  C
  C84      1.0000 0.55110  0.43640  0.12820  Biso   1.000  C
  H49      1.0000 0.07590  0.10610  0.10070  Biso   1.000  H
  H50      1.0000 0.57590  0.60610  0.10070  Biso   1.000  H
  H51      1.0000 0.92410  0.10610  0.89930  Biso   1.000  H
  H52      1.0000 0.42410  0.60610  0.89930  Biso   1.000  H
  H53      1.0000 0.92410  0.89390  0.89930  Biso   1.000  H
  H54      1.0000 0.42410  0.39390  0.89930  Biso   1.000  H
  H55      1.0000 0.07590  0.89390  0.10070  Biso   1.000  H
  H56      1.0000 0.57590  0.39390  0.10070  Biso   1.000  H
  H57      1.0000 0.98930  0.06330  0.11420  Biso   1.000  H
  H58      1.0000 0.48930  0.56330  0.11420  Biso   1.000  H
  H59      1.0000 0.01070  0.06330  0.88580  Biso   1.000  H
  H60      1.0000 0.51070  0.56330  0.88580  Biso   1.000  H
  H61      1.0000 0.01070  0.93670  0.88580  Biso   1.000  H
  H62      1.0000 0.51070  0.43670  0.88580  Biso   1.000  H
  H63      1.0000 0.98930  0.93670  0.11420  Biso   1.000  H
  H64      1.0000 0.48930  0.43670  0.11420  Biso   1.000  H
  C85      1.0000 0.02590  0.00000  0.27130  Biso   1.000  C
  C86      1.0000 0.52590  0.50000  0.27130  Biso   1.000  C
  C87      1.0000 0.97410  0.00000  0.72870  Biso   1.000  C
  C88      1.0000 0.47410  0.50000  0.72870  Biso   1.000  C
  H65      1.0000 0.03410  0.00000  0.33940  Biso   1.000  H
  H66      1.0000 0.53410  0.50000  0.33940  Biso   1.000  H
  H67      1.0000 0.96590  0.00000  0.66060  Biso   1.000  H
  H68      1.0000 0.46590  0.50000  0.66060  Biso   1.000  H
  H69      1.0000 0.96380  0.00000  0.25850  Biso   1.000  H
  H70      1.0000 0.46380  0.50000  0.25850  Biso   1.000  H
  H71      1.0000 0.03620  0.00000  0.74150  Biso   1.000  H
  H72      1.0000 0.53620  0.50000  0.74150  Biso   1.000  H
  N9       1.0000 0.19930  0.00000  0.21190  Biso   1.000  N
  N10      1.0000 0.69930  0.50000  0.21190  Biso   1.000  N
  N11      1.0000 0.80070  0.00000  0.78810  Biso   1.000  N
  N12      1.0000 0.30070  0.50000  0.78810  Biso   1.000  N
  N13      1.0000 0.09240  0.00000  0.08560  Biso   1.000  N
  N14      1.0000 0.59240  0.50000  0.08560  Biso   1.000  N
  N15      1.0000 0.90760  0.00000  0.91440  Biso   1.000  N
  N16      1.0000 0.40760  0.50000  0.91440  Biso   1.000  N
