data_image0
_cell_length_a       9.6367
_cell_length_b       12.155
_cell_length_c       13.0771
_cell_angle_alpha    71.59
_cell_angle_beta     76.463
_cell_angle_gamma    68.69

_symmetry_space_group_name_H-M    "P 1"
_symmetry_int_tables_number       1

loop_
  _symmetry_equiv_pos_as_xyz
  'x, y, z'

loop_
  _atom_site_label
  _atom_site_occupancy
  _atom_site_fract_x
  _atom_site_fract_y
  _atom_site_fract_z
  _atom_site_thermal_displace_type
  _atom_site_B_iso_or_equiv
  _atom_site_type_symbol
  Cd1      1.0000 0.76711  0.75270  0.86678  Biso   1.000  Cd
  Cd2      1.0000 0.23289  0.24730  0.13322  Biso   1.000  Cd
  Cd3      1.0000 0.00000  0.50000  0.00000  Biso   1.000  Cd
  Cu1      1.0000 0.78498  0.79595  0.42670  Biso   1.000  Cu
  Cu2      1.0000 0.21502  0.20405  0.57330  Biso   1.000  Cu
  S1       1.0000 0.50780  0.76400  0.09272  Biso   1.000  S
  S2       1.0000 0.49220  0.23600  0.90728  Biso   1.000  S
  O1       1.0000 0.91870  0.70450  0.71290  Biso   1.000  O
  O2       1.0000 0.08130  0.29550  0.28710  Biso   1.000  O
  O3       1.0000 0.61860  0.80990  0.73180  Biso   1.000  O
  O4       1.0000 0.38140  0.19010  0.26820  Biso   1.000  O
  O5       1.0000 0.56190  0.81810  0.98020  Biso   1.000  O
  O6       1.0000 0.43810  0.18190  0.01980  Biso   1.000  O
  O7       1.0000 0.39830  0.85630  0.14130  Biso   1.000  O
  O8       1.0000 0.60170  0.14370  0.85870  Biso   1.000  O
  O9       1.0000 0.62790  0.68790  0.15590  Biso   1.000  O
  O10      1.0000 0.37210  0.31210  0.84410  Biso   1.000  O
  O11      1.0000 0.04950  0.83360  0.91790  Biso   1.000  O
  O12      1.0000 0.95050  0.16640  0.08210  Biso   1.000  O
  O13      1.0000 0.97420  0.67450  0.96360  Biso   1.000  O
  O14      1.0000 0.02580  0.32550  0.03640  Biso   1.000  O
  O15      1.0000 0.17630  0.45270  0.06830  Biso   1.000  O
  O16      1.0000 0.82370  0.54730  0.93170  Biso   1.000  O
  O17      1.0000 0.80540  0.93650  0.82300  Biso   1.000  O
  O18      1.0000 0.19460  0.06350  0.17700  Biso   1.000  O
  H1       1.0000 0.89140  0.92500  0.83830  Biso   1.000  H
  H2       1.0000 0.10860  0.07500  0.16170  Biso   1.000  H
  H3       1.0000 0.73040  0.98130  0.85600  Biso   1.000  H
  H4       1.0000 0.26960  0.01870  0.14400  Biso   1.000  H
  O19      1.0000 0.16400  0.52650  0.83440  Biso   1.000  O
  O20      1.0000 0.83600  0.47350  0.16560  Biso   1.000  O
  H5       1.0000 0.16920  0.52030  0.77050  Biso   1.000  H
  H6       1.0000 0.83080  0.47970  0.22950  Biso   1.000  H
  H7       1.0000 0.24380  0.49190  0.86410  Biso   1.000  H
  H8       1.0000 0.75620  0.50810  0.13590  Biso   1.000  H
  N1       1.0000 0.91290  0.69500  0.54000  Biso   1.000  N
  N2       1.0000 0.08710  0.30500  0.46000  Biso   1.000  N
  N3       1.0000 0.62570  0.80910  0.55360  Biso   1.000  N
  N4       1.0000 0.37430  0.19090  0.44640  Biso   1.000  N
  N5       1.0000 0.63720  0.89320  0.32260  Biso   1.000  N
  N6       1.0000 0.36280  0.10680  0.67740  Biso   1.000  N
  N7       1.0000 0.96950  0.79870  0.31800  Biso   1.000  N
  N8       1.0000 0.03050  0.20130  0.68200  Biso   1.000  N
  C1       1.0000 0.85320  0.72600  0.63320  Biso   1.000  C
  C2       1.0000 0.14680  0.27400  0.36680  Biso   1.000  C
  C3       1.0000 0.68460  0.78940  0.64250  Biso   1.000  C
  C4       1.0000 0.31540  0.21060  0.35750  Biso   1.000  C
  C5       1.0000 0.47050  0.83450  0.55600  Biso   1.000  C
  C6       1.0000 0.52950  0.16550  0.44400  Biso   1.000  C
  C7       1.0000 0.37400  0.80740  0.65060  Biso   1.000  C
  C8       1.0000 0.62600  0.19260  0.34940  Biso   1.000  C
  H9       1.0000 0.41040  0.77670  0.71730  Biso   1.000  H
  H10      1.0000 0.58960  0.22330  0.28270  Biso   1.000  H
  C9       1.0000 0.22460  0.82510  0.64730  Biso   1.000  C
  C10      1.0000 0.77540  0.17490  0.35270  Biso   1.000  C
  H11      1.0000 0.16260  0.80520  0.71160  Biso   1.000  H
  H12      1.0000 0.83740  0.19480  0.28840  Biso   1.000  H
  C11      1.0000 0.16680  0.87140  0.55090  Biso   1.000  C
  C12      1.0000 0.83320  0.12860  0.44910  Biso   1.000  C
  H13      1.0000 0.06610  0.88400  0.54960  Biso   1.000  H
  H14      1.0000 0.93390  0.11600  0.45040  Biso   1.000  H
  C13      1.0000 0.25990  0.89940  0.45550  Biso   1.000  C
  C14      1.0000 0.74010  0.10060  0.54450  Biso   1.000  C
  H15      1.0000 0.22090  0.93140  0.38980  Biso   1.000  H
  H16      1.0000 0.77910  0.06860  0.61020  Biso   1.000  H
  C15      1.0000 0.41140  0.88040  0.45610  Biso   1.000  C
  C16      1.0000 0.58860  0.11960  0.54390  Biso   1.000  C
  C17      1.0000 0.49660  0.91170  0.34860  Biso   1.000  C
  C18      1.0000 0.50340  0.08830  0.65140  Biso   1.000  C
  H17      1.0000 0.43970  0.95060  0.29130  Biso   1.000  H
  H18      1.0000 0.56030  0.04940  0.70870  Biso   1.000  H
  C19      1.0000 0.67630  0.94890  0.20520  Biso   1.000  C
  C20      1.0000 0.32370  0.05110  0.79480  Biso   1.000  C
  H19      1.0000 0.66590  0.03380  0.19580  Biso   1.000  H
  H20      1.0000 0.33410  0.96620  0.80420  Biso   1.000  H
  H21      1.0000 0.60510  0.94710  0.16470  Biso   1.000  H
  H22      1.0000 0.39490  0.05290  0.83530  Biso   1.000  H
  C21      1.0000 0.83340  0.88580  0.15820  Biso   1.000  C
  C22      1.0000 0.16660  0.11420  0.84180  Biso   1.000  C
  H23      1.0000 0.84860  0.92430  0.08100  Biso   1.000  H
  H24      1.0000 0.15140  0.07570  0.91900  Biso   1.000  H
  H25      1.0000 0.84330  0.80130  0.16610  Biso   1.000  H
  H26      1.0000 0.15670  0.19870  0.83390  Biso   1.000  H
  C23      1.0000 0.95490  0.88940  0.21200  Biso   1.000  C
  C24      1.0000 0.04510  0.11060  0.78800  Biso   1.000  C
  H27      1.0000 0.05020  0.87290  0.16500  Biso   1.000  H
  H28      1.0000 0.94980  0.12710  0.83500  Biso   1.000  H
  H29      1.0000 0.93010  0.97040  0.22230  Biso   1.000  H
  H30      1.0000 0.06990  0.02960  0.77770  Biso   1.000  H
  C25      1.0000 0.10140  0.72710  0.33270  Biso   1.000  C
  C26      1.0000 0.89860  0.27290  0.66730  Biso   1.000  C
  H31      1.0000 0.17680  0.73920  0.27530  Biso   1.000  H
  H32      1.0000 0.82320  0.26080  0.72470  Biso   1.000  H
  C27      1.0000 0.14980  0.62950  0.42690  Biso   1.000  C
  C28      1.0000 0.85020  0.37050  0.57310  Biso   1.000  C
  C29      1.0000 0.29580  0.54990  0.41540  Biso   1.000  C
  C30      1.0000 0.70420  0.45010  0.58460  Biso   1.000  C
  H33      1.0000 0.35690  0.56230  0.34900  Biso   1.000  H
  H34      1.0000 0.64310  0.43770  0.65100  Biso   1.000  H
  C31      1.0000 0.35110  0.45390  0.49990  Biso   1.000  C
  C32      1.0000 0.64890  0.54610  0.50010  Biso   1.000  C
  H35      1.0000 0.44870  0.40160  0.49070  Biso   1.000  H
  H36      1.0000 0.55130  0.59840  0.50930  Biso   1.000  H
  C33      1.0000 0.26250  0.43530  0.59780  Biso   1.000  C
  C34      1.0000 0.73750  0.56470  0.40220  Biso   1.000  C
  H37      1.0000 0.29920  0.37050  0.65570  Biso   1.000  H
  H38      1.0000 0.70080  0.62950  0.34430  Biso   1.000  H
  C35      1.0000 0.11510  0.51520  0.61000  Biso   1.000  C
  C36      1.0000 0.88490  0.48480  0.39000  Biso   1.000  C
  H39      1.0000 0.05380  0.50080  0.67590  Biso   1.000  H
  H40      1.0000 0.94620  0.49920  0.32410  Biso   1.000  H
  C37      1.0000 0.05960  0.61290  0.52810  Biso   1.000  C
  C38      1.0000 0.94040  0.38710  0.47190  Biso   1.000  C
  C39      1.0000 0.41150  0.66950  0.08350  Biso   1.000  C
  C40      1.0000 0.58850  0.33050  0.91650  Biso   1.000  C
  C41      1.0000 0.28650  0.72330  0.02940  Biso   1.000  C
  C42      1.0000 0.71350  0.27670  0.97060  Biso   1.000  C
  H41      1.0000 0.25810  0.80680  0.99700  Biso   1.000  H
  H42      1.0000 0.74190  0.19320  0.00300  Biso   1.000  H
  C43      1.0000 0.20260  0.65420  0.02260  Biso   1.000  C
  C44      1.0000 0.79740  0.34580  0.97740  Biso   1.000  C
  C45      1.0000 0.24620  0.52800  0.07060  Biso   1.000  C
  C46      1.0000 0.75380  0.47200  0.92940  Biso   1.000  C
  C47      1.0000 0.37500  0.47530  0.12420  Biso   1.000  C
  C48      1.0000 0.62500  0.52470  0.87580  Biso   1.000  C
  H43      1.0000 0.40610  0.39150  0.15510  Biso   1.000  H
  H44      1.0000 0.59390  0.60850  0.84490  Biso   1.000  H
  C49      1.0000 0.45630  0.54470  0.13200  Biso   1.000  C
  C50      1.0000 0.54370  0.45530  0.86800  Biso   1.000  C
  H45      1.0000 0.53970  0.50860  0.16920  Biso   1.000  H
  H46      1.0000 0.46030  0.49140  0.83080  Biso   1.000  H
  C51      1.0000 0.06820  0.72480  0.96330  Biso   1.000  C
  C52      1.0000 0.93180  0.27520  0.03670  Biso   1.000  C
