data_image0
_cell_length_a       14.799
_cell_length_b       10.725
_cell_length_c       13.689
_cell_angle_alpha    90
_cell_angle_beta     112.04
_cell_angle_gamma    90

_symmetry_space_group_name_H-M    "P 1"
_symmetry_int_tables_number       1

loop_
  _symmetry_equiv_pos_as_xyz
  'x, y, z'

loop_
  _atom_site_label
  _atom_site_occupancy
  _atom_site_fract_x
  _atom_site_fract_y
  _atom_site_fract_z
  _atom_site_thermal_displace_type
  _atom_site_B_iso_or_equiv
  _atom_site_type_symbol
  Cu1      1.0000 0.70406  0.07530  0.45571  Biso   1.000  Cu
  Cu2      1.0000 0.70406  0.92470  0.95571  Biso   1.000  Cu
  Cu3      1.0000 0.20406  0.57530  0.45571  Biso   1.000  Cu
  Cu4      1.0000 0.20406  0.42470  0.95571  Biso   1.000  Cu
  O1       1.0000 0.62372  0.01940  0.53603  Biso   1.000  O
  O2       1.0000 0.62372  0.98060  0.03603  Biso   1.000  O
  O3       1.0000 0.12372  0.51940  0.53603  Biso   1.000  O
  O4       1.0000 0.12372  0.48060  0.03603  Biso   1.000  O
  O5       1.0000 0.59369  0.94710  0.82290  Biso   1.000  O
  O6       1.0000 0.59369  0.05290  0.32290  Biso   1.000  O
  O7       1.0000 0.09369  0.44710  0.82290  Biso   1.000  O
  O8       1.0000 0.09369  0.55290  0.32290  Biso   1.000  O
  O9       1.0000 0.56628  0.21140  0.49720  Biso   1.000  O
  O10      1.0000 0.56628  0.78860  0.99720  Biso   1.000  O
  O11      1.0000 0.06628  0.71140  0.49720  Biso   1.000  O
  O12      1.0000 0.06628  0.28860  0.99720  Biso   1.000  O
  N1       1.0000 0.81680  0.13250  0.58260  Biso   1.000  N
  N2       1.0000 0.81680  0.86750  0.08260  Biso   1.000  N
  N3       1.0000 0.31680  0.63250  0.58260  Biso   1.000  N
  N4       1.0000 0.31680  0.36750  0.08260  Biso   1.000  N
  C1       1.0000 0.38640  0.07200  0.47750  Biso   1.000  C
  C2       1.0000 0.38640  0.92800  0.97750  Biso   1.000  C
  C3       1.0000 0.88640  0.57200  0.47750  Biso   1.000  C
  C4       1.0000 0.88640  0.42800  0.97750  Biso   1.000  C
  H1       1.0000 0.38020  0.09960  0.41080  Biso   1.000  H
  H2       1.0000 0.38020  0.90040  0.91080  Biso   1.000  H
  H3       1.0000 0.88020  0.59960  0.41080  Biso   1.000  H
  H4       1.0000 0.88020  0.40040  0.91080  Biso   1.000  H
  N5       1.0000 0.78940  0.15210  0.38460  Biso   1.000  N
  N6       1.0000 0.78940  0.84790  0.88460  Biso   1.000  N
  N7       1.0000 0.28940  0.65210  0.38460  Biso   1.000  N
  N8       1.0000 0.28940  0.34790  0.88460  Biso   1.000  N
  C5       1.0000 0.56250  0.10470  0.53100  Biso   1.000  C
  C6       1.0000 0.56250  0.89530  0.03100  Biso   1.000  C
  C7       1.0000 0.06250  0.60470  0.53100  Biso   1.000  C
  C8       1.0000 0.06250  0.39530  0.03100  Biso   1.000  C
  O13      1.0000 0.64027  0.11650  0.75797  Biso   1.000  O
  O14      1.0000 0.64027  0.88350  0.25797  Biso   1.000  O
  O15      1.0000 0.14027  0.61650  0.75797  Biso   1.000  O
  O16      1.0000 0.14027  0.38350  0.25797  Biso   1.000  O
  C9       1.0000 0.47730  0.06850  0.55860  Biso   1.000  C
  C10      1.0000 0.47730  0.93150  0.05860  Biso   1.000  C
  C11      1.0000 0.97730  0.56850  0.55860  Biso   1.000  C
  C12      1.0000 0.97730  0.43150  0.05860  Biso   1.000  C
  C13      1.0000 0.89560  0.17070  0.56360  Biso   1.000  C
  C14      1.0000 0.89560  0.82930  0.06360  Biso   1.000  C
  C15      1.0000 0.39560  0.67070  0.56360  Biso   1.000  C
  C16      1.0000 0.39560  0.32930  0.06360  Biso   1.000  C
  C17      1.0000 0.30490  0.03390  0.49650  Biso   1.000  C
  C18      1.0000 0.30490  0.96610  0.99650  Biso   1.000  C
  C19      1.0000 0.80490  0.53390  0.49650  Biso   1.000  C
  C20      1.0000 0.80490  0.46610  0.99650  Biso   1.000  C
  C21      1.0000 0.31420  0.99080  0.59670  Biso   1.000  C
  C22      1.0000 0.31420  0.00920  0.09670  Biso   1.000  C
  C23      1.0000 0.81420  0.49080  0.59670  Biso   1.000  C
  C24      1.0000 0.81420  0.50920  0.09670  Biso   1.000  C
  O17      1.0000 0.76530  0.87730  0.46990  Biso   1.000  O
  O18      1.0000 0.76530  0.12270  0.96990  Biso   1.000  O
  O19      1.0000 0.26530  0.37730  0.46990  Biso   1.000  O
  O20      1.0000 0.26530  0.62270  0.96990  Biso   1.000  O
  N9       1.0000 0.22090  0.96250  0.58830  Biso   1.000  N
  N10      1.0000 0.22090  0.03750  0.08830  Biso   1.000  N
  N11      1.0000 0.72090  0.46250  0.58830  Biso   1.000  N
  N12      1.0000 0.72090  0.53750  0.08830  Biso   1.000  N
  H5       1.0000 0.20350  0.93390  0.63730  Biso   1.000  H
  H6       1.0000 0.20350  0.06610  0.13730  Biso   1.000  H
  H7       1.0000 0.70350  0.43390  0.63730  Biso   1.000  H
  H8       1.0000 0.70350  0.56610  0.13730  Biso   1.000  H
  C25      1.0000 0.58090  0.03130  0.75290  Biso   1.000  C
  C26      1.0000 0.58090  0.96870  0.25290  Biso   1.000  C
  C27      1.0000 0.08090  0.53130  0.75290  Biso   1.000  C
  C28      1.0000 0.08090  0.46870  0.25290  Biso   1.000  C
  C29      1.0000 0.40430  0.98640  0.67830  Biso   1.000  C
  C30      1.0000 0.40430  0.01360  0.17830  Biso   1.000  C
  C31      1.0000 0.90430  0.48640  0.67830  Biso   1.000  C
  C32      1.0000 0.90430  0.51360  0.17830  Biso   1.000  C
  H9       1.0000 0.41000  0.95800  0.74460  Biso   1.000  H
  H10      1.0000 0.41000  0.04200  0.24460  Biso   1.000  H
  H11      1.0000 0.91000  0.45800  0.74460  Biso   1.000  H
  H12      1.0000 0.91000  0.54200  0.24460  Biso   1.000  H
  C33      1.0000 0.16230  0.98840  0.48860  Biso   1.000  C
  C34      1.0000 0.16230  0.01160  0.98860  Biso   1.000  C
  C35      1.0000 0.66230  0.48840  0.48860  Biso   1.000  C
  C36      1.0000 0.66230  0.51160  0.98860  Biso   1.000  C
  H13      1.0000 0.09510  0.97760  0.46350  Biso   1.000  H
  H14      1.0000 0.09510  0.02240  0.96350  Biso   1.000  H
  H15      1.0000 0.59510  0.47760  0.46350  Biso   1.000  H
  H16      1.0000 0.59510  0.52240  0.96350  Biso   1.000  H
  C37      1.0000 0.48570  0.02480  0.66000  Biso   1.000  C
  C38      1.0000 0.48570  0.97520  0.16000  Biso   1.000  C
  C39      1.0000 0.98570  0.52480  0.66000  Biso   1.000  C
  C40      1.0000 0.98570  0.47520  0.16000  Biso   1.000  C
  C41      1.0000 0.87960  0.18390  0.44970  Biso   1.000  C
  C42      1.0000 0.87960  0.81610  0.94970  Biso   1.000  C
  C43      1.0000 0.37960  0.68390  0.44970  Biso   1.000  C
  C44      1.0000 0.37960  0.31610  0.94970  Biso   1.000  C
  C45      1.0000 0.99010  0.18070  0.74730  Biso   1.000  C
  C46      1.0000 0.99010  0.81930  0.24730  Biso   1.000  C
  C47      1.0000 0.49010  0.68070  0.74730  Biso   1.000  C
  C48      1.0000 0.49010  0.31930  0.24730  Biso   1.000  C
  H17      1.0000 0.04860  0.19630  0.80300  Biso   1.000  H
  H18      1.0000 0.04860  0.80370  0.30300  Biso   1.000  H
  H19      1.0000 0.54860  0.69630  0.80300  Biso   1.000  H
  H20      1.0000 0.54860  0.30370  0.30300  Biso   1.000  H
  N13      1.0000 0.20760  0.03000  0.42990  Biso   1.000  N
  N14      1.0000 0.20760  0.97000  0.92990  Biso   1.000  N
  N15      1.0000 0.70760  0.53000  0.42990  Biso   1.000  N
  N16      1.0000 0.70760  0.47000  0.92990  Biso   1.000  N
  C49      1.0000 0.76700  0.16150  0.28030  Biso   1.000  C
  C50      1.0000 0.76700  0.83850  0.78030  Biso   1.000  C
  C51      1.0000 0.26700  0.66150  0.28030  Biso   1.000  C
  C52      1.0000 0.26700  0.33850  0.78030  Biso   1.000  C
  H21      1.0000 0.70440  0.14060  0.23440  Biso   1.000  H
  H22      1.0000 0.70440  0.85940  0.73440  Biso   1.000  H
  H23      1.0000 0.20440  0.64060  0.23440  Biso   1.000  H
  H24      1.0000 0.20440  0.35940  0.73440  Biso   1.000  H
  C53      1.0000 0.90910  0.14330  0.76630  Biso   1.000  C
  C54      1.0000 0.90910  0.85670  0.26630  Biso   1.000  C
  C55      1.0000 0.40910  0.64330  0.76630  Biso   1.000  C
  C56      1.0000 0.40910  0.35670  0.26630  Biso   1.000  C
  H25      1.0000 0.91200  0.13370  0.83490  Biso   1.000  H
  H26      1.0000 0.91200  0.86630  0.33490  Biso   1.000  H
  H27      1.0000 0.41200  0.63370  0.83490  Biso   1.000  H
  H28      1.0000 0.41200  0.36630  0.33490  Biso   1.000  H
  C57      1.0000 0.82320  0.12040  0.68120  Biso   1.000  C
  C58      1.0000 0.82320  0.87960  0.18120  Biso   1.000  C
  C59      1.0000 0.32320  0.62040  0.68120  Biso   1.000  C
  C60      1.0000 0.32320  0.37960  0.18120  Biso   1.000  C
  H29      1.0000 0.76830  0.09580  0.69380  Biso   1.000  H
  H30      1.0000 0.76830  0.90420  0.19380  Biso   1.000  H
  H31      1.0000 0.26830  0.59580  0.69380  Biso   1.000  H
  H32      1.0000 0.26830  0.40420  0.19380  Biso   1.000  H
  C61      1.0000 0.98350  0.19450  0.64590  Biso   1.000  C
  C62      1.0000 0.98350  0.80550  0.14590  Biso   1.000  C
  C63      1.0000 0.48350  0.69450  0.64590  Biso   1.000  C
  C64      1.0000 0.48350  0.30550  0.14590  Biso   1.000  C
  H33      1.0000 0.03760  0.21970  0.63190  Biso   1.000  H
  H34      1.0000 0.03760  0.78030  0.13190  Biso   1.000  H
  H35      1.0000 0.53760  0.71970  0.63190  Biso   1.000  H
  H36      1.0000 0.53760  0.28030  0.13190  Biso   1.000  H
  C65      1.0000 0.83500  0.20160  0.23920  Biso   1.000  C
  C66      1.0000 0.83500  0.79840  0.73920  Biso   1.000  C
  C67      1.0000 0.33500  0.70160  0.23920  Biso   1.000  C
  C68      1.0000 0.33500  0.29840  0.73920  Biso   1.000  C
  H37      1.0000 0.81830  0.20720  0.16670  Biso   1.000  H
  H38      1.0000 0.81830  0.79280  0.66670  Biso   1.000  H
  H39      1.0000 0.31830  0.70720  0.16670  Biso   1.000  H
  H40      1.0000 0.31830  0.29280  0.66670  Biso   1.000  H
  C69      1.0000 0.95000  0.22440  0.41490  Biso   1.000  C
  C70      1.0000 0.95000  0.77560  0.91490  Biso   1.000  C
  C71      1.0000 0.45000  0.72440  0.41490  Biso   1.000  C
  C72      1.0000 0.45000  0.27560  0.91490  Biso   1.000  C
  H41      1.0000 0.01180  0.24590  0.46210  Biso   1.000  H
  H42      1.0000 0.01180  0.75410  0.96210  Biso   1.000  H
  H43      1.0000 0.51180  0.74590  0.46210  Biso   1.000  H
  H44      1.0000 0.51180  0.25410  0.96210  Biso   1.000  H
  C73      1.0000 0.92610  0.23240  0.30660  Biso   1.000  C
  C74      1.0000 0.92610  0.76760  0.80660  Biso   1.000  C
  C75      1.0000 0.42610  0.73240  0.30660  Biso   1.000  C
  C76      1.0000 0.42610  0.26760  0.80660  Biso   1.000  C
  H45      1.0000 0.97260  0.25870  0.28040  Biso   1.000  H
  H46      1.0000 0.97260  0.74130  0.78040  Biso   1.000  H
  H47      1.0000 0.47260  0.75870  0.28040  Biso   1.000  H
  H48      1.0000 0.47260  0.24130  0.78040  Biso   1.000  H
  H49      1.0000 0.74400  0.84600  0.40830  Biso   1.000  H
  H50      1.0000 0.74400  0.15400  0.90830  Biso   1.000  H
  H51      1.0000 0.24400  0.34600  0.40830  Biso   1.000  H
  H52      1.0000 0.24400  0.65400  0.90830  Biso   1.000  H
  H53      1.0000 0.82420  0.88700  0.47900  Biso   1.000  H
  H54      1.0000 0.82420  0.11300  0.97900  Biso   1.000  H
  H55      1.0000 0.32420  0.38700  0.47900  Biso   1.000  H
  H56      1.0000 0.32420  0.61300  0.97900  Biso   1.000  H
  O21      1.0000 0.46440  0.39510  0.54030  Biso   1.000  O
  O22      1.0000 0.46440  0.60490  0.04030  Biso   1.000  O
  O23      1.0000 0.96440  0.89510  0.54030  Biso   1.000  O
  O24      1.0000 0.96440  0.10490  0.04030  Biso   1.000  O
  H57      1.0000 0.49000  0.33300  0.53200  Biso   1.000  H
  H58      1.0000 0.49000  0.66700  0.03200  Biso   1.000  H
  H59      1.0000 0.99000  0.83300  0.53200  Biso   1.000  H
  H60      1.0000 0.99000  0.16700  0.03200  Biso   1.000  H
  H61      1.0000 0.49100  0.40200  0.59900  Biso   1.000  H
  H62      1.0000 0.49100  0.59800  0.09900  Biso   1.000  H
  H63      1.0000 0.99100  0.90200  0.59900  Biso   1.000  H
  H64      1.0000 0.99100  0.09800  0.09900  Biso   1.000  H
  O25      1.0000 0.63820  0.37630  0.72760  Biso   1.000  O
  O26      1.0000 0.63820  0.62370  0.22760  Biso   1.000  O
  O27      1.0000 0.13820  0.87630  0.72760  Biso   1.000  O
  O28      1.0000 0.13820  0.12370  0.22760  Biso   1.000  O
  H65      1.0000 0.67100  0.39200  0.78600  Biso   1.000  H
  H66      1.0000 0.67100  0.60800  0.28600  Biso   1.000  H
  H67      1.0000 0.17100  0.89200  0.78600  Biso   1.000  H
  H68      1.0000 0.17100  0.10800  0.28600  Biso   1.000  H
  H69      1.0000 0.63000  0.29800  0.72400  Biso   1.000  H
  H70      1.0000 0.63000  0.70200  0.22400  Biso   1.000  H
  H71      1.0000 0.13000  0.79800  0.72400  Biso   1.000  H
  H72      1.0000 0.13000  0.20200  0.22400  Biso   1.000  H
