data_image0
_cell_length_a       9.5848
_cell_length_b       14.6574
_cell_length_c       18.2114
_cell_angle_alpha    90
_cell_angle_beta     97.655
_cell_angle_gamma    90

_symmetry_space_group_name_H-M    "P 1"
_symmetry_int_tables_number       1

loop_
  _symmetry_equiv_pos_as_xyz
  'x, y, z'

loop_
  _atom_site_label
  _atom_site_occupancy
  _atom_site_fract_x
  _atom_site_fract_y
  _atom_site_fract_z
  _atom_site_thermal_displace_type
  _atom_site_B_iso_or_equiv
  _atom_site_type_symbol
  Cu1      1.0000 0.86697  0.79227  0.38814  Biso   1.000  Cu
  Cu2      1.0000 0.63303  0.29227  0.11186  Biso   1.000  Cu
  Cu3      1.0000 0.13303  0.20773  0.61186  Biso   1.000  Cu
  Cu4      1.0000 0.36697  0.70773  0.88814  Biso   1.000  Cu
  C1       1.0000 0.73070  0.76370  0.59312  Biso   1.000  C
  C2       1.0000 0.76930  0.26370  0.90688  Biso   1.000  C
  C3       1.0000 0.26930  0.23630  0.40688  Biso   1.000  C
  C4       1.0000 0.23070  0.73630  0.09312  Biso   1.000  C
  C5       1.0000 0.81850  0.75550  0.66023  Biso   1.000  C
  C6       1.0000 0.68150  0.25550  0.83977  Biso   1.000  C
  C7       1.0000 0.18150  0.24450  0.33977  Biso   1.000  C
  C8       1.0000 0.31850  0.74450  0.16023  Biso   1.000  C
  C9       1.0000 0.76490  0.76460  0.72773  Biso   1.000  C
  C10      1.0000 0.73510  0.26460  0.77227  Biso   1.000  C
  C11      1.0000 0.23510  0.23540  0.27227  Biso   1.000  C
  C12      1.0000 0.26490  0.73540  0.22773  Biso   1.000  C
  C13      1.0000 0.62100  0.78070  0.72732  Biso   1.000  C
  C14      1.0000 0.87900  0.28070  0.77268  Biso   1.000  C
  C15      1.0000 0.37900  0.21930  0.27268  Biso   1.000  C
  C16      1.0000 0.12100  0.71930  0.22732  Biso   1.000  C
  C17      1.0000 0.53370  0.79210  0.66034  Biso   1.000  C
  C18      1.0000 0.96630  0.29210  0.83966  Biso   1.000  C
  C19      1.0000 0.46630  0.20790  0.33966  Biso   1.000  C
  C20      1.0000 0.03370  0.70790  0.16034  Biso   1.000  C
  C21      1.0000 0.58740  0.78450  0.59301  Biso   1.000  C
  C22      1.0000 0.91260  0.28450  0.90699  Biso   1.000  C
  C23      1.0000 0.41260  0.21550  0.40699  Biso   1.000  C
  C24      1.0000 0.08740  0.71550  0.09301  Biso   1.000  C
  C25      1.0000 0.79470  0.75010  0.52196  Biso   1.000  C
  C26      1.0000 0.70530  0.25010  0.97804  Biso   1.000  C
  C27      1.0000 0.20530  0.24990  0.47804  Biso   1.000  C
  C28      1.0000 0.29470  0.74990  0.02196  Biso   1.000  C
  C29      1.0000 0.97420  0.73580  0.66195  Biso   1.000  C
  C30      1.0000 0.52580  0.23580  0.83805  Biso   1.000  C
  C31      1.0000 0.02580  0.26420  0.33805  Biso   1.000  C
  C32      1.0000 0.47420  0.76420  0.16195  Biso   1.000  C
  C33      1.0000 0.86490  0.76580  0.79914  Biso   1.000  C
  C34      1.0000 0.63510  0.26580  0.70086  Biso   1.000  C
  C35      1.0000 0.13510  0.23420  0.20086  Biso   1.000  C
  C36      1.0000 0.36490  0.73420  0.29914  Biso   1.000  C
  C37      1.0000 0.55720  0.78400  0.79873  Biso   1.000  C
  C38      1.0000 0.94280  0.28400  0.70127  Biso   1.000  C
  C39      1.0000 0.44280  0.21600  0.20127  Biso   1.000  C
  C40      1.0000 0.05720  0.71600  0.29873  Biso   1.000  C
  C41      1.0000 0.38100  0.81480  0.66493  Biso   1.000  C
  C42      1.0000 0.11900  0.31480  0.83507  Biso   1.000  C
  C43      1.0000 0.61900  0.18520  0.33507  Biso   1.000  C
  C44      1.0000 0.88100  0.68520  0.16493  Biso   1.000  C
  C45      1.0000 0.49130  0.80430  0.52138  Biso   1.000  C
  C46      1.0000 0.00870  0.30430  0.97862  Biso   1.000  C
  C47      1.0000 0.50870  0.19570  0.47862  Biso   1.000  C
  C48      1.0000 0.99130  0.69570  0.02138  Biso   1.000  C
  O1       1.0000 0.76350  0.81014  0.47214  Biso   1.000  O
  O2       1.0000 0.73650  0.31014  0.02786  Biso   1.000  O
  O3       1.0000 0.23650  0.18986  0.52786  Biso   1.000  O
  O4       1.0000 0.26350  0.68986  0.97214  Biso   1.000  O
  O5       1.0000 0.87350  0.68448  0.51774  Biso   1.000  O
  O6       1.0000 0.62650  0.18448  0.98226  Biso   1.000  O
  O7       1.0000 0.12650  0.31552  0.48226  Biso   1.000  O
  O8       1.0000 0.37350  0.81552  0.01774  Biso   1.000  O
  O9       1.0000 0.04270  0.79602  0.63185  Biso   1.000  O
  O10      1.0000 0.45730  0.29602  0.86815  Biso   1.000  O
  O11      1.0000 0.95730  0.20398  0.36815  Biso   1.000  O
  O12      1.0000 0.54270  0.70398  0.13185  Biso   1.000  O
  O13      1.0000 0.02260  0.66500  0.69292  Biso   1.000  O
  O14      1.0000 0.47740  0.16500  0.80708  Biso   1.000  O
  O15      1.0000 0.97740  0.33500  0.30708  Biso   1.000  O
  O16      1.0000 0.52260  0.83500  0.19292  Biso   1.000  O
  O17      1.0000 0.96890  0.81403  0.80360  Biso   1.000  O
  O18      1.0000 0.53110  0.31403  0.69640  Biso   1.000  O
  O19      1.0000 0.03110  0.18597  0.19640  Biso   1.000  O
  O20      1.0000 0.46890  0.68597  0.30360  Biso   1.000  O
  O21      1.0000 0.82940  0.71501  0.85205  Biso   1.000  O
  O22      1.0000 0.67060  0.21501  0.64795  Biso   1.000  O
  O23      1.0000 0.17060  0.28499  0.14795  Biso   1.000  O
  O24      1.0000 0.32940  0.78499  0.35205  Biso   1.000  O
  O25      1.0000 0.59030  0.84729  0.84330  Biso   1.000  O
  O26      1.0000 0.90970  0.34729  0.65670  Biso   1.000  O
  O27      1.0000 0.40970  0.15271  0.15670  Biso   1.000  O
  O28      1.0000 0.09030  0.65271  0.34330  Biso   1.000  O
  O29      1.0000 0.47290  0.71965  0.80540  Biso   1.000  O
  O30      1.0000 0.02710  0.21965  0.69460  Biso   1.000  O
  O31      1.0000 0.52710  0.28035  0.19460  Biso   1.000  O
  O32      1.0000 0.97290  0.78035  0.30540  Biso   1.000  O
  O33      1.0000 0.35090  0.87137  0.70926  Biso   1.000  O
  O34      1.0000 0.14910  0.37137  0.79074  Biso   1.000  O
  O35      1.0000 0.64910  0.12863  0.29074  Biso   1.000  O
  O36      1.0000 0.85090  0.62863  0.20926  Biso   1.000  O
  O37      1.0000 0.29240  0.76810  0.62037  Biso   1.000  O
  O38      1.0000 0.20760  0.26810  0.87963  Biso   1.000  O
  O39      1.0000 0.70760  0.23190  0.37963  Biso   1.000  O
  O40      1.0000 0.79240  0.73190  0.12037  Biso   1.000  O
  O41      1.0000 0.44330  0.88320  0.51389  Biso   1.000  O
  O42      1.0000 0.05670  0.38320  0.98611  Biso   1.000  O
  O43      1.0000 0.55670  0.11680  0.48611  Biso   1.000  O
  O44      1.0000 0.94330  0.61680  0.01389  Biso   1.000  O
  O45      1.0000 0.46530  0.74012  0.47570  Biso   1.000  O
  O46      1.0000 0.03470  0.24012  0.02430  Biso   1.000  O
  O47      1.0000 0.53470  0.25988  0.52430  Biso   1.000  O
  O48      1.0000 0.96530  0.75988  0.97570  Biso   1.000  O
  O49      1.0000 0.02350  0.86646  0.43673  Biso   1.000  O
  O50      1.0000 0.47650  0.36646  0.06327  Biso   1.000  O
  O51      1.0000 0.97650  0.13354  0.56327  Biso   1.000  O
  O52      1.0000 0.52350  0.63354  0.93673  Biso   1.000  O
  C49      1.0000 0.05070  0.94900  0.42510  Biso   1.000  C
  C50      1.0000 0.44930  0.44900  0.07490  Biso   1.000  C
  C51      1.0000 0.94930  0.05100  0.57490  Biso   1.000  C
  C52      1.0000 0.55070  0.55100  0.92510  Biso   1.000  C
  N1       1.0000 0.17030  0.98490  0.46000  Biso   1.000  N
  N2       1.0000 0.32970  0.48490  0.04000  Biso   1.000  N
  N3       1.0000 0.82970  0.01510  0.54000  Biso   1.000  N
  N4       1.0000 0.67030  0.51510  0.96000  Biso   1.000  N
  N5       1.0000 0.96780  0.00160  0.37920  Biso   1.000  N
  N6       1.0000 0.53220  0.50160  0.12080  Biso   1.000  N
  N7       1.0000 0.03220  0.99840  0.62080  Biso   1.000  N
  N8       1.0000 0.46780  0.49840  0.87920  Biso   1.000  N
  O53      1.0000 0.74970  0.68638  0.34712  Biso   1.000  O
  O54      1.0000 0.75030  0.18638  0.15288  Biso   1.000  O
  O55      1.0000 0.25030  0.31362  0.65288  Biso   1.000  O
  O56      1.0000 0.24970  0.81362  0.84712  Biso   1.000  O
  O57      1.0000 0.71900  0.89380  0.32098  Biso   1.000  O
  O58      1.0000 0.78100  0.39380  0.17902  Biso   1.000  O
  O59      1.0000 0.28100  0.10620  0.67902  Biso   1.000  O
  O60      1.0000 0.21900  0.60620  0.82098  Biso   1.000  O
  H1       1.0000 0.89220  0.73150  0.89990  Biso   1.000  H
  H2       1.0000 0.60780  0.23150  0.60010  Biso   1.000  H
  H3       1.0000 0.10780  0.26850  0.10010  Biso   1.000  H
  H4       1.0000 0.39220  0.76850  0.39990  Biso   1.000  H
  H5       1.0000 0.21660  0.78060  0.62310  Biso   1.000  H
  H6       1.0000 0.28340  0.28060  0.87690  Biso   1.000  H
  H7       1.0000 0.78340  0.21940  0.37690  Biso   1.000  H
  H8       1.0000 0.71660  0.71940  0.12310  Biso   1.000  H
  H9       1.0000 0.76790  0.66830  0.31010  Biso   1.000  H
  H10      1.0000 0.73210  0.16830  0.18990  Biso   1.000  H
  H11      1.0000 0.23210  0.33170  0.68990  Biso   1.000  H
  H12      1.0000 0.26790  0.83170  0.81010  Biso   1.000  H
  H13      1.0000 0.66220  0.69070  0.34350  Biso   1.000  H
  H14      1.0000 0.83780  0.19070  0.15650  Biso   1.000  H
  H15      1.0000 0.33780  0.30930  0.65650  Biso   1.000  H
  H16      1.0000 0.16220  0.80930  0.84350  Biso   1.000  H
  H17      1.0000 0.67810  0.87330  0.28170  Biso   1.000  H
  H18      1.0000 0.82190  0.37330  0.21830  Biso   1.000  H
  H19      1.0000 0.32190  0.12670  0.71830  Biso   1.000  H
  H20      1.0000 0.17810  0.62670  0.78170  Biso   1.000  H
  H21      1.0000 0.67100  0.91950  0.33960  Biso   1.000  H
  H22      1.0000 0.82900  0.41950  0.16040  Biso   1.000  H
  H23      1.0000 0.32900  0.08050  0.66040  Biso   1.000  H
  H24      1.0000 0.17100  0.58050  0.83960  Biso   1.000  H
  H25      1.0000 0.22900  0.94440  0.48690  Biso   1.000  H
  H26      1.0000 0.27100  0.44440  0.01310  Biso   1.000  H
  H27      1.0000 0.77100  0.05560  0.51310  Biso   1.000  H
  H28      1.0000 0.72900  0.55560  0.98690  Biso   1.000  H
  H29      1.0000 0.17690  0.03900  0.46010  Biso   1.000  H
  H30      1.0000 0.32310  0.53900  0.03990  Biso   1.000  H
  H31      1.0000 0.82310  0.96100  0.53990  Biso   1.000  H
  H32      1.0000 0.67690  0.46100  0.96010  Biso   1.000  H
  H33      1.0000 0.89200  0.98140  0.35420  Biso   1.000  H
  H34      1.0000 0.60800  0.48140  0.14580  Biso   1.000  H
  H35      1.0000 0.10800  0.01860  0.64580  Biso   1.000  H
  H36      1.0000 0.39200  0.51860  0.85420  Biso   1.000  H
  H37      1.0000 0.98110  0.05710  0.37880  Biso   1.000  H
  H38      1.0000 0.51890  0.55710  0.12120  Biso   1.000  H
  H39      1.0000 0.01890  0.94290  0.62120  Biso   1.000  H
  H40      1.0000 0.48110  0.44290  0.87880  Biso   1.000  H
  N9       1.0000 0.36900  0.98780  0.23950  Biso   1.000  N
  N10      1.0000 0.13100  0.48780  0.26050  Biso   1.000  N
  N11      1.0000 0.63100  0.01220  0.76050  Biso   1.000  N
  N12      1.0000 0.86900  0.51220  0.73950  Biso   1.000  N
  N13      1.0000 0.66660  0.83460  0.99395  Biso   1.000  N
  N14      1.0000 0.83340  0.33460  0.50605  Biso   1.000  N
  N15      1.0000 0.33340  0.16540  0.00605  Biso   1.000  N
  N16      1.0000 0.16660  0.66540  0.49395  Biso   1.000  N
  C53      1.0000 0.21460  0.97990  0.24180  Biso   1.000  C
  C54      1.0000 0.28540  0.47990  0.25820  Biso   1.000  C
  C55      1.0000 0.78540  0.02010  0.75820  Biso   1.000  C
  C56      1.0000 0.71460  0.52010  0.74180  Biso   1.000  C
  H41      1.0000 0.18250  0.03240  0.26730  Biso   1.000  H
  H42      1.0000 0.31750  0.53240  0.23270  Biso   1.000  H
  H43      1.0000 0.81750  0.96760  0.73270  Biso   1.000  H
  H44      1.0000 0.68250  0.46760  0.76730  Biso   1.000  H
  H45      1.0000 0.19590  0.92570  0.26950  Biso   1.000  H
  H46      1.0000 0.30410  0.42570  0.23050  Biso   1.000  H
  H47      1.0000 0.80410  0.07430  0.73050  Biso   1.000  H
  H48      1.0000 0.69590  0.57430  0.76950  Biso   1.000  H
  C57      1.0000 0.13400  0.97430  0.16500  Biso   1.000  C
  C58      1.0000 0.36600  0.47430  0.33500  Biso   1.000  C
  C59      1.0000 0.86600  0.02570  0.83500  Biso   1.000  C
  C60      1.0000 0.63400  0.52570  0.66500  Biso   1.000  C
  H49      1.0000 0.16730  0.92220  0.13950  Biso   1.000  H
  H50      1.0000 0.33270  0.42220  0.36050  Biso   1.000  H
  H51      1.0000 0.83270  0.07780  0.86050  Biso   1.000  H
  H52      1.0000 0.66730  0.57780  0.63950  Biso   1.000  H
  H53      1.0000 0.15250  0.02870  0.13760  Biso   1.000  H
  H54      1.0000 0.34750  0.52870  0.36240  Biso   1.000  H
  H55      1.0000 0.84750  0.97130  0.86240  Biso   1.000  H
  H56      1.0000 0.65250  0.47130  0.63760  Biso   1.000  H
  C61      1.0000 0.97610  0.96520  0.16580  Biso   1.000  C
  C62      1.0000 0.52390  0.46520  0.33420  Biso   1.000  C
  C63      1.0000 0.02390  0.03480  0.83420  Biso   1.000  C
  C64      1.0000 0.47610  0.53480  0.66580  Biso   1.000  C
  H57      1.0000 0.95720  0.91060  0.19280  Biso   1.000  H
  H58      1.0000 0.54280  0.41060  0.30720  Biso   1.000  H
  H59      1.0000 0.04280  0.08940  0.80720  Biso   1.000  H
  H60      1.0000 0.45720  0.58940  0.69280  Biso   1.000  H
  H61      1.0000 0.94260  0.01720  0.19140  Biso   1.000  H
  H62      1.0000 0.55740  0.51720  0.30860  Biso   1.000  H
  H63      1.0000 0.05740  0.98280  0.80860  Biso   1.000  H
  H64      1.0000 0.44260  0.48280  0.69140  Biso   1.000  H
  C65      1.0000 0.89700  0.96030  0.08850  Biso   1.000  C
  C66      1.0000 0.60300  0.46030  0.41150  Biso   1.000  C
  C67      1.0000 0.10300  0.03970  0.91150  Biso   1.000  C
  C68      1.0000 0.39700  0.53970  0.58850  Biso   1.000  C
  H65      1.0000 0.92720  0.90640  0.06410  Biso   1.000  H
  H66      1.0000 0.57280  0.40640  0.43590  Biso   1.000  H
  H67      1.0000 0.07280  0.09360  0.93590  Biso   1.000  H
  H68      1.0000 0.42720  0.59360  0.56410  Biso   1.000  H
  H69      1.0000 0.92140  0.01310  0.06070  Biso   1.000  H
  H70      1.0000 0.57860  0.51310  0.43930  Biso   1.000  H
  H71      1.0000 0.07860  0.98690  0.93930  Biso   1.000  H
  H72      1.0000 0.42140  0.48690  0.56070  Biso   1.000  H
  C69      1.0000 0.73770  0.95700  0.08630  Biso   1.000  C
  C70      1.0000 0.76230  0.45700  0.41370  Biso   1.000  C
  C71      1.0000 0.26230  0.04300  0.91370  Biso   1.000  C
  C72      1.0000 0.23770  0.54300  0.58630  Biso   1.000  C
  H73      1.0000 0.71470  0.91270  0.12240  Biso   1.000  H
  H74      1.0000 0.78530  0.41270  0.37760  Biso   1.000  H
  H75      1.0000 0.28530  0.08730  0.87760  Biso   1.000  H
  H76      1.0000 0.21470  0.58730  0.62240  Biso   1.000  H
  H77      1.0000 0.70520  0.01620  0.10080  Biso   1.000  H
  H78      1.0000 0.79480  0.51620  0.39920  Biso   1.000  H
  H79      1.0000 0.29480  0.98380  0.89920  Biso   1.000  H
  H80      1.0000 0.20520  0.48380  0.60080  Biso   1.000  H
  C73      1.0000 0.66020  0.93240  0.01180  Biso   1.000  C
  C74      1.0000 0.83980  0.43240  0.48820  Biso   1.000  C
  C75      1.0000 0.33980  0.06760  0.98820  Biso   1.000  C
  C76      1.0000 0.16020  0.56760  0.51180  Biso   1.000  C
  H81      1.0000 0.56230  0.95020  0.01020  Biso   1.000  H
  H82      1.0000 0.93770  0.45020  0.48980  Biso   1.000  H
  H83      1.0000 0.43770  0.04980  0.98980  Biso   1.000  H
  H84      1.0000 0.06230  0.54980  0.51020  Biso   1.000  H
  H85      1.0000 0.69950  0.96710  0.97400  Biso   1.000  H
  H86      1.0000 0.80050  0.46710  0.52600  Biso   1.000  H
  H87      1.0000 0.30050  0.03290  0.02600  Biso   1.000  H
  H88      1.0000 0.19950  0.53290  0.47400  Biso   1.000  H
  H89      1.0000 0.41740  0.99350  0.28820  Biso   1.000  H
  H90      1.0000 0.08260  0.49350  0.21180  Biso   1.000  H
  H91      1.0000 0.58260  0.00650  0.71180  Biso   1.000  H
  H92      1.0000 0.91740  0.50650  0.78820  Biso   1.000  H
  H93      1.0000 0.38970  0.03200  0.21450  Biso   1.000  H
  H94      1.0000 0.11030  0.53200  0.28550  Biso   1.000  H
  H95      1.0000 0.61030  0.96800  0.78550  Biso   1.000  H
  H96      1.0000 0.88970  0.46800  0.71450  Biso   1.000  H
  H97      1.0000 0.40590  0.93620  0.21720  Biso   1.000  H
  H98      1.0000 0.09410  0.43620  0.28280  Biso   1.000  H
  H99      1.0000 0.59410  0.06380  0.78280  Biso   1.000  H
  H100     1.0000 0.90590  0.56380  0.71720  Biso   1.000  H
  H101     1.0000 0.60490  0.80890  0.01360  Biso   1.000  H
  H102     1.0000 0.89510  0.30890  0.48640  Biso   1.000  H
  H103     1.0000 0.39510  0.19110  0.98640  Biso   1.000  H
  H104     1.0000 0.10490  0.69110  0.51360  Biso   1.000  H
  H105     1.0000 0.74470  0.81470  0.00500  Biso   1.000  H
  H106     1.0000 0.75530  0.31470  0.49500  Biso   1.000  H
  H107     1.0000 0.25530  0.18530  0.99500  Biso   1.000  H
  H108     1.0000 0.24470  0.68530  0.50500  Biso   1.000  H
  H109     1.0000 0.63820  0.82830  0.94400  Biso   1.000  H
  H110     1.0000 0.86180  0.32830  0.55600  Biso   1.000  H
  H111     1.0000 0.36180  0.17170  0.05600  Biso   1.000  H
  H112     1.0000 0.13820  0.67170  0.44400  Biso   1.000  H
  O61      1.0000 0.50110  0.97630  0.38618  Biso   1.000  O
  O62      1.0000 0.99890  0.47630  0.11382  Biso   1.000  O
  O63      1.0000 0.49890  0.02370  0.61382  Biso   1.000  O
  O64      1.0000 0.00110  0.52370  0.88618  Biso   1.000  O
  H113     1.0000 0.47180  0.94050  0.41270  Biso   1.000  H
  H114     1.0000 0.02820  0.44050  0.08730  Biso   1.000  H
  H115     1.0000 0.52820  0.05950  0.58730  Biso   1.000  H
  H116     1.0000 0.97180  0.55950  0.91270  Biso   1.000  H
  H117     1.0000 0.51970  0.01950  0.41190  Biso   1.000  H
  H118     1.0000 0.98030  0.51950  0.08810  Biso   1.000  H
  H119     1.0000 0.48030  0.98050  0.58810  Biso   1.000  H
  H120     1.0000 0.01970  0.48050  0.91190  Biso   1.000  H
