data_image0
_cell_length_a       12.1547
_cell_length_b       12.5412
_cell_length_c       14.116
_cell_angle_alpha    90
_cell_angle_beta     92.746
_cell_angle_gamma    90

_symmetry_space_group_name_H-M    "P 1"
_symmetry_int_tables_number       1

loop_
  _symmetry_equiv_pos_as_xyz
  'x, y, z'

loop_
  _atom_site_label
  _atom_site_occupancy
  _atom_site_fract_x
  _atom_site_fract_y
  _atom_site_fract_z
  _atom_site_thermal_displace_type
  _atom_site_B_iso_or_equiv
  _atom_site_type_symbol
  Mo1      1.0000 0.07590  0.17880  0.10100  Biso   1.000  Mo
  Mo2      1.0000 0.42410  0.67880  0.39900  Biso   1.000  Mo
  Mo3      1.0000 0.92410  0.82120  0.89900  Biso   1.000  Mo
  Mo4      1.0000 0.57590  0.32120  0.60100  Biso   1.000  Mo
  Mo5      1.0000 0.13280  0.96300  0.95480  Biso   1.000  Mo
  Mo6      1.0000 0.36720  0.46300  0.54520  Biso   1.000  Mo
  Mo7      1.0000 0.86720  0.03700  0.04520  Biso   1.000  Mo
  Mo8      1.0000 0.63280  0.53700  0.45480  Biso   1.000  Mo
  Mo9      1.0000 0.12710  0.22650  0.88140  Biso   1.000  Mo
  Mo10     1.0000 0.37290  0.72650  0.61860  Biso   1.000  Mo
  Mo11     1.0000 0.87290  0.77350  0.11860  Biso   1.000  Mo
  Mo12     1.0000 0.62710  0.27350  0.38140  Biso   1.000  Mo
  Mo13     1.0000 0.09200  0.91720  0.17430  Biso   1.000  Mo
  Mo14     1.0000 0.40800  0.41720  0.32570  Biso   1.000  Mo
  Mo15     1.0000 0.90800  0.08280  0.82570  Biso   1.000  Mo
  Mo16     1.0000 0.59200  0.58280  0.67430  Biso   1.000  Mo
  O1       1.0000 0.21550  0.85530  0.95200  Biso   1.000  O
  O2       1.0000 0.28450  0.35530  0.54800  Biso   1.000  O
  O3       1.0000 0.78450  0.14470  0.04800  Biso   1.000  O
  O4       1.0000 0.71550  0.64470  0.45200  Biso   1.000  O
  O5       1.0000 0.17930  0.22480  0.01500  Biso   1.000  O
  O6       1.0000 0.32070  0.72480  0.48500  Biso   1.000  O
  O7       1.0000 0.82070  0.77520  0.98500  Biso   1.000  O
  O8       1.0000 0.67930  0.27520  0.51500  Biso   1.000  O
  O9       1.0000 0.03990  0.14730  0.78890  Biso   1.000  O
  O10      1.0000 0.46010  0.64730  0.71110  Biso   1.000  O
  O11      1.0000 0.96010  0.85270  0.21110  Biso   1.000  O
  O12      1.0000 0.53990  0.35270  0.28890  Biso   1.000  O
  O13      1.0000 0.20340  0.06500  0.89780  Biso   1.000  O
  O14      1.0000 0.29660  0.56500  0.60220  Biso   1.000  O
  O15      1.0000 0.79660  0.93500  0.10220  Biso   1.000  O
  O16      1.0000 0.70340  0.43500  0.39780  Biso   1.000  O
  O17      1.0000 0.16280  0.01370  0.08400  Biso   1.000  O
  O18      1.0000 0.33720  0.51370  0.41600  Biso   1.000  O
  O19      1.0000 0.83720  0.98630  0.91600  Biso   1.000  O
  O20      1.0000 0.66280  0.48630  0.58400  Biso   1.000  O
  O21      1.0000 0.32690  0.30730  0.34040  Biso   1.000  O
  O22      1.0000 0.17310  0.80730  0.15960  Biso   1.000  O
  O23      1.0000 0.67310  0.69270  0.65960  Biso   1.000  O
  O24      1.0000 0.82690  0.19270  0.84040  Biso   1.000  O
  O25      1.0000 0.04220  0.33420  0.89440  Biso   1.000  O
  O26      1.0000 0.45780  0.83420  0.60560  Biso   1.000  O
  O27      1.0000 0.95780  0.66580  0.10560  Biso   1.000  O
  O28      1.0000 0.54220  0.16580  0.39440  Biso   1.000  O
  O29      1.0000 0.98280  0.27980  0.09650  Biso   1.000  O
  O30      1.0000 0.51720  0.77980  0.40350  Biso   1.000  O
  O31      1.0000 0.01720  0.72020  0.90350  Biso   1.000  O
  O32      1.0000 0.48280  0.22020  0.59650  Biso   1.000  O
  O33      1.0000 0.14100  0.97270  0.27870  Biso   1.000  O
  O34      1.0000 0.35900  0.47270  0.22130  Biso   1.000  O
  O35      1.0000 0.85900  0.02730  0.72130  Biso   1.000  O
  O36      1.0000 0.64100  0.52730  0.77870  Biso   1.000  O
  O37      1.0000 0.15200  0.19720  0.20780  Biso   1.000  O
  O38      1.0000 0.34800  0.69720  0.29220  Biso   1.000  O
  O39      1.0000 0.84800  0.80280  0.79220  Biso   1.000  O
  O40      1.0000 0.65200  0.30280  0.70780  Biso   1.000  O
  O41      1.0000 0.97700  0.06500  0.14690  Biso   1.000  O
  O42      1.0000 0.52300  0.56500  0.35310  Biso   1.000  O
  O43      1.0000 0.02300  0.93500  0.85310  Biso   1.000  O
  O44      1.0000 0.47700  0.43500  0.64690  Biso   1.000  O
  O45      1.0000 0.23490  0.27400  0.82330  Biso   1.000  O
  O46      1.0000 0.26510  0.77400  0.67670  Biso   1.000  O
  O47      1.0000 0.76510  0.72600  0.17670  Biso   1.000  O
  O48      1.0000 0.73490  0.22600  0.32330  Biso   1.000  O
  O49      1.0000 0.00250  0.10560  0.97140  Biso   1.000  O
  O50      1.0000 0.49750  0.60560  0.52860  Biso   1.000  O
  O51      1.0000 0.99750  0.89440  0.02860  Biso   1.000  O
  O52      1.0000 0.50250  0.39440  0.47140  Biso   1.000  O
  C1       1.0000 0.38960  0.11430  0.15510  Biso   1.000  C
  C2       1.0000 0.11040  0.61430  0.34490  Biso   1.000  C
  C3       1.0000 0.61040  0.88570  0.84490  Biso   1.000  C
  C4       1.0000 0.88960  0.38570  0.65510  Biso   1.000  C
  C5       1.0000 0.48060  0.07160  0.11340  Biso   1.000  C
  C6       1.0000 0.01940  0.57160  0.38660  Biso   1.000  C
  C7       1.0000 0.51940  0.92840  0.88660  Biso   1.000  C
  C8       1.0000 0.98060  0.42840  0.61340  Biso   1.000  C
  C9       1.0000 0.54320  0.99510  0.16140  Biso   1.000  C
  C10      1.0000 0.95680  0.49510  0.33860  Biso   1.000  C
  C11      1.0000 0.45680  0.00490  0.83860  Biso   1.000  C
  C12      1.0000 0.04320  0.50490  0.66140  Biso   1.000  C
  C13      1.0000 0.51360  0.96360  0.25100  Biso   1.000  C
  C14      1.0000 0.98640  0.46360  0.24900  Biso   1.000  C
  C15      1.0000 0.48640  0.03640  0.74900  Biso   1.000  C
  C16      1.0000 0.01360  0.53640  0.75100  Biso   1.000  C
  C17      1.0000 0.42310  0.01040  0.28990  Biso   1.000  C
  C18      1.0000 0.07690  0.51040  0.21010  Biso   1.000  C
  C19      1.0000 0.57690  0.98960  0.71010  Biso   1.000  C
  C20      1.0000 0.92310  0.48960  0.78990  Biso   1.000  C
  C21      1.0000 0.38520  0.98450  0.38790  Biso   1.000  C
  C22      1.0000 0.11480  0.48450  0.11210  Biso   1.000  C
  C23      1.0000 0.61480  0.01550  0.61210  Biso   1.000  C
  C24      1.0000 0.88520  0.51550  0.88790  Biso   1.000  C
  C25      1.0000 0.26600  0.06250  0.50950  Biso   1.000  C
  C26      1.0000 0.23400  0.56250  0.99050  Biso   1.000  C
  C27      1.0000 0.73400  0.93750  0.49050  Biso   1.000  C
  C28      1.0000 0.76600  0.43750  0.00950  Biso   1.000  C
  C29      1.0000 0.15280  0.11140  0.49710  Biso   1.000  C
  C30      1.0000 0.34720  0.61140  0.00290  Biso   1.000  C
  C31      1.0000 0.84720  0.88860  0.50290  Biso   1.000  C
  C32      1.0000 0.65280  0.38860  0.99710  Biso   1.000  C
  C33      1.0000 0.07870  0.10750  0.56830  Biso   1.000  C
  C34      1.0000 0.42130  0.60750  0.93170  Biso   1.000  C
  C35      1.0000 0.92130  0.89250  0.43170  Biso   1.000  C
  C36      1.0000 0.57870  0.39250  0.06830  Biso   1.000  C
  C37      1.0000 0.97540  0.15110  0.55140  Biso   1.000  C
  C38      1.0000 0.52460  0.65110  0.94860  Biso   1.000  C
  C39      1.0000 0.02460  0.84890  0.44860  Biso   1.000  C
  C40      1.0000 0.47540  0.34890  0.05140  Biso   1.000  C
  C41      1.0000 0.94900  0.19810  0.46420  Biso   1.000  C
  C42      1.0000 0.55100  0.69810  0.03580  Biso   1.000  C
  C43      1.0000 0.05100  0.80190  0.53580  Biso   1.000  C
  C44      1.0000 0.44900  0.30190  0.96420  Biso   1.000  C
  C45      1.0000 0.02590  0.19920  0.39650  Biso   1.000  C
  C46      1.0000 0.47410  0.69920  0.10350  Biso   1.000  C
  C47      1.0000 0.97410  0.80080  0.60350  Biso   1.000  C
  C48      1.0000 0.52590  0.30080  0.89650  Biso   1.000  C
  N1       1.0000 0.36220  0.08460  0.24220  Biso   1.000  N
  N2       1.0000 0.13780  0.58460  0.25780  Biso   1.000  N
  N3       1.0000 0.63780  0.91540  0.75780  Biso   1.000  N
  N4       1.0000 0.86220  0.41540  0.74220  Biso   1.000  N
  N5       1.0000 0.33030  0.08000  0.42510  Biso   1.000  N
  N6       1.0000 0.16970  0.58000  0.07490  Biso   1.000  N
  N7       1.0000 0.66970  0.92000  0.57490  Biso   1.000  N
  N8       1.0000 0.83030  0.42000  0.92510  Biso   1.000  N
  N9       1.0000 0.12720  0.15710  0.41230  Biso   1.000  N
  N10      1.0000 0.37280  0.65710  0.08770  Biso   1.000  N
  N11      1.0000 0.87280  0.84290  0.58770  Biso   1.000  N
  N12      1.0000 0.62720  0.34290  0.91230  Biso   1.000  N
  H1       1.0000 0.37800  0.12500  0.43800  Biso   1.000  H
  H2       1.0000 0.12200  0.62500  0.06200  Biso   1.000  H
  H3       1.0000 0.62200  0.87500  0.56200  Biso   1.000  H
  H4       1.0000 0.87800  0.37500  0.93800  Biso   1.000  H
  H5       1.0000 0.34670  0.16460  0.12200  Biso   1.000  H
  H6       1.0000 0.15330  0.66460  0.37800  Biso   1.000  H
  H7       1.0000 0.65330  0.83540  0.87800  Biso   1.000  H
  H8       1.0000 0.84670  0.33540  0.62200  Biso   1.000  H
  H9       1.0000 0.49930  0.09410  0.05350  Biso   1.000  H
  H10      1.0000 0.00070  0.59410  0.44650  Biso   1.000  H
  H11      1.0000 0.50070  0.90590  0.94650  Biso   1.000  H
  H12      1.0000 0.99930  0.40590  0.55350  Biso   1.000  H
  H13      1.0000 0.60410  0.96520  0.13420  Biso   1.000  H
  H14      1.0000 0.89590  0.46520  0.36580  Biso   1.000  H
  H15      1.0000 0.39590  0.03480  0.86580  Biso   1.000  H
  H16      1.0000 0.10410  0.53480  0.63420  Biso   1.000  H
  H17      1.0000 0.55410  0.91170  0.28440  Biso   1.000  H
  H18      1.0000 0.94590  0.41170  0.21560  Biso   1.000  H
  H19      1.0000 0.44590  0.08830  0.71560  Biso   1.000  H
  H20      1.0000 0.05410  0.58830  0.78440  Biso   1.000  H
  H21      1.0000 0.44780  0.96500  0.42950  Biso   1.000  H
  H22      1.0000 0.05220  0.46500  0.07050  Biso   1.000  H
  H23      1.0000 0.55220  0.03500  0.57050  Biso   1.000  H
  H24      1.0000 0.94780  0.53500  0.92950  Biso   1.000  H
  H25      1.0000 0.33420  0.92500  0.38460  Biso   1.000  H
  H26      1.0000 0.16580  0.42500  0.11540  Biso   1.000  H
  H27      1.0000 0.66580  0.07500  0.61540  Biso   1.000  H
  H28      1.0000 0.83420  0.57500  0.88460  Biso   1.000  H
  H29      1.0000 0.25900  0.98660  0.52070  Biso   1.000  H
  H30      1.0000 0.24100  0.48660  0.97930  Biso   1.000  H
  H31      1.0000 0.74100  0.01340  0.47930  Biso   1.000  H
  H32      1.0000 0.75900  0.51340  0.02070  Biso   1.000  H
  H33      1.0000 0.30460  0.09380  0.56450  Biso   1.000  H
  H34      1.0000 0.19540  0.59380  0.93550  Biso   1.000  H
  H35      1.0000 0.69540  0.90620  0.43550  Biso   1.000  H
  H36      1.0000 0.80460  0.40620  0.06450  Biso   1.000  H
  H37      1.0000 0.09810  0.07620  0.62640  Biso   1.000  H
  H38      1.0000 0.40190  0.57620  0.87360  Biso   1.000  H
  H39      1.0000 0.90190  0.92380  0.37360  Biso   1.000  H
  H40      1.0000 0.59810  0.42380  0.12640  Biso   1.000  H
  H41      1.0000 0.92390  0.14890  0.59800  Biso   1.000  H
  H42      1.0000 0.57610  0.64890  0.90200  Biso   1.000  H
  H43      1.0000 0.07610  0.85110  0.40200  Biso   1.000  H
  H44      1.0000 0.42390  0.35110  0.09800  Biso   1.000  H
  H45      1.0000 0.87990  0.22840  0.45200  Biso   1.000  H
  H46      1.0000 0.62010  0.72840  0.04800  Biso   1.000  H
  H47      1.0000 0.12010  0.77160  0.54800  Biso   1.000  H
  H48      1.0000 0.37990  0.27160  0.95200  Biso   1.000  H
  H49      1.0000 0.00770  0.22980  0.33790  Biso   1.000  H
  H50      1.0000 0.49230  0.72980  0.16210  Biso   1.000  H
  H51      1.0000 0.99230  0.77020  0.66210  Biso   1.000  H
  H52      1.0000 0.50770  0.27020  0.83790  Biso   1.000  H
  Cu1      1.0000 0.24070  0.14190  0.31700  Biso   1.000  Cu
  Cu2      1.0000 0.25930  0.64190  0.18300  Biso   1.000  Cu
  Cu3      1.0000 0.75930  0.85810  0.68300  Biso   1.000  Cu
  Cu4      1.0000 0.74070  0.35810  0.81700  Biso   1.000  Cu
