data_image0
_cell_length_a       17.9115
_cell_length_b       14.3637
_cell_length_c       22.6795
_cell_angle_alpha    90
_cell_angle_beta     94.744
_cell_angle_gamma    90

_symmetry_space_group_name_H-M    "P 1"
_symmetry_int_tables_number       1

loop_
  _symmetry_equiv_pos_as_xyz
  'x, y, z'

loop_
  _atom_site_label
  _atom_site_occupancy
  _atom_site_fract_x
  _atom_site_fract_y
  _atom_site_fract_z
  _atom_site_thermal_displace_type
  _atom_site_B_iso_or_equiv
  _atom_site_type_symbol
  Cu1      1.0000 0.42540  0.81330  0.83660  Biso   1.000  Cu
  Cu2      1.0000 0.57460  0.31330  0.66340  Biso   1.000  Cu
  Cu3      1.0000 0.57460  0.18670  0.16340  Biso   1.000  Cu
  Cu4      1.0000 0.42540  0.68670  0.33660  Biso   1.000  Cu
  Cu5      1.0000 0.12630  0.84760  0.88090  Biso   1.000  Cu
  Cu6      1.0000 0.87370  0.34760  0.61910  Biso   1.000  Cu
  Cu7      1.0000 0.87370  0.15240  0.11910  Biso   1.000  Cu
  Cu8      1.0000 0.12630  0.65240  0.38090  Biso   1.000  Cu
  Cu9      1.0000 0.27400  0.50540  0.99320  Biso   1.000  Cu
  Cu10     1.0000 0.72600  0.00540  0.50680  Biso   1.000  Cu
  Cu11     1.0000 0.72600  0.49460  0.00680  Biso   1.000  Cu
  Cu12     1.0000 0.27400  0.99460  0.49320  Biso   1.000  Cu
  O1       1.0000 0.33210  0.81000  0.00190  Biso   1.000  O
  O2       1.0000 0.66790  0.31000  0.49810  Biso   1.000  O
  O3       1.0000 0.66790  0.19000  0.99810  Biso   1.000  O
  O4       1.0000 0.33210  0.69000  0.50190  Biso   1.000  O
  O5       1.0000 0.37430  0.73970  0.89190  Biso   1.000  O
  O6       1.0000 0.62570  0.23970  0.60810  Biso   1.000  O
  O7       1.0000 0.62570  0.26030  0.10810  Biso   1.000  O
  O8       1.0000 0.37430  0.76030  0.39190  Biso   1.000  O
  O9       1.0000 0.28360  0.63030  0.96620  Biso   1.000  O
  O10      1.0000 0.71640  0.13030  0.53380  Biso   1.000  O
  O11      1.0000 0.71640  0.36970  0.03380  Biso   1.000  O
  O12      1.0000 0.28360  0.86970  0.46620  Biso   1.000  O
  O13      1.0000 0.21890  0.79040  0.90740  Biso   1.000  O
  O14      1.0000 0.78110  0.29040  0.59260  Biso   1.000  O
  O15      1.0000 0.78110  0.20960  0.09260  Biso   1.000  O
  O16      1.0000 0.21890  0.70960  0.40740  Biso   1.000  O
  O17      1.0000 0.29170  0.45510  0.89370  Biso   1.000  O
  O18      1.0000 0.70830  0.95510  0.60630  Biso   1.000  O
  O19      1.0000 0.70830  0.54490  0.10630  Biso   1.000  O
  O20      1.0000 0.29170  0.04490  0.39370  Biso   1.000  O
  O21      1.0000 0.38160  0.43050  0.80560  Biso   1.000  O
  O22      1.0000 0.61840  0.93050  0.69440  Biso   1.000  O
  O23      1.0000 0.61840  0.56950  0.19440  Biso   1.000  O
  O24      1.0000 0.38160  0.06950  0.30560  Biso   1.000  O
  O25      1.0000 0.22950  0.42600  0.77470  Biso   1.000  O
  O26      1.0000 0.77050  0.92600  0.72530  Biso   1.000  O
  O27      1.0000 0.77050  0.57400  0.22530  Biso   1.000  O
  O28      1.0000 0.22950  0.07400  0.27470  Biso   1.000  O
  O29      1.0000 0.35120  0.27970  0.87620  Biso   1.000  O
  O30      1.0000 0.64880  0.77970  0.62380  Biso   1.000  O
  O31      1.0000 0.64880  0.72030  0.12380  Biso   1.000  O
  O32      1.0000 0.35120  0.22030  0.37620  Biso   1.000  O
  O33      1.0000 0.20470  0.29340  0.85120  Biso   1.000  O
  O34      1.0000 0.79530  0.79340  0.64880  Biso   1.000  O
  O35      1.0000 0.79530  0.70660  0.14880  Biso   1.000  O
  O36      1.0000 0.20470  0.20660  0.35120  Biso   1.000  O
  O37      1.0000 0.30520  0.41440  0.67360  Biso   1.000  O
  O38      1.0000 0.69480  0.91440  0.82640  Biso   1.000  O
  O39      1.0000 0.69480  0.58560  0.32640  Biso   1.000  O
  O40      1.0000 0.30520  0.08560  0.17360  Biso   1.000  O
  O41      1.0000 0.15480  0.42070  0.66220  Biso   1.000  O
  O42      1.0000 0.84520  0.92070  0.83780  Biso   1.000  O
  O43      1.0000 0.84520  0.57930  0.33780  Biso   1.000  O
  O44      1.0000 0.15480  0.07930  0.16220  Biso   1.000  O
  O45      1.0000 0.45690  0.23460  0.79770  Biso   1.000  O
  O46      1.0000 0.54310  0.73460  0.70230  Biso   1.000  O
  O47      1.0000 0.54310  0.76540  0.20230  Biso   1.000  O
  O48      1.0000 0.45690  0.26540  0.29770  Biso   1.000  O
  O49      1.0000 0.29370  0.26080  0.76470  Biso   1.000  O
  O50      1.0000 0.70630  0.76080  0.73530  Biso   1.000  O
  O51      1.0000 0.70630  0.73920  0.23530  Biso   1.000  O
  O52      1.0000 0.29370  0.23920  0.26470  Biso   1.000  O
  O53      1.0000 0.14160  0.26440  0.73590  Biso   1.000  O
  O54      1.0000 0.85840  0.76440  0.76410  Biso   1.000  O
  O55      1.0000 0.85840  0.73560  0.26410  Biso   1.000  O
  O56      1.0000 0.14160  0.23560  0.23590  Biso   1.000  O
  O57      1.0000 0.42270  0.10550  0.87710  Biso   1.000  O
  O58      1.0000 0.57730  0.60550  0.62290  Biso   1.000  O
  O59      1.0000 0.57730  0.89450  0.12290  Biso   1.000  O
  O60      1.0000 0.42270  0.39450  0.37710  Biso   1.000  O
  O61      1.0000 0.26740  0.11720  0.83970  Biso   1.000  O
  O62      1.0000 0.73260  0.61720  0.66030  Biso   1.000  O
  O63      1.0000 0.73260  0.88280  0.16030  Biso   1.000  O
  O64      1.0000 0.26740  0.38280  0.33970  Biso   1.000  O
  O65      1.0000 0.11170  0.14680  0.82980  Biso   1.000  O
  O66      1.0000 0.88830  0.64680  0.67020  Biso   1.000  O
  O67      1.0000 0.88830  0.85320  0.17020  Biso   1.000  O
  O68      1.0000 0.11170  0.35320  0.32980  Biso   1.000  O
  O69      1.0000 0.18600  0.95510  0.81620  Biso   1.000  O
  O70      1.0000 0.81400  0.45510  0.68380  Biso   1.000  O
  O71      1.0000 0.81400  0.04490  0.18380  Biso   1.000  O
  O72      1.0000 0.18600  0.54490  0.31620  Biso   1.000  O
  O73      1.0000 0.35740  0.09760  0.76020  Biso   1.000  O
  O74      1.0000 0.64260  0.59760  0.73980  Biso   1.000  O
  O75      1.0000 0.64260  0.90240  0.23980  Biso   1.000  O
  O76      1.0000 0.35740  0.40240  0.26020  Biso   1.000  O
  O77      1.0000 0.20830  0.10640  0.73250  Biso   1.000  O
  O78      1.0000 0.79170  0.60640  0.76750  Biso   1.000  O
  O79      1.0000 0.79170  0.89360  0.26750  Biso   1.000  O
  O80      1.0000 0.20830  0.39360  0.23250  Biso   1.000  O
  O81      1.0000 0.39170  0.22820  0.67210  Biso   1.000  O
  O82      1.0000 0.60830  0.72820  0.82790  Biso   1.000  O
  O83      1.0000 0.60830  0.77180  0.32790  Biso   1.000  O
  O84      1.0000 0.39170  0.27180  0.17210  Biso   1.000  O
  O85      1.0000 0.23380  0.24620  0.65660  Biso   1.000  O
  O86      1.0000 0.76620  0.74620  0.84340  Biso   1.000  O
  O87      1.0000 0.76620  0.75380  0.34340  Biso   1.000  O
  O88      1.0000 0.23380  0.25380  0.15660  Biso   1.000  O
  O89      1.0000 0.07640  0.24580  0.61810  Biso   1.000  O
  O90      1.0000 0.92360  0.74580  0.88190  Biso   1.000  O
  O91      1.0000 0.92360  0.75420  0.38190  Biso   1.000  O
  O92      1.0000 0.07640  0.25420  0.11810  Biso   1.000  O
  O93      1.0000 0.30280  0.07650  0.64530  Biso   1.000  O
  O94      1.0000 0.69720  0.57650  0.85470  Biso   1.000  O
  O95      1.0000 0.69720  0.92350  0.35470  Biso   1.000  O
  O96      1.0000 0.30280  0.42350  0.14530  Biso   1.000  O
  O97      1.0000 0.04970  0.11320  0.69850  Biso   1.000  O
  O98      1.0000 0.95030  0.61320  0.80150  Biso   1.000  O
  O99      1.0000 0.95030  0.88680  0.30150  Biso   1.000  O
  O100     1.0000 0.04970  0.38680  0.19850  Biso   1.000  O
  O101     1.0000 0.27200  0.94180  0.71950  Biso   1.000  O
  O102     1.0000 0.72800  0.44180  0.78050  Biso   1.000  O
  O103     1.0000 0.72800  0.05820  0.28050  Biso   1.000  O
  O104     1.0000 0.27200  0.55820  0.21950  Biso   1.000  O
  O105     1.0000 0.12820  0.91820  0.67200  Biso   1.000  O
  O106     1.0000 0.87180  0.41820  0.82800  Biso   1.000  O
  O107     1.0000 0.87180  0.08180  0.32800  Biso   1.000  O
  O108     1.0000 0.12820  0.58180  0.17200  Biso   1.000  O
  O109     1.0000 0.23400  0.91570  0.59410  Biso   1.000  O
  O110     1.0000 0.76600  0.41570  0.90590  Biso   1.000  O
  O111     1.0000 0.76600  0.08430  0.40590  Biso   1.000  O
  O112     1.0000 0.23400  0.58430  0.09410  Biso   1.000  O
  O113     1.0000 0.15760  0.08330  0.61850  Biso   1.000  O
  O114     1.0000 0.84240  0.58330  0.88150  Biso   1.000  O
  O115     1.0000 0.84240  0.91670  0.38150  Biso   1.000  O
  O116     1.0000 0.15760  0.41670  0.11850  Biso   1.000  O
  O117     1.0000 0.33700  0.93920  0.83320  Biso   1.000  O
  O118     1.0000 0.66300  0.43920  0.66680  Biso   1.000  O
  O119     1.0000 0.66300  0.06080  0.16680  Biso   1.000  O
  O120     1.0000 0.33700  0.56080  0.33320  Biso   1.000  O
  O121     1.0000 0.13160  0.73260  0.06850  Biso   1.000  O
  O122     1.0000 0.86840  0.23260  0.43150  Biso   1.000  O
  O123     1.0000 0.86840  0.26740  0.93150  Biso   1.000  O
  O124     1.0000 0.13160  0.76740  0.56850  Biso   1.000  O
  O125     1.0000 0.05630  0.76850  0.95760  Biso   1.000  O
  O126     1.0000 0.94370  0.26850  0.54240  Biso   1.000  O
  O127     1.0000 0.94370  0.23150  0.04240  Biso   1.000  O
  O128     1.0000 0.05630  0.73150  0.45760  Biso   1.000  O
  C1       1.0000 0.33450  0.67960  0.75990  Biso   1.000  C
  C2       1.0000 0.66550  0.17960  0.74010  Biso   1.000  C
  C3       1.0000 0.66550  0.32040  0.24010  Biso   1.000  C
  C4       1.0000 0.33450  0.82040  0.25990  Biso   1.000  C
  C5       1.0000 0.30240  0.64780  0.70680  Biso   1.000  C
  C6       1.0000 0.69760  0.14780  0.79320  Biso   1.000  C
  C7       1.0000 0.69760  0.35220  0.29320  Biso   1.000  C
  C8       1.0000 0.30240  0.85220  0.20680  Biso   1.000  C
  C9       1.0000 0.31410  0.69570  0.65520  Biso   1.000  C
  C10      1.0000 0.68590  0.19570  0.84480  Biso   1.000  C
  C11      1.0000 0.68590  0.30430  0.34480  Biso   1.000  C
  C12      1.0000 0.31410  0.80430  0.15520  Biso   1.000  C
  C13      1.0000 0.35870  0.77390  0.65950  Biso   1.000  C
  C14      1.0000 0.64130  0.27390  0.84050  Biso   1.000  C
  C15      1.0000 0.64130  0.22610  0.34050  Biso   1.000  C
  C16      1.0000 0.35870  0.72610  0.15950  Biso   1.000  C
  C17      1.0000 0.39060  0.80230  0.71440  Biso   1.000  C
  C18      1.0000 0.60940  0.30230  0.78560  Biso   1.000  C
  C19      1.0000 0.60940  0.19770  0.28560  Biso   1.000  C
  C20      1.0000 0.39060  0.69770  0.21440  Biso   1.000  C
  C21      1.0000 0.44040  0.88600  0.72270  Biso   1.000  C
  C22      1.0000 0.55960  0.38600  0.77730  Biso   1.000  C
  C23      1.0000 0.55960  0.11400  0.27730  Biso   1.000  C
  C24      1.0000 0.44040  0.61400  0.22270  Biso   1.000  C
  C25      1.0000 0.51920  0.96130  0.80600  Biso   1.000  C
  C26      1.0000 0.48080  0.46130  0.69400  Biso   1.000  C
  C27      1.0000 0.48080  0.03870  0.19400  Biso   1.000  C
  C28      1.0000 0.51920  0.53870  0.30600  Biso   1.000  C
  C29      1.0000 0.53500  0.94550  0.87060  Biso   1.000  C
  C30      1.0000 0.46500  0.44550  0.62940  Biso   1.000  C
  C31      1.0000 0.46500  0.05450  0.12940  Biso   1.000  C
  C32      1.0000 0.53500  0.55450  0.37060  Biso   1.000  C
  C33      1.0000 0.58660  0.99840  0.90560  Biso   1.000  C
  C34      1.0000 0.41340  0.49840  0.59440  Biso   1.000  C
  C35      1.0000 0.41340  0.00160  0.09440  Biso   1.000  C
  C36      1.0000 0.58660  0.50160  0.40560  Biso   1.000  C
  C37      1.0000 0.59810  0.98010  0.96480  Biso   1.000  C
  C38      1.0000 0.40190  0.48010  0.53520  Biso   1.000  C
  C39      1.0000 0.40190  0.01990  0.03520  Biso   1.000  C
  C40      1.0000 0.59810  0.51990  0.46480  Biso   1.000  C
  C41      1.0000 0.55810  0.91000  0.98900  Biso   1.000  C
  C42      1.0000 0.44190  0.41000  0.51100  Biso   1.000  C
  C43      1.0000 0.44190  0.09000  0.01100  Biso   1.000  C
  C44      1.0000 0.55810  0.59000  0.48900  Biso   1.000  C
  C45      1.0000 0.50570  0.86200  0.95280  Biso   1.000  C
  C46      1.0000 0.49430  0.36200  0.54720  Biso   1.000  C
  C47      1.0000 0.49430  0.13800  0.04720  Biso   1.000  C
  C48      1.0000 0.50570  0.63800  0.45280  Biso   1.000  C
  C49      1.0000 0.17990  0.96240  0.98490  Biso   1.000  C
  C50      1.0000 0.82010  0.46240  0.51510  Biso   1.000  C
  C51      1.0000 0.82010  0.03760  0.01510  Biso   1.000  C
  C52      1.0000 0.17990  0.53760  0.48490  Biso   1.000  C
  C53      1.0000 0.17520  0.03340  0.02580  Biso   1.000  C
  C54      1.0000 0.82480  0.53340  0.47420  Biso   1.000  C
  C55      1.0000 0.82480  0.96660  0.97420  Biso   1.000  C
  C56      1.0000 0.17520  0.46660  0.52580  Biso   1.000  C
  C57      1.0000 0.11460  0.09130  0.01880  Biso   1.000  C
  C58      1.0000 0.88540  0.59130  0.48120  Biso   1.000  C
  C59      1.0000 0.88540  0.90870  0.98120  Biso   1.000  C
  C60      1.0000 0.11460  0.40870  0.51880  Biso   1.000  C
  C61      1.0000 0.06080  0.07810  0.97240  Biso   1.000  C
  C62      1.0000 0.93920  0.57810  0.52760  Biso   1.000  C
  C63      1.0000 0.93920  0.92190  0.02760  Biso   1.000  C
  C64      1.0000 0.06080  0.42190  0.47240  Biso   1.000  C
  C65      1.0000 0.07000  0.00670  0.93270  Biso   1.000  C
  C66      1.0000 0.93000  0.50670  0.56730  Biso   1.000  C
  C67      1.0000 0.93000  0.99330  0.06730  Biso   1.000  C
  C68      1.0000 0.07000  0.49330  0.43270  Biso   1.000  C
  C69      1.0000 0.01730  0.99090  0.87840  Biso   1.000  C
  C70      1.0000 0.98270  0.49090  0.62160  Biso   1.000  C
  C71      1.0000 0.98270  0.00910  0.12160  Biso   1.000  C
  C72      1.0000 0.01730  0.50910  0.37840  Biso   1.000  C
  C73      1.0000 0.01770  0.89090  0.78860  Biso   1.000  C
  C74      1.0000 0.98230  0.39090  0.71140  Biso   1.000  C
  C75      1.0000 0.98230  0.10910  0.21140  Biso   1.000  C
  C76      1.0000 0.01770  0.60910  0.28860  Biso   1.000  C
  C77      1.0000 0.05310  0.80120  0.77170  Biso   1.000  C
  C78      1.0000 0.94690  0.30120  0.72830  Biso   1.000  C
  C79      1.0000 0.94690  0.19880  0.22830  Biso   1.000  C
  C80      1.0000 0.05310  0.69880  0.27170  Biso   1.000  C
  C81      1.0000 0.03530  0.75810  0.71740  Biso   1.000  C
  C82      1.0000 0.96470  0.25810  0.78260  Biso   1.000  C
  C83      1.0000 0.96470  0.24190  0.28260  Biso   1.000  C
  C84      1.0000 0.03530  0.74190  0.21740  Biso   1.000  C
  C85      1.0000 0.06980  0.67650  0.70530  Biso   1.000  C
  C86      1.0000 0.93020  0.17650  0.79470  Biso   1.000  C
  C87      1.0000 0.93020  0.32350  0.29470  Biso   1.000  C
  C88      1.0000 0.06980  0.82350  0.20530  Biso   1.000  C
  C89      1.0000 0.11900  0.63680  0.74740  Biso   1.000  C
  C90      1.0000 0.88100  0.13680  0.75260  Biso   1.000  C
  C91      1.0000 0.88100  0.36320  0.25260  Biso   1.000  C
  C92      1.0000 0.11900  0.86320  0.24740  Biso   1.000  C
  C93      1.0000 0.13510  0.68280  0.79980  Biso   1.000  C
  C94      1.0000 0.86490  0.18280  0.70020  Biso   1.000  C
  C95      1.0000 0.86490  0.31720  0.20020  Biso   1.000  C
  C96      1.0000 0.13510  0.81720  0.29980  Biso   1.000  C
  C97      1.0000 0.42620  0.56270  0.04390  Biso   1.000  C
  C98      1.0000 0.57380  0.06270  0.45610  Biso   1.000  C
  C99      1.0000 0.57380  0.43730  0.95610  Biso   1.000  C
  C100     1.0000 0.42620  0.93730  0.54390  Biso   1.000  C
  C101     1.0000 0.49510  0.54720  0.07420  Biso   1.000  C
  C102     1.0000 0.50490  0.04720  0.42580  Biso   1.000  C
  C103     1.0000 0.50490  0.45280  0.92580  Biso   1.000  C
  C104     1.0000 0.49510  0.95280  0.57420  Biso   1.000  C
  C105     1.0000 0.51550  0.45770  0.08980  Biso   1.000  C
  C106     1.0000 0.48450  0.95770  0.41020  Biso   1.000  C
  C107     1.0000 0.48450  0.54230  0.91020  Biso   1.000  C
  C108     1.0000 0.51550  0.04230  0.58980  Biso   1.000  C
  C109     1.0000 0.46580  0.38550  0.07500  Biso   1.000  C
  C110     1.0000 0.53420  0.88550  0.42500  Biso   1.000  C
  C111     1.0000 0.53420  0.61450  0.92500  Biso   1.000  C
  C112     1.0000 0.46580  0.11450  0.57500  Biso   1.000  C
  C113     1.0000 0.39760  0.40500  0.04470  Biso   1.000  C
  C114     1.0000 0.60240  0.90500  0.45530  Biso   1.000  C
  C115     1.0000 0.60240  0.59500  0.95530  Biso   1.000  C
  C116     1.0000 0.39760  0.09500  0.54470  Biso   1.000  C
  C117     1.0000 0.34040  0.33200  0.02600  Biso   1.000  C
  C118     1.0000 0.65960  0.83200  0.47400  Biso   1.000  C
  C119     1.0000 0.65960  0.66800  0.97400  Biso   1.000  C
  C120     1.0000 0.34040  0.16800  0.52600  Biso   1.000  C
  C121     1.0000 0.20420  0.32620  0.98990  Biso   1.000  C
  C122     1.0000 0.79580  0.82620  0.51010  Biso   1.000  C
  C123     1.0000 0.79580  0.67380  0.01010  Biso   1.000  C
  C124     1.0000 0.20420  0.17380  0.48990  Biso   1.000  C
  C125     1.0000 0.14610  0.39440  0.96760  Biso   1.000  C
  C126     1.0000 0.85390  0.89440  0.53240  Biso   1.000  C
  C127     1.0000 0.85390  0.60560  0.03240  Biso   1.000  C
  C128     1.0000 0.14610  0.10560  0.46760  Biso   1.000  C
  C129     1.0000 0.07440  0.36750  0.94580  Biso   1.000  C
  C130     1.0000 0.92560  0.86750  0.55420  Biso   1.000  C
  C131     1.0000 0.92560  0.63250  0.05420  Biso   1.000  C
  C132     1.0000 0.07440  0.13250  0.44580  Biso   1.000  C
  C133     1.0000 0.02520  0.43430  0.92350  Biso   1.000  C
  C134     1.0000 0.97480  0.93430  0.57650  Biso   1.000  C
  C135     1.0000 0.97480  0.56570  0.07650  Biso   1.000  C
  C136     1.0000 0.02520  0.06570  0.42350  Biso   1.000  C
  C137     1.0000 0.04720  0.52610  0.92300  Biso   1.000  C
  C138     1.0000 0.95280  0.02610  0.57700  Biso   1.000  C
  C139     1.0000 0.95280  0.47390  0.07700  Biso   1.000  C
  C140     1.0000 0.04720  0.97390  0.42300  Biso   1.000  C
  C141     1.0000 0.11880  0.54860  0.94500  Biso   1.000  C
  C142     1.0000 0.88120  0.04860  0.55500  Biso   1.000  C
  C143     1.0000 0.88120  0.45140  0.05500  Biso   1.000  C
  C144     1.0000 0.11880  0.95140  0.44500  Biso   1.000  C
  N1       1.0000 0.37690  0.75620  0.76360  Biso   1.000  N
  N2       1.0000 0.62310  0.25620  0.73640  Biso   1.000  N
  N3       1.0000 0.62310  0.24380  0.23640  Biso   1.000  N
  N4       1.0000 0.37690  0.74380  0.26360  Biso   1.000  N
  N5       1.0000 0.48700  0.87490  0.77940  Biso   1.000  N
  N6       1.0000 0.51300  0.37490  0.72060  Biso   1.000  N
  N7       1.0000 0.51300  0.12510  0.22060  Biso   1.000  N
  N8       1.0000 0.48700  0.62510  0.27940  Biso   1.000  N
  N9       1.0000 0.49490  0.87890  0.89440  Biso   1.000  N
  N10      1.0000 0.50510  0.37890  0.60560  Biso   1.000  N
  N11      1.0000 0.50510  0.12110  0.10560  Biso   1.000  N
  N12      1.0000 0.49490  0.62110  0.39440  Biso   1.000  N
  N13      1.0000 0.12850  0.94970  0.93990  Biso   1.000  N
  N14      1.0000 0.87150  0.44970  0.56010  Biso   1.000  N
  N15      1.0000 0.87150  0.05030  0.06010  Biso   1.000  N
  N16      1.0000 0.12850  0.55030  0.43990  Biso   1.000  N
  N17      1.0000 0.02710  0.89840  0.85320  Biso   1.000  N
  N18      1.0000 0.97290  0.39840  0.64680  Biso   1.000  N
  N19      1.0000 0.97290  0.10160  0.14680  Biso   1.000  N
  N20      1.0000 0.02710  0.60160  0.35320  Biso   1.000  N
  N21      1.0000 0.10340  0.76500  0.81200  Biso   1.000  N
  N22      1.0000 0.89660  0.26500  0.68800  Biso   1.000  N
  N23      1.0000 0.89660  0.23500  0.18800  Biso   1.000  N
  N24      1.0000 0.10340  0.73500  0.31200  Biso   1.000  N
  N25      1.0000 0.37810  0.49340  0.02910  Biso   1.000  N
  N26      1.0000 0.62190  0.99340  0.47090  Biso   1.000  N
  N27      1.0000 0.62190  0.50660  0.97090  Biso   1.000  N
  N28      1.0000 0.37810  0.00660  0.52910  Biso   1.000  N
  N29      1.0000 0.26530  0.37630  0.02340  Biso   1.000  N
  N30      1.0000 0.73470  0.87630  0.47660  Biso   1.000  N
  N31      1.0000 0.73470  0.62370  0.97660  Biso   1.000  N
  N32      1.0000 0.26530  0.12370  0.52340  Biso   1.000  N
  N33      1.0000 0.16710  0.48440  0.96700  Biso   1.000  N
  N34      1.0000 0.83290  0.98440  0.53300  Biso   1.000  N
  N35      1.0000 0.83290  0.51560  0.03300  Biso   1.000  N
  N36      1.0000 0.16710  0.01560  0.46700  Biso   1.000  N
  H1       1.0000 0.32670  0.64690  0.79420  Biso   1.000  H
  H2       1.0000 0.67330  0.14690  0.70580  Biso   1.000  H
  H3       1.0000 0.67330  0.35310  0.20580  Biso   1.000  H
  H4       1.0000 0.32670  0.85310  0.29420  Biso   1.000  H
  H5       1.0000 0.27280  0.59450  0.70530  Biso   1.000  H
  H6       1.0000 0.72720  0.09450  0.79470  Biso   1.000  H
  H7       1.0000 0.72720  0.40550  0.29470  Biso   1.000  H
  H8       1.0000 0.27280  0.90550  0.20530  Biso   1.000  H
  H9       1.0000 0.29250  0.67560  0.61870  Biso   1.000  H
  H10      1.0000 0.70750  0.17560  0.88130  Biso   1.000  H
  H11      1.0000 0.70750  0.32440  0.38130  Biso   1.000  H
  H12      1.0000 0.29250  0.82440  0.11870  Biso   1.000  H
  H13      1.0000 0.36750  0.80760  0.62570  Biso   1.000  H
  H14      1.0000 0.63250  0.30760  0.87430  Biso   1.000  H
  H15      1.0000 0.63250  0.19240  0.37430  Biso   1.000  H
  H16      1.0000 0.36750  0.69240  0.12570  Biso   1.000  H
  H17      1.0000 0.47210  0.89100  0.69020  Biso   1.000  H
  H18      1.0000 0.52790  0.39100  0.80980  Biso   1.000  H
  H19      1.0000 0.52790  0.10900  0.30980  Biso   1.000  H
  H20      1.0000 0.47210  0.60900  0.19020  Biso   1.000  H
  H21      1.0000 0.41040  0.94210  0.72370  Biso   1.000  H
  H22      1.0000 0.58960  0.44210  0.77630  Biso   1.000  H
  H23      1.0000 0.58960  0.05790  0.27630  Biso   1.000  H
  H24      1.0000 0.41040  0.55790  0.22370  Biso   1.000  H
  H25      1.0000 0.48410  0.01230  0.79900  Biso   1.000  H
  H26      1.0000 0.51590  0.51230  0.70100  Biso   1.000  H
  H27      1.0000 0.51590  0.98770  0.20100  Biso   1.000  H
  H28      1.0000 0.48410  0.48770  0.29900  Biso   1.000  H
  H29      1.0000 0.56510  0.97700  0.78830  Biso   1.000  H
  H30      1.0000 0.43490  0.47700  0.71170  Biso   1.000  H
  H31      1.0000 0.43490  0.02300  0.21170  Biso   1.000  H
  H32      1.0000 0.56510  0.52300  0.28830  Biso   1.000  H
  H33      1.0000 0.61300  0.04590  0.88880  Biso   1.000  H
  H34      1.0000 0.38700  0.54590  0.61120  Biso   1.000  H
  H35      1.0000 0.38700  0.95410  0.11120  Biso   1.000  H
  H36      1.0000 0.61300  0.45410  0.38880  Biso   1.000  H
  H37      1.0000 0.63270  0.01470  0.98850  Biso   1.000  H
  H38      1.0000 0.36730  0.51470  0.51150  Biso   1.000  H
  H39      1.0000 0.36730  0.98530  0.01150  Biso   1.000  H
  H40      1.0000 0.63270  0.48530  0.48850  Biso   1.000  H
  H41      1.0000 0.56620  0.89530  0.02890  Biso   1.000  H
  H42      1.0000 0.43380  0.39530  0.47110  Biso   1.000  H
  H43      1.0000 0.43380  0.10470  0.97110  Biso   1.000  H
  H44      1.0000 0.56620  0.60470  0.52890  Biso   1.000  H
  H45      1.0000 0.47690  0.81660  0.96930  Biso   1.000  H
  H46      1.0000 0.52310  0.31660  0.53070  Biso   1.000  H
  H47      1.0000 0.52310  0.18340  0.03070  Biso   1.000  H
  H48      1.0000 0.47690  0.68340  0.46930  Biso   1.000  H
  H49      1.0000 0.22070  0.92210  0.98910  Biso   1.000  H
  H50      1.0000 0.77930  0.42210  0.51090  Biso   1.000  H
  H51      1.0000 0.77930  0.07790  0.01090  Biso   1.000  H
  H52      1.0000 0.22070  0.57790  0.48910  Biso   1.000  H
  H53      1.0000 0.21190  0.04130  0.05680  Biso   1.000  H
  H54      1.0000 0.78810  0.54130  0.44320  Biso   1.000  H
  H55      1.0000 0.78810  0.95870  0.94320  Biso   1.000  H
  H56      1.0000 0.21190  0.45870  0.55680  Biso   1.000  H
  H57      1.0000 0.10970  0.13980  0.04530  Biso   1.000  H
  H58      1.0000 0.89030  0.63980  0.45470  Biso   1.000  H
  H59      1.0000 0.89030  0.86020  0.95470  Biso   1.000  H
  H60      1.0000 0.10970  0.36020  0.54530  Biso   1.000  H
  H61      1.0000 0.01890  0.11660  0.96780  Biso   1.000  H
  H62      1.0000 0.98110  0.61660  0.53220  Biso   1.000  H
  H63      1.0000 0.98110  0.88340  0.03220  Biso   1.000  H
  H64      1.0000 0.01890  0.38340  0.46780  Biso   1.000  H
  H65      1.0000 0.96610  0.99770  0.88860  Biso   1.000  H
  H66      1.0000 0.03390  0.49770  0.61140  Biso   1.000  H
  H67      1.0000 0.03390  0.00230  0.11140  Biso   1.000  H
  H68      1.0000 0.96610  0.50230  0.38860  Biso   1.000  H
  H69      1.0000 0.02630  0.03780  0.84900  Biso   1.000  H
  H70      1.0000 0.97370  0.53780  0.65100  Biso   1.000  H
  H71      1.0000 0.97370  0.96220  0.15100  Biso   1.000  H
  H72      1.0000 0.02630  0.46220  0.34900  Biso   1.000  H
  H73      1.0000 0.04160  0.94300  0.77060  Biso   1.000  H
  H74      1.0000 0.95840  0.44300  0.72940  Biso   1.000  H
  H75      1.0000 0.95840  0.05700  0.22940  Biso   1.000  H
  H76      1.0000 0.04160  0.55700  0.27060  Biso   1.000  H
  H77      1.0000 0.96490  0.89110  0.77500  Biso   1.000  H
  H78      1.0000 0.03510  0.39110  0.72500  Biso   1.000  H
  H79      1.0000 0.03510  0.10890  0.22500  Biso   1.000  H
  H80      1.0000 0.96490  0.60890  0.27500  Biso   1.000  H
  H81      1.0000 0.00030  0.78460  0.68980  Biso   1.000  H
  H82      1.0000 0.99970  0.28460  0.81020  Biso   1.000  H
  H83      1.0000 0.99970  0.21540  0.31020  Biso   1.000  H
  H84      1.0000 0.00030  0.71540  0.18980  Biso   1.000  H
  H85      1.0000 0.06000  0.64800  0.66870  Biso   1.000  H
  H86      1.0000 0.94000  0.14800  0.83130  Biso   1.000  H
  H87      1.0000 0.94000  0.35200  0.33130  Biso   1.000  H
  H88      1.0000 0.06000  0.85200  0.16870  Biso   1.000  H
  H89      1.0000 0.14110  0.57970  0.74050  Biso   1.000  H
  H90      1.0000 0.85890  0.07970  0.75950  Biso   1.000  H
  H91      1.0000 0.85890  0.42030  0.25950  Biso   1.000  H
  H92      1.0000 0.14110  0.92030  0.24050  Biso   1.000  H
  H93      1.0000 0.16920  0.65620  0.82820  Biso   1.000  H
  H94      1.0000 0.83080  0.15620  0.67180  Biso   1.000  H
  H95      1.0000 0.83080  0.34380  0.17180  Biso   1.000  H
  H96      1.0000 0.16920  0.84380  0.32820  Biso   1.000  H
  H97      1.0000 0.41270  0.62330  0.03340  Biso   1.000  H
  H98      1.0000 0.58730  0.12330  0.46660  Biso   1.000  H
  H99      1.0000 0.58730  0.37670  0.96660  Biso   1.000  H
  H100     1.0000 0.41270  0.87670  0.53340  Biso   1.000  H
  H101     1.0000 0.52730  0.59670  0.08400  Biso   1.000  H
  H102     1.0000 0.47270  0.09670  0.41600  Biso   1.000  H
  H103     1.0000 0.47270  0.40330  0.91600  Biso   1.000  H
  H104     1.0000 0.52730  0.90330  0.58400  Biso   1.000  H
  H105     1.0000 0.56180  0.44570  0.11000  Biso   1.000  H
  H106     1.0000 0.43820  0.94570  0.39000  Biso   1.000  H
  H107     1.0000 0.43820  0.55430  0.89000  Biso   1.000  H
  H108     1.0000 0.56180  0.05430  0.61000  Biso   1.000  H
  H109     1.0000 0.47850  0.32460  0.08540  Biso   1.000  H
  H110     1.0000 0.52150  0.82460  0.41460  Biso   1.000  H
  H111     1.0000 0.52150  0.67540  0.91460  Biso   1.000  H
  H112     1.0000 0.47850  0.17540  0.58540  Biso   1.000  H
  H113     1.0000 0.34970  0.30740  0.98750  Biso   1.000  H
  H114     1.0000 0.65030  0.80740  0.51250  Biso   1.000  H
  H115     1.0000 0.65030  0.69260  0.01250  Biso   1.000  H
  H116     1.0000 0.34970  0.19260  0.48750  Biso   1.000  H
  H117     1.0000 0.34300  0.28110  0.05420  Biso   1.000  H
  H118     1.0000 0.65700  0.78110  0.44580  Biso   1.000  H
  H119     1.0000 0.65700  0.71890  0.94580  Biso   1.000  H
  H120     1.0000 0.34300  0.21890  0.55420  Biso   1.000  H
  H121     1.0000 0.18260  0.28080  0.01510  Biso   1.000  H
  H122     1.0000 0.81740  0.78080  0.48490  Biso   1.000  H
  H123     1.0000 0.81740  0.71920  0.98490  Biso   1.000  H
  H124     1.0000 0.18260  0.21920  0.51510  Biso   1.000  H
  H125     1.0000 0.22340  0.29350  0.95690  Biso   1.000  H
  H126     1.0000 0.77660  0.79350  0.54310  Biso   1.000  H
  H127     1.0000 0.77660  0.70650  0.04310  Biso   1.000  H
  H128     1.0000 0.22340  0.20650  0.45690  Biso   1.000  H
  H129     1.0000 0.06020  0.30530  0.94620  Biso   1.000  H
  H130     1.0000 0.93980  0.80530  0.55380  Biso   1.000  H
  H131     1.0000 0.93980  0.69470  0.05380  Biso   1.000  H
  H132     1.0000 0.06020  0.19470  0.44620  Biso   1.000  H
  H133     1.0000 0.97710  0.41760  0.90880  Biso   1.000  H
  H134     1.0000 0.02290  0.91760  0.59120  Biso   1.000  H
  H135     1.0000 0.02290  0.58240  0.09120  Biso   1.000  H
  H136     1.0000 0.97710  0.08240  0.40880  Biso   1.000  H
  H137     1.0000 0.01420  0.57210  0.90810  Biso   1.000  H
  H138     1.0000 0.98580  0.07210  0.59190  Biso   1.000  H
  H139     1.0000 0.98580  0.42790  0.09190  Biso   1.000  H
  H140     1.0000 0.01420  0.92790  0.40810  Biso   1.000  H
  H141     1.0000 0.13400  0.61050  0.94440  Biso   1.000  H
  H142     1.0000 0.86600  0.11050  0.55560  Biso   1.000  H
  H143     1.0000 0.86600  0.38950  0.05560  Biso   1.000  H
  H144     1.0000 0.13400  0.88950  0.44440  Biso   1.000  H
  H145     1.0000 0.52560  0.83610  0.77280  Biso   1.000  H
  H146     1.0000 0.47440  0.33610  0.72720  Biso   1.000  H
  H147     1.0000 0.47440  0.16390  0.22720  Biso   1.000  H
  H148     1.0000 0.52560  0.66390  0.27280  Biso   1.000  H
  H149     1.0000 0.99210  0.86060  0.86770  Biso   1.000  H
  H150     1.0000 0.00790  0.36060  0.63230  Biso   1.000  H
  H151     1.0000 0.00790  0.13940  0.13230  Biso   1.000  H
  H152     1.0000 0.99210  0.63940  0.36770  Biso   1.000  H
  H153     1.0000 0.25250  0.38090  0.06130  Biso   1.000  H
  H154     1.0000 0.74750  0.88090  0.43870  Biso   1.000  H
  H155     1.0000 0.74750  0.61910  0.93870  Biso   1.000  H
  H156     1.0000 0.25250  0.11910  0.56130  Biso   1.000  H
  Mo1      1.0000 0.30230  0.74310  0.94150  Biso   1.000  Mo
  Mo2      1.0000 0.69770  0.24310  0.55850  Biso   1.000  Mo
  Mo3      1.0000 0.69770  0.25690  0.05850  Biso   1.000  Mo
  Mo4      1.0000 0.30230  0.75690  0.44150  Biso   1.000  Mo
  Mo5      1.0000 0.30470  0.38550  0.83450  Biso   1.000  Mo
  Mo6      1.0000 0.69530  0.88550  0.66550  Biso   1.000  Mo
  Mo7      1.0000 0.69530  0.61450  0.16550  Biso   1.000  Mo
  Mo8      1.0000 0.30470  0.11450  0.33450  Biso   1.000  Mo
  Mo9      1.0000 0.22820  0.36640  0.69990  Biso   1.000  Mo
  Mo10     1.0000 0.77180  0.86640  0.80010  Biso   1.000  Mo
  Mo11     1.0000 0.77180  0.63360  0.30010  Biso   1.000  Mo
  Mo12     1.0000 0.22820  0.13360  0.19990  Biso   1.000  Mo
  Mo13     1.0000 0.18760  0.19780  0.80470  Biso   1.000  Mo
  Mo14     1.0000 0.81240  0.69780  0.69530  Biso   1.000  Mo
  Mo15     1.0000 0.81240  0.80220  0.19530  Biso   1.000  Mo
  Mo16     1.0000 0.18760  0.30220  0.30470  Biso   1.000  Mo
  Mo17     1.0000 0.38350  0.18330  0.82800  Biso   1.000  Mo
  Mo18     1.0000 0.61650  0.68330  0.67200  Biso   1.000  Mo
  Mo19     1.0000 0.61650  0.81670  0.17200  Biso   1.000  Mo
  Mo20     1.0000 0.38350  0.31670  0.32800  Biso   1.000  Mo
  Mo21     1.0000 0.26710  0.99960  0.79430  Biso   1.000  Mo
  Mo22     1.0000 0.73290  0.49960  0.70570  Biso   1.000  Mo
  Mo23     1.0000 0.73290  0.00040  0.20570  Biso   1.000  Mo
  Mo24     1.0000 0.26710  0.50040  0.29430  Biso   1.000  Mo
  Mo25     1.0000 0.31570  0.17150  0.69370  Biso   1.000  Mo
  Mo26     1.0000 0.68430  0.67150  0.80630  Biso   1.000  Mo
  Mo27     1.0000 0.68430  0.82850  0.30630  Biso   1.000  Mo
  Mo28     1.0000 0.31570  0.32850  0.19370  Biso   1.000  Mo
  Mo29     1.0000 0.12010  0.17340  0.67050  Biso   1.000  Mo
  Mo30     1.0000 0.87990  0.67340  0.82950  Biso   1.000  Mo
  Mo31     1.0000 0.87990  0.82660  0.32950  Biso   1.000  Mo
  Mo32     1.0000 0.12010  0.32660  0.17050  Biso   1.000  Mo
  Mo33     1.0000 0.20600  0.97560  0.65360  Biso   1.000  Mo
  Mo34     1.0000 0.79400  0.47560  0.84640  Biso   1.000  Mo
  Mo35     1.0000 0.79400  0.02440  0.34640  Biso   1.000  Mo
  Mo36     1.0000 0.20600  0.52440  0.15360  Biso   1.000  Mo
