data_image0
_cell_length_a       8.359
_cell_length_b       8.905
_cell_length_c       12.006
_cell_angle_alpha    69.44
_cell_angle_beta     70.15
_cell_angle_gamma    78.2

_symmetry_space_group_name_H-M    "P 1"
_symmetry_int_tables_number       1

loop_
  _symmetry_equiv_pos_as_xyz
  'x, y, z'

loop_
  _atom_site_label
  _atom_site_occupancy
  _atom_site_fract_x
  _atom_site_fract_y
  _atom_site_fract_z
  _atom_site_thermal_displace_type
  _atom_site_B_iso_or_equiv
  _atom_site_type_symbol
  Cu1      1.0000 0.23261  0.77424  0.16588  Biso   1.000  Cu
  Cu2      1.0000 0.76739  0.22576  0.83412  Biso   1.000  Cu
  O1       1.0000 0.18382  0.51763  0.27920  Biso   1.000  O
  O2       1.0000 0.81618  0.48237  0.72080  Biso   1.000  O
  H1       1.0000 0.18590  0.46140  0.24030  Biso   1.000  H
  H2       1.0000 0.81410  0.53860  0.75970  Biso   1.000  H
  H3       1.0000 0.24710  0.46610  0.32600  Biso   1.000  H
  H4       1.0000 0.75290  0.53390  0.67400  Biso   1.000  H
  O3       1.0000 0.07298  0.87833  0.29006  Biso   1.000  O
  O4       1.0000 0.92702  0.12167  0.70994  Biso   1.000  O
  O5       1.0000 0.41154  0.72825  0.01997  Biso   1.000  O
  O6       1.0000 0.58846  0.27175  0.98003  Biso   1.000  O
  N1       1.0000 0.12129  0.85938  0.39019  Biso   1.000  N
  N2       1.0000 0.87871  0.14062  0.60981  Biso   1.000  N
  N3       1.0000 0.36885  0.75092  0.91703  Biso   1.000  N
  N4       1.0000 0.63115  0.24908  0.08297  Biso   1.000  N
  C1       1.0000 0.19780  0.97760  0.39236  Biso   1.000  C
  C2       1.0000 0.80220  0.02240  0.60764  Biso   1.000  C
  H5       1.0000 0.21770  0.07260  0.32330  Biso   1.000  H
  H6       1.0000 0.78230  0.92740  0.67670  Biso   1.000  H
  C3       1.0000 0.24710  0.95980  0.49528  Biso   1.000  C
  C4       1.0000 0.75290  0.04020  0.50472  Biso   1.000  C
  H7       1.0000 0.30040  0.04330  0.49680  Biso   1.000  H
  H8       1.0000 0.69960  0.95670  0.50320  Biso   1.000  H
  C5       1.0000 0.21940  0.82010  0.59748  Biso   1.000  C
  C6       1.0000 0.78060  0.17990  0.40252  Biso   1.000  C
  C7       1.0000 0.13960  0.70130  0.59032  Biso   1.000  C
  C8       1.0000 0.86040  0.29870  0.40968  Biso   1.000  C
  H9       1.0000 0.11880  0.60460  0.65770  Biso   1.000  H
  H10      1.0000 0.88120  0.39540  0.34230  Biso   1.000  H
  C9       1.0000 0.09130  0.72330  0.48692  Biso   1.000  C
  C10      1.0000 0.90870  0.27670  0.51308  Biso   1.000  C
  H11      1.0000 0.03640  0.64230  0.48340  Biso   1.000  H
  H12      1.0000 0.96360  0.35770  0.51660  Biso   1.000  H
  C11      1.0000 0.27180  0.79704  0.70847  Biso   1.000  C
  C12      1.0000 0.72820  0.20296  0.29153  Biso   1.000  C
  C13      1.0000 0.28260  0.92770  0.74354  Biso   1.000  C
  C14      1.0000 0.71740  0.07230  0.25646  Biso   1.000  C
  H13      1.0000 0.25570  0.03440  0.69550  Biso   1.000  H
  H14      1.0000 0.74430  0.96560  0.30450  Biso   1.000  H
  C15      1.0000 0.33210  0.90250  0.84732  Biso   1.000  C
  C16      1.0000 0.66790  0.09750  0.15268  Biso   1.000  C
  H15      1.0000 0.34050  0.99180  0.87010  Biso   1.000  H
  H16      1.0000 0.65950  0.00820  0.12990  Biso   1.000  H
  C17      1.0000 0.36100  0.62160  0.88613  Biso   1.000  C
  C18      1.0000 0.63900  0.37840  0.11387  Biso   1.000  C
  H17      1.0000 0.38870  0.51610  0.93570  Biso   1.000  H
  H18      1.0000 0.61130  0.48390  0.06430  Biso   1.000  H
  C19      1.0000 0.31270  0.64300  0.78269  Biso   1.000  C
  C20      1.0000 0.68730  0.35700  0.21731  Biso   1.000  C
  H19      1.0000 0.30710  0.55150  0.76130  Biso   1.000  H
  H20      1.0000 0.69290  0.44850  0.23870  Biso   1.000  H
  N5       1.0000 0.81773  0.80830  0.01117  Biso   1.000  N
  N6       1.0000 0.18227  0.19170  0.98883  Biso   1.000  N
  C21      1.0000 0.94670  0.79960  0.05092  Biso   1.000  C
  C22      1.0000 0.05330  0.20040  0.94908  Biso   1.000  C
  N7       1.0000 0.05026  0.80402  0.09283  Biso   1.000  N
  N8       1.0000 0.94974  0.19598  0.90717  Biso   1.000  N
  C23      1.0000 0.82850  0.74160  0.92724  Biso   1.000  C
  C24      1.0000 0.17150  0.25840  0.07276  Biso   1.000  C
  N9       1.0000 0.82320  0.68794  0.85438  Biso   1.000  N
  N10      1.0000 0.17680  0.31206  0.14562  Biso   1.000  N
  N11      1.0000 0.65806  0.67732  0.32165  Biso   1.000  N
  N12      1.0000 0.34194  0.32268  0.67835  Biso   1.000  N
  C25      1.0000 0.52600  0.72182  0.27980  Biso   1.000  C
  C26      1.0000 0.47400  0.27818  0.72020  Biso   1.000  C
  N13      1.0000 0.42123  0.76164  0.23009  Biso   1.000  N
  N14      1.0000 0.57877  0.23836  0.76991  Biso   1.000  N
  C27      1.0000 0.64610  0.66620  0.43617  Biso   1.000  C
  C28      1.0000 0.35390  0.33380  0.56383  Biso   1.000  C
  N15      1.0000 0.65350  0.65430  0.53327  Biso   1.000  N
  N16      1.0000 0.34650  0.34570  0.46673  Biso   1.000  N
