data_image0
_cell_length_a       8.33
_cell_length_b       14.28
_cell_length_c       16.23
_cell_angle_alpha    90
_cell_angle_beta     90
_cell_angle_gamma    90

_symmetry_space_group_name_H-M    "P 1"
_symmetry_int_tables_number       1

loop_
  _symmetry_equiv_pos_as_xyz
  'x, y, z'

loop_
  _atom_site_label
  _atom_site_occupancy
  _atom_site_fract_x
  _atom_site_fract_y
  _atom_site_fract_z
  _atom_site_thermal_displace_type
  _atom_site_B_iso_or_equiv
  _atom_site_type_symbol
  Cu1      1.0000 0.27440  0.17040  0.00880  Biso   1.000  Cu
  Cu2      1.0000 0.77440  0.32960  0.99120  Biso   1.000  Cu
  Cu3      1.0000 0.72560  0.67040  0.49120  Biso   1.000  Cu
  Cu4      1.0000 0.22560  0.82960  0.50880  Biso   1.000  Cu
  O1       1.0000 0.21730  0.01380  0.21530  Biso   1.000  O
  O2       1.0000 0.71730  0.48620  0.78470  Biso   1.000  O
  O3       1.0000 0.78270  0.51380  0.28470  Biso   1.000  O
  O4       1.0000 0.28270  0.98620  0.71530  Biso   1.000  O
  O5       1.0000 0.07500  0.24610  0.01310  Biso   1.000  O
  O6       1.0000 0.57500  0.25390  0.98690  Biso   1.000  O
  O7       1.0000 0.92500  0.74610  0.48690  Biso   1.000  O
  O8       1.0000 0.42500  0.75390  0.51310  Biso   1.000  O
  O9       1.0000 0.86230  0.27160  0.09150  Biso   1.000  O
  O10      1.0000 0.36230  0.22840  0.90850  Biso   1.000  O
  O11      1.0000 0.13770  0.77160  0.40850  Biso   1.000  O
  O12      1.0000 0.63770  0.72840  0.59150  Biso   1.000  O
  O13      1.0000 0.42770  0.57480  0.09080  Biso   1.000  O
  O14      1.0000 0.92770  0.92520  0.90920  Biso   1.000  O
  O15      1.0000 0.57230  0.07480  0.40920  Biso   1.000  O
  O16      1.0000 0.07230  0.42520  0.59080  Biso   1.000  O
  N1       1.0000 0.41170  0.05800  0.01270  Biso   1.000  N
  N2       1.0000 0.91170  0.44200  0.98730  Biso   1.000  N
  N3       1.0000 0.58830  0.55800  0.48730  Biso   1.000  N
  N4       1.0000 0.08830  0.94200  0.51270  Biso   1.000  N
  N5       1.0000 0.20340  0.13000  0.11610  Biso   1.000  N
  N6       1.0000 0.70340  0.37000  0.88390  Biso   1.000  N
  N7       1.0000 0.79660  0.63000  0.38390  Biso   1.000  N
  N8       1.0000 0.29660  0.87000  0.61610  Biso   1.000  N
  C1       1.0000 0.39640  0.00880  0.09320  Biso   1.000  C
  C2       1.0000 0.89640  0.49120  0.90680  Biso   1.000  C
  C3       1.0000 0.60360  0.50880  0.40680  Biso   1.000  C
  C4       1.0000 0.10360  0.99120  0.59320  Biso   1.000  C
  C5       1.0000 0.26080  0.05040  0.14660  Biso   1.000  C
  C6       1.0000 0.76080  0.44960  0.85340  Biso   1.000  C
  C7       1.0000 0.73920  0.55040  0.35340  Biso   1.000  C
  C8       1.0000 0.23920  0.94960  0.64660  Biso   1.000  C
  C9       1.0000 0.54910  0.00440  0.14620  Biso   1.000  C
  C10      1.0000 0.04910  0.49560  0.85380  Biso   1.000  C
  C11      1.0000 0.45090  0.50440  0.35380  Biso   1.000  C
  C12      1.0000 0.95090  0.99560  0.64620  Biso   1.000  C
  C13      1.0000 0.60200  0.10130  0.17460  Biso   1.000  C
  C14      1.0000 0.10200  0.39870  0.82540  Biso   1.000  C
  C15      1.0000 0.39800  0.60130  0.32540  Biso   1.000  C
  C16      1.0000 0.89800  0.89870  0.67460  Biso   1.000  C
  C17      1.0000 0.68200  0.94690  0.10070  Biso   1.000  C
  C18      1.0000 0.18200  0.55310  0.89930  Biso   1.000  C
  C19      1.0000 0.31800  0.44690  0.39930  Biso   1.000  C
  C20      1.0000 0.81800  0.05310  0.60070  Biso   1.000  C
  C21      1.0000 0.07190  0.17720  0.15250  Biso   1.000  C
  C22      1.0000 0.57190  0.32280  0.84750  Biso   1.000  C
  C23      1.0000 0.92810  0.67720  0.34750  Biso   1.000  C
  C24      1.0000 0.42810  0.82280  0.65250  Biso   1.000  C
  C25      1.0000 0.99500  0.23550  0.08200  Biso   1.000  C
  C26      1.0000 0.49500  0.26450  0.91800  Biso   1.000  C
  C27      1.0000 0.00500  0.73550  0.41800  Biso   1.000  C
  C28      1.0000 0.50500  0.76450  0.58200  Biso   1.000  C
  C29      1.0000 0.12200  0.24600  0.22080  Biso   1.000  C
  C30      1.0000 0.62200  0.25400  0.77920  Biso   1.000  C
  C31      1.0000 0.87800  0.74600  0.27920  Biso   1.000  C
  C32      1.0000 0.37800  0.75400  0.72080  Biso   1.000  C
  C33      1.0000 0.20340  0.33500  0.18500  Biso   1.000  C
  C34      1.0000 0.70340  0.16500  0.81500  Biso   1.000  C
  C35      1.0000 0.79660  0.83500  0.31500  Biso   1.000  C
  C36      1.0000 0.29660  0.66500  0.68500  Biso   1.000  C
  C37      1.0000 0.12010  0.41920  0.18140  Biso   1.000  C
  C38      1.0000 0.62010  0.08080  0.81860  Biso   1.000  C
  C39      1.0000 0.87990  0.91920  0.31860  Biso   1.000  C
  C40      1.0000 0.37990  0.58080  0.68140  Biso   1.000  C
  C41      1.0000 0.19300  0.49900  0.14820  Biso   1.000  C
  C42      1.0000 0.69300  0.00100  0.85180  Biso   1.000  C
  C43      1.0000 0.80700  0.99900  0.35180  Biso   1.000  C
  C44      1.0000 0.30700  0.50100  0.64820  Biso   1.000  C
  C45      1.0000 0.35190  0.49620  0.12220  Biso   1.000  C
  C46      1.0000 0.85190  0.00380  0.87780  Biso   1.000  C
  C47      1.0000 0.64810  0.99620  0.37780  Biso   1.000  C
  C48      1.0000 0.14810  0.50380  0.62220  Biso   1.000  C
  C49      1.0000 0.43620  0.41160  0.12500  Biso   1.000  C
  C50      1.0000 0.93620  0.08840  0.87500  Biso   1.000  C
  C51      1.0000 0.56380  0.91160  0.37500  Biso   1.000  C
  C52      1.0000 0.06380  0.58840  0.62500  Biso   1.000  C
  C53      1.0000 0.36370  0.33200  0.15810  Biso   1.000  C
  C54      1.0000 0.86370  0.16800  0.84190  Biso   1.000  C
  C55      1.0000 0.63630  0.83200  0.34190  Biso   1.000  C
  C56      1.0000 0.13630  0.66800  0.65810  Biso   1.000  C
  O17      1.0000 0.23780  0.06520  0.38050  Biso   1.000  O
  O18      1.0000 0.73780  0.43480  0.61950  Biso   1.000  O
  O19      1.0000 0.76220  0.56520  0.11950  Biso   1.000  O
  O20      1.0000 0.26220  0.93480  0.88050  Biso   1.000  O
  O21      1.0000 0.72580  0.32400  0.26320  Biso   1.000  O
  O22      1.0000 0.22580  0.17600  0.73680  Biso   1.000  O
  O23      1.0000 0.27420  0.82400  0.23680  Biso   1.000  O
  O24      1.0000 0.77420  0.67600  0.76320  Biso   1.000  O
  O25      1.0000 0.73810  0.22990  0.41180  Biso   1.000  O
  O26      1.0000 0.23810  0.27010  0.58820  Biso   1.000  O
  O27      1.0000 0.26190  0.72990  0.08820  Biso   1.000  O
  O28      1.0000 0.76190  0.77010  0.91180  Biso   1.000  O
  O29      1.0000 0.05140  0.21150  0.44930  Biso   1.000  O
  O30      1.0000 0.55140  0.28850  0.55070  Biso   1.000  O
  O31      1.0000 0.94860  0.71150  0.05070  Biso   1.000  O
  O32      1.0000 0.44860  0.78850  0.94930  Biso   1.000  O
