data_image0
_cell_length_a       13.0752
_cell_length_b       13.0752
_cell_length_c       25.2402
_cell_angle_alpha    90
_cell_angle_beta     90
_cell_angle_gamma    120

_symmetry_space_group_name_H-M    "P 1"
_symmetry_int_tables_number       1

loop_
  _symmetry_equiv_pos_as_xyz
  'x, y, z'

loop_
  _atom_site_label
  _atom_site_occupancy
  _atom_site_fract_x
  _atom_site_fract_y
  _atom_site_fract_z
  _atom_site_thermal_displace_type
  _atom_site_B_iso_or_equiv
  _atom_site_type_symbol
  Cu1      1.0000 0.00000  0.50000  0.50000  Biso   1.000  Cu
  Cu2      1.0000 0.50000  0.50000  0.50000  Biso   1.000  Cu
  Cu3      1.0000 0.50000  0.00000  0.50000  Biso   1.000  Cu
  Cu4      1.0000 0.00000  0.50000  0.00000  Biso   1.000  Cu
  Cu5      1.0000 0.50000  0.50000  0.00000  Biso   1.000  Cu
  Cu6      1.0000 0.50000  0.00000  0.00000  Biso   1.000  Cu
  O1       1.0000 0.87110  0.66960  0.65570  Biso   1.000  O
  O2       1.0000 0.33040  0.20150  0.65570  Biso   1.000  O
  O3       1.0000 0.79850  0.12890  0.65570  Biso   1.000  O
  O4       1.0000 0.12890  0.33040  0.15570  Biso   1.000  O
  O5       1.0000 0.66960  0.79850  0.15570  Biso   1.000  O
  O6       1.0000 0.20150  0.87110  0.15570  Biso   1.000  O
  O7       1.0000 0.12890  0.33040  0.34430  Biso   1.000  O
  O8       1.0000 0.66960  0.79850  0.34430  Biso   1.000  O
  O9       1.0000 0.20150  0.87110  0.34430  Biso   1.000  O
  O10      1.0000 0.87110  0.66960  0.84430  Biso   1.000  O
  O11      1.0000 0.33040  0.20150  0.84430  Biso   1.000  O
  O12      1.0000 0.79850  0.12890  0.84430  Biso   1.000  O
  O13      1.0000 0.26300  0.76660  0.65459  Biso   1.000  O
  O14      1.0000 0.23340  0.49640  0.65459  Biso   1.000  O
  O15      1.0000 0.50360  0.73700  0.65459  Biso   1.000  O
  O16      1.0000 0.73700  0.23340  0.15459  Biso   1.000  O
  O17      1.0000 0.76660  0.50360  0.15459  Biso   1.000  O
  O18      1.0000 0.49640  0.26300  0.15459  Biso   1.000  O
  O19      1.0000 0.73700  0.23340  0.34541  Biso   1.000  O
  O20      1.0000 0.76660  0.50360  0.34541  Biso   1.000  O
  O21      1.0000 0.49640  0.26300  0.34541  Biso   1.000  O
  O22      1.0000 0.26300  0.76660  0.84541  Biso   1.000  O
  O23      1.0000 0.23340  0.49640  0.84541  Biso   1.000  O
  O24      1.0000 0.50360  0.73700  0.84541  Biso   1.000  O
  N1       1.0000 0.02990  0.59450  0.56717  Biso   1.000  N
  N2       1.0000 0.40550  0.43540  0.56717  Biso   1.000  N
  N3       1.0000 0.56460  0.97010  0.56717  Biso   1.000  N
  N4       1.0000 0.97010  0.40550  0.06717  Biso   1.000  N
  N5       1.0000 0.59450  0.56460  0.06717  Biso   1.000  N
  N6       1.0000 0.43540  0.02990  0.06717  Biso   1.000  N
  N7       1.0000 0.97010  0.40550  0.43283  Biso   1.000  N
  N8       1.0000 0.59450  0.56460  0.43283  Biso   1.000  N
  N9       1.0000 0.43540  0.02990  0.43283  Biso   1.000  N
  N10      1.0000 0.02990  0.59450  0.93283  Biso   1.000  N
  N11      1.0000 0.40550  0.43540  0.93283  Biso   1.000  N
  N12      1.0000 0.56460  0.97010  0.93283  Biso   1.000  N
  N13      1.0000 0.06820  0.72190  0.65985  Biso   1.000  N
  N14      1.0000 0.27810  0.34630  0.65985  Biso   1.000  N
  N15      1.0000 0.65370  0.93180  0.65985  Biso   1.000  N
  N16      1.0000 0.93180  0.27810  0.15985  Biso   1.000  N
  N17      1.0000 0.72190  0.65370  0.15985  Biso   1.000  N
  N18      1.0000 0.34630  0.06820  0.15985  Biso   1.000  N
  N19      1.0000 0.93180  0.27810  0.34015  Biso   1.000  N
  N20      1.0000 0.72190  0.65370  0.34015  Biso   1.000  N
  N21      1.0000 0.34630  0.06820  0.34015  Biso   1.000  N
  N22      1.0000 0.06820  0.72190  0.84015  Biso   1.000  N
  N23      1.0000 0.27810  0.34630  0.84015  Biso   1.000  N
  N24      1.0000 0.65370  0.93180  0.84015  Biso   1.000  N
  C1       1.0000 0.13540  0.64800  0.58950  Biso   1.000  C
  C2       1.0000 0.35200  0.48740  0.58950  Biso   1.000  C
  C3       1.0000 0.51260  0.86460  0.58950  Biso   1.000  C
  C4       1.0000 0.86460  0.35200  0.08950  Biso   1.000  C
  C5       1.0000 0.64800  0.51260  0.08950  Biso   1.000  C
  C6       1.0000 0.48740  0.13540  0.08950  Biso   1.000  C
  C7       1.0000 0.86460  0.35200  0.41050  Biso   1.000  C
  C8       1.0000 0.64800  0.51260  0.41050  Biso   1.000  C
  C9       1.0000 0.48740  0.13540  0.41050  Biso   1.000  C
  C10      1.0000 0.13540  0.64800  0.91050  Biso   1.000  C
  C11      1.0000 0.35200  0.48740  0.91050  Biso   1.000  C
  C12      1.0000 0.51260  0.86460  0.91050  Biso   1.000  C
  H1       1.0000 0.19900  0.64270  0.57410  Biso   1.000  H
  H2       1.0000 0.35730  0.55630  0.57410  Biso   1.000  H
  H3       1.0000 0.44370  0.80100  0.57410  Biso   1.000  H
  H4       1.0000 0.80100  0.35730  0.07410  Biso   1.000  H
  H5       1.0000 0.64270  0.44370  0.07410  Biso   1.000  H
  H6       1.0000 0.55630  0.19900  0.07410  Biso   1.000  H
  H7       1.0000 0.80100  0.35730  0.42590  Biso   1.000  H
  H8       1.0000 0.64270  0.44370  0.42590  Biso   1.000  H
  H9       1.0000 0.55630  0.19900  0.42590  Biso   1.000  H
  H10      1.0000 0.19900  0.64270  0.92590  Biso   1.000  H
  H11      1.0000 0.35730  0.55630  0.92590  Biso   1.000  H
  H12      1.0000 0.44370  0.80100  0.92590  Biso   1.000  H
  C13      1.0000 0.15210  0.71270  0.63608  Biso   1.000  C
  C14      1.0000 0.28730  0.43940  0.63608  Biso   1.000  C
  C15      1.0000 0.56060  0.84790  0.63608  Biso   1.000  C
  C16      1.0000 0.84790  0.28730  0.13608  Biso   1.000  C
  C17      1.0000 0.71270  0.56060  0.13608  Biso   1.000  C
  C18      1.0000 0.43940  0.15210  0.13608  Biso   1.000  C
  C19      1.0000 0.84790  0.28730  0.36392  Biso   1.000  C
  C20      1.0000 0.71270  0.56060  0.36392  Biso   1.000  C
  C21      1.0000 0.43940  0.15210  0.36392  Biso   1.000  C
  C22      1.0000 0.15210  0.71270  0.86392  Biso   1.000  C
  C23      1.0000 0.28730  0.43940  0.86392  Biso   1.000  C
  C24      1.0000 0.56060  0.84790  0.86392  Biso   1.000  C
  C25      1.0000 0.96440  0.66600  0.63600  Biso   1.000  C
  C26      1.0000 0.33400  0.29840  0.63600  Biso   1.000  C
  C27      1.0000 0.70160  0.03560  0.63600  Biso   1.000  C
  C28      1.0000 0.03560  0.33400  0.13600  Biso   1.000  C
  C29      1.0000 0.66600  0.70160  0.13600  Biso   1.000  C
  C30      1.0000 0.29840  0.96440  0.13600  Biso   1.000  C
  C31      1.0000 0.03560  0.33400  0.36400  Biso   1.000  C
  C32      1.0000 0.66600  0.70160  0.36400  Biso   1.000  C
  C33      1.0000 0.29840  0.96440  0.36400  Biso   1.000  C
  C34      1.0000 0.96440  0.66600  0.86400  Biso   1.000  C
  C35      1.0000 0.33400  0.29840  0.86400  Biso   1.000  C
  C36      1.0000 0.70160  0.03560  0.86400  Biso   1.000  C
  C37      1.0000 0.94380  0.60330  0.58940  Biso   1.000  C
  C38      1.0000 0.39670  0.34050  0.58940  Biso   1.000  C
  C39      1.0000 0.65950  0.05620  0.58940  Biso   1.000  C
  C40      1.0000 0.05620  0.39670  0.08940  Biso   1.000  C
  C41      1.0000 0.60330  0.65950  0.08940  Biso   1.000  C
  C42      1.0000 0.34050  0.94380  0.08940  Biso   1.000  C
  C43      1.0000 0.05620  0.39670  0.41060  Biso   1.000  C
  C44      1.0000 0.60330  0.65950  0.41060  Biso   1.000  C
  C45      1.0000 0.34050  0.94380  0.41060  Biso   1.000  C
  C46      1.0000 0.94380  0.60330  0.91060  Biso   1.000  C
  C47      1.0000 0.39670  0.34050  0.91060  Biso   1.000  C
  C48      1.0000 0.65950  0.05620  0.91060  Biso   1.000  C
  H13      1.0000 0.86780  0.56670  0.57350  Biso   1.000  H
  H14      1.0000 0.43330  0.30110  0.57350  Biso   1.000  H
  H15      1.0000 0.69890  0.13220  0.57350  Biso   1.000  H
  H16      1.0000 0.13220  0.43330  0.07350  Biso   1.000  H
  H17      1.0000 0.56670  0.69890  0.07350  Biso   1.000  H
  H18      1.0000 0.30110  0.86780  0.07350  Biso   1.000  H
  H19      1.0000 0.13220  0.43330  0.42650  Biso   1.000  H
  H20      1.0000 0.56670  0.69890  0.42650  Biso   1.000  H
  H21      1.0000 0.30110  0.86780  0.42650  Biso   1.000  H
  H22      1.0000 0.86780  0.56670  0.92650  Biso   1.000  H
  H23      1.0000 0.43330  0.30110  0.92650  Biso   1.000  H
  H24      1.0000 0.69890  0.13220  0.92650  Biso   1.000  H
  C49      1.0000 0.24740  0.76540  0.75000  Biso   1.000  C
  C50      1.0000 0.23460  0.48200  0.75000  Biso   1.000  C
  C51      1.0000 0.51800  0.75260  0.75000  Biso   1.000  C
  C52      1.0000 0.75260  0.23460  0.25000  Biso   1.000  C
  C53      1.0000 0.76540  0.51800  0.25000  Biso   1.000  C
  C54      1.0000 0.48200  0.24740  0.25000  Biso   1.000  C
  H25      1.0000 0.18570  0.68530  0.75000  Biso   1.000  H
  H26      1.0000 0.31470  0.50040  0.75000  Biso   1.000  H
  H27      1.0000 0.49960  0.81430  0.75000  Biso   1.000  H
  H28      1.0000 0.81430  0.31470  0.25000  Biso   1.000  H
  H29      1.0000 0.68530  0.49960  0.25000  Biso   1.000  H
  H30      1.0000 0.50040  0.18570  0.25000  Biso   1.000  H
  C55      1.0000 0.29370  0.82560  0.70356  Biso   1.000  C
  C56      1.0000 0.17440  0.46810  0.70356  Biso   1.000  C
  C57      1.0000 0.53190  0.70630  0.70356  Biso   1.000  C
  C58      1.0000 0.70630  0.17440  0.20356  Biso   1.000  C
  C59      1.0000 0.82560  0.53190  0.20356  Biso   1.000  C
  C60      1.0000 0.46810  0.29370  0.20356  Biso   1.000  C
  C61      1.0000 0.70630  0.17440  0.29644  Biso   1.000  C
  C62      1.0000 0.82560  0.53190  0.29644  Biso   1.000  C
  C63      1.0000 0.46810  0.29370  0.29644  Biso   1.000  C
  C64      1.0000 0.29370  0.82560  0.79644  Biso   1.000  C
  C65      1.0000 0.17440  0.46810  0.79644  Biso   1.000  C
  C66      1.0000 0.53190  0.70630  0.79644  Biso   1.000  C
  C67      1.0000 0.38290  0.94280  0.70270  Biso   1.000  C
  C68      1.0000 0.05720  0.44010  0.70270  Biso   1.000  C
  C69      1.0000 0.55990  0.61710  0.70270  Biso   1.000  C
  C70      1.0000 0.61710  0.05720  0.20270  Biso   1.000  C
  C71      1.0000 0.94280  0.55990  0.20270  Biso   1.000  C
  C72      1.0000 0.44010  0.38290  0.20270  Biso   1.000  C
  C73      1.0000 0.61710  0.05720  0.29730  Biso   1.000  C
  C74      1.0000 0.94280  0.55990  0.29730  Biso   1.000  C
  C75      1.0000 0.44010  0.38290  0.29730  Biso   1.000  C
  C76      1.0000 0.38290  0.94280  0.79730  Biso   1.000  C
  C77      1.0000 0.05720  0.44010  0.79730  Biso   1.000  C
  C78      1.0000 0.55990  0.61710  0.79730  Biso   1.000  C
  H31      1.0000 0.41330  0.98270  0.67010  Biso   1.000  H
  H32      1.0000 0.01730  0.43060  0.67010  Biso   1.000  H
  H33      1.0000 0.56940  0.58670  0.67010  Biso   1.000  H
  H34      1.0000 0.58670  0.01730  0.17010  Biso   1.000  H
  H35      1.0000 0.98270  0.56940  0.17010  Biso   1.000  H
  H36      1.0000 0.43060  0.41330  0.17010  Biso   1.000  H
  H37      1.0000 0.58670  0.01730  0.32990  Biso   1.000  H
  H38      1.0000 0.98270  0.56940  0.32990  Biso   1.000  H
  H39      1.0000 0.43060  0.41330  0.32990  Biso   1.000  H
  H40      1.0000 0.41330  0.98270  0.82990  Biso   1.000  H
  H41      1.0000 0.01730  0.43060  0.82990  Biso   1.000  H
  H42      1.0000 0.56940  0.58670  0.82990  Biso   1.000  H
  C79      1.0000 0.42630  0.00000  0.75000  Biso   1.000  C
  C80      1.0000 0.00000  0.42630  0.75000  Biso   1.000  C
  C81      1.0000 0.57370  0.57370  0.75000  Biso   1.000  C
  C82      1.0000 0.57370  0.00000  0.25000  Biso   1.000  C
  C83      1.0000 0.00000  0.57370  0.25000  Biso   1.000  C
  C84      1.0000 0.42630  0.42630  0.25000  Biso   1.000  C
  H43      1.0000 0.48720  0.08040  0.75000  Biso   1.000  H
  H44      1.0000 0.91960  0.40680  0.75000  Biso   1.000  H
  H45      1.0000 0.59320  0.51280  0.75000  Biso   1.000  H
  H46      1.0000 0.51280  0.91960  0.25000  Biso   1.000  H
  H47      1.0000 0.08040  0.59320  0.25000  Biso   1.000  H
  H48      1.0000 0.40680  0.48720  0.25000  Biso   1.000  H
  C85      1.0000 0.83470  0.85390  0.75000  Biso   1.000  C
  C86      1.0000 0.14610  0.98080  0.75000  Biso   1.000  C
  C87      1.0000 0.01920  0.16530  0.75000  Biso   1.000  C
  C88      1.0000 0.16530  0.14610  0.25000  Biso   1.000  C
  C89      1.0000 0.85390  0.01920  0.25000  Biso   1.000  C
  C90      1.0000 0.98080  0.83470  0.25000  Biso   1.000  C
  H49      1.0000 0.81620  0.91550  0.75000  Biso   1.000  H
  H50      1.0000 0.08450  0.90070  0.75000  Biso   1.000  H
  H51      1.0000 0.09930  0.18380  0.75000  Biso   1.000  H
  H52      1.0000 0.18380  0.08450  0.25000  Biso   1.000  H
  H53      1.0000 0.91550  0.09930  0.25000  Biso   1.000  H
  H54      1.0000 0.90070  0.81620  0.25000  Biso   1.000  H
  C91      1.0000 0.84780  0.81020  0.70350  Biso   1.000  C
  C92      1.0000 0.18980  0.03760  0.70350  Biso   1.000  C
  C93      1.0000 0.96240  0.15220  0.70350  Biso   1.000  C
  C94      1.0000 0.15220  0.18980  0.20350  Biso   1.000  C
  C95      1.0000 0.81020  0.96240  0.20350  Biso   1.000  C
  C96      1.0000 0.03760  0.84780  0.20350  Biso   1.000  C
  C97      1.0000 0.15220  0.18980  0.29650  Biso   1.000  C
  C98      1.0000 0.81020  0.96240  0.29650  Biso   1.000  C
  C99      1.0000 0.03760  0.84780  0.29650  Biso   1.000  C
  C100     1.0000 0.84780  0.81020  0.79650  Biso   1.000  C
  C101     1.0000 0.18980  0.03760  0.79650  Biso   1.000  C
  C102     1.0000 0.96240  0.15220  0.79650  Biso   1.000  C
  H55      1.0000 0.83850  0.84090  0.67080  Biso   1.000  H
  H56      1.0000 0.15910  0.99760  0.67080  Biso   1.000  H
  H57      1.0000 0.00240  0.16150  0.67080  Biso   1.000  H
  H58      1.0000 0.16150  0.15910  0.17080  Biso   1.000  H
  H59      1.0000 0.84090  0.00240  0.17080  Biso   1.000  H
  H60      1.0000 0.99760  0.83850  0.17080  Biso   1.000  H
  H61      1.0000 0.16150  0.15910  0.32920  Biso   1.000  H
  H62      1.0000 0.84090  0.00240  0.32920  Biso   1.000  H
  H63      1.0000 0.99760  0.83850  0.32920  Biso   1.000  H
  H64      1.0000 0.83850  0.84090  0.82920  Biso   1.000  H
  H65      1.0000 0.15910  0.99760  0.82920  Biso   1.000  H
  H66      1.0000 0.00240  0.16150  0.82920  Biso   1.000  H
  C103     1.0000 0.87420  0.72250  0.70380  Biso   1.000  C
  C104     1.0000 0.27750  0.15170  0.70380  Biso   1.000  C
  C105     1.0000 0.84830  0.12580  0.70380  Biso   1.000  C
  C106     1.0000 0.12580  0.27750  0.20380  Biso   1.000  C
  C107     1.0000 0.72250  0.84830  0.20380  Biso   1.000  C
  C108     1.0000 0.15170  0.87420  0.20380  Biso   1.000  C
  C109     1.0000 0.12580  0.27750  0.29620  Biso   1.000  C
  C110     1.0000 0.72250  0.84830  0.29620  Biso   1.000  C
  C111     1.0000 0.15170  0.87420  0.29620  Biso   1.000  C
  C112     1.0000 0.87420  0.72250  0.79620  Biso   1.000  C
  C113     1.0000 0.27750  0.15170  0.79620  Biso   1.000  C
  C114     1.0000 0.84830  0.12580  0.79620  Biso   1.000  C
  C115     1.0000 0.88670  0.67390  0.75000  Biso   1.000  C
  C116     1.0000 0.32610  0.21280  0.75000  Biso   1.000  C
  C117     1.0000 0.78720  0.11330  0.75000  Biso   1.000  C
  C118     1.0000 0.11330  0.32610  0.25000  Biso   1.000  C
  C119     1.0000 0.67390  0.78720  0.25000  Biso   1.000  C
  C120     1.0000 0.21280  0.88670  0.25000  Biso   1.000  C
  H67      1.0000 0.90290  0.61070  0.75000  Biso   1.000  H
  H68      1.0000 0.38930  0.29220  0.75000  Biso   1.000  H
  H69      1.0000 0.70780  0.09710  0.75000  Biso   1.000  H
  H70      1.0000 0.09710  0.38930  0.25000  Biso   1.000  H
  H71      1.0000 0.61070  0.70780  0.25000  Biso   1.000  H
  H72      1.0000 0.29220  0.90290  0.25000  Biso   1.000  H
  N25      1.0000 0.01770  0.34400  0.55300  Biso   1.000  N
  N26      1.0000 0.65600  0.67370  0.55300  Biso   1.000  N
  N27      1.0000 0.32630  0.98230  0.55300  Biso   1.000  N
  N28      1.0000 0.98230  0.65600  0.05300  Biso   1.000  N
  N29      1.0000 0.34400  0.32630  0.05300  Biso   1.000  N
  N30      1.0000 0.67370  0.01770  0.05300  Biso   1.000  N
  N31      1.0000 0.98230  0.65600  0.44700  Biso   1.000  N
  N32      1.0000 0.34400  0.32630  0.44700  Biso   1.000  N
  N33      1.0000 0.67370  0.01770  0.44700  Biso   1.000  N
  N34      1.0000 0.01770  0.34400  0.94700  Biso   1.000  N
  N35      1.0000 0.65600  0.67370  0.94700  Biso   1.000  N
  N36      1.0000 0.32630  0.98230  0.94700  Biso   1.000  N
  O25      1.0000 0.90800  0.33370  0.54970  Biso   1.000  O
  O26      1.0000 0.66630  0.57430  0.54970  Biso   1.000  O
  O27      1.0000 0.42570  0.09200  0.54970  Biso   1.000  O
  O28      1.0000 0.09200  0.66630  0.04970  Biso   1.000  O
  O29      1.0000 0.33370  0.42570  0.04970  Biso   1.000  O
  O30      1.0000 0.57430  0.90800  0.04970  Biso   1.000  O
  O31      1.0000 0.09200  0.66630  0.45030  Biso   1.000  O
  O32      1.0000 0.33370  0.42570  0.45030  Biso   1.000  O
  O33      1.0000 0.57430  0.90800  0.45030  Biso   1.000  O
  O34      1.0000 0.90800  0.33370  0.95030  Biso   1.000  O
  O35      1.0000 0.66630  0.57430  0.95030  Biso   1.000  O
  O36      1.0000 0.42570  0.09200  0.95030  Biso   1.000  O
  O37      1.0000 0.10060  0.43500  0.52810  Biso   1.000  O
  O38      1.0000 0.56500  0.66560  0.52810  Biso   1.000  O
  O39      1.0000 0.33440  0.89940  0.52810  Biso   1.000  O
  O40      1.0000 0.89940  0.56500  0.02810  Biso   1.000  O
  O41      1.0000 0.43500  0.33440  0.02810  Biso   1.000  O
  O42      1.0000 0.66560  0.10060  0.02810  Biso   1.000  O
  O43      1.0000 0.89940  0.56500  0.47190  Biso   1.000  O
  O44      1.0000 0.43500  0.33440  0.47190  Biso   1.000  O
  O45      1.0000 0.66560  0.10060  0.47190  Biso   1.000  O
  O46      1.0000 0.10060  0.43500  0.97190  Biso   1.000  O
  O47      1.0000 0.56500  0.66560  0.97190  Biso   1.000  O
  O48      1.0000 0.33440  0.89940  0.97190  Biso   1.000  O
  O49      1.0000 0.06160  0.27580  0.57140  Biso   1.000  O
  O50      1.0000 0.72420  0.78580  0.57140  Biso   1.000  O
  O51      1.0000 0.21420  0.93840  0.57140  Biso   1.000  O
  O52      1.0000 0.93840  0.72420  0.07140  Biso   1.000  O
  O53      1.0000 0.27580  0.21420  0.07140  Biso   1.000  O
  O54      1.0000 0.78580  0.06160  0.07140  Biso   1.000  O
  O55      1.0000 0.93840  0.72420  0.42860  Biso   1.000  O
  O56      1.0000 0.27580  0.21420  0.42860  Biso   1.000  O
  O57      1.0000 0.78580  0.06160  0.42860  Biso   1.000  O
  O58      1.0000 0.06160  0.27580  0.92860  Biso   1.000  O
  O59      1.0000 0.72420  0.78580  0.92860  Biso   1.000  O
  O60      1.0000 0.21420  0.93840  0.92860  Biso   1.000  O
  O61      1.0000 0.18600  0.53800  0.50560  Biso   1.000  O
  O62      1.0000 0.46200  0.64800  0.50560  Biso   1.000  O
  O63      1.0000 0.35200  0.81400  0.50560  Biso   1.000  O
  O64      1.0000 0.81400  0.46200  0.00560  Biso   1.000  O
  O65      1.0000 0.53800  0.35200  0.00560  Biso   1.000  O
  O66      1.0000 0.64800  0.18600  0.00560  Biso   1.000  O
  O67      1.0000 0.81400  0.46200  0.49440  Biso   1.000  O
  O68      1.0000 0.53800  0.35200  0.49440  Biso   1.000  O
  O69      1.0000 0.64800  0.18600  0.49440  Biso   1.000  O
  O70      1.0000 0.18600  0.53800  0.99440  Biso   1.000  O
  O71      1.0000 0.46200  0.64800  0.99440  Biso   1.000  O
  O72      1.0000 0.35200  0.81400  0.99440  Biso   1.000  O
  N37      1.0000 0.33330  0.66670  0.47930  Biso   1.000  N
  N38      1.0000 0.66670  0.33330  0.97930  Biso   1.000  N
  N39      1.0000 0.66670  0.33330  0.52070  Biso   1.000  N
  N40      1.0000 0.33330  0.66670  0.02070  Biso   1.000  N
  O73      1.0000 0.22340  0.65730  0.46220  Biso   1.000  O
  O74      1.0000 0.34270  0.56610  0.46220  Biso   1.000  O
  O75      1.0000 0.43390  0.77660  0.46220  Biso   1.000  O
  O76      1.0000 0.77660  0.34270  0.96220  Biso   1.000  O
  O77      1.0000 0.65730  0.43390  0.96220  Biso   1.000  O
  O78      1.0000 0.56610  0.22340  0.96220  Biso   1.000  O
  O79      1.0000 0.77660  0.34270  0.53780  Biso   1.000  O
  O80      1.0000 0.65730  0.43390  0.53780  Biso   1.000  O
  O81      1.0000 0.56610  0.22340  0.53780  Biso   1.000  O
  O82      1.0000 0.22340  0.65730  0.03780  Biso   1.000  O
  O83      1.0000 0.34270  0.56610  0.03780  Biso   1.000  O
  O84      1.0000 0.43390  0.77660  0.03780  Biso   1.000  O
  O85      1.0000 0.00000  0.00000  0.42800  Biso   1.000  O
  O86      1.0000 0.00000  0.00000  0.92800  Biso   1.000  O
  O87      1.0000 0.00000  0.00000  0.57200  Biso   1.000  O
  O88      1.0000 0.00000  0.00000  0.07200  Biso   1.000  O
  O89      1.0000 0.66670  0.33330  0.75000  Biso   1.000  O
  O90      1.0000 0.33330  0.66670  0.25000  Biso   1.000  O
  O91      1.0000 0.66670  0.33330  0.81800  Biso   1.000  O
  O92      1.0000 0.33330  0.66670  0.31800  Biso   1.000  O
  O93      1.0000 0.33330  0.66670  0.18200  Biso   1.000  O
  O94      1.0000 0.66670  0.33330  0.68200  Biso   1.000  O
