data_image0
_cell_length_a       8.2875
_cell_length_b       13.1823
_cell_length_c       31.559
_cell_angle_alpha    90
_cell_angle_beta     90
_cell_angle_gamma    90

_symmetry_space_group_name_H-M    "P 1"
_symmetry_int_tables_number       1

loop_
  _symmetry_equiv_pos_as_xyz
  'x, y, z'

loop_
  _atom_site_label
  _atom_site_occupancy
  _atom_site_fract_x
  _atom_site_fract_y
  _atom_site_fract_z
  _atom_site_thermal_displace_type
  _atom_site_B_iso_or_equiv
  _atom_site_type_symbol
  Cu1      1.0000 0.52716  0.52586  0.84331  Biso   1.000  Cu
  Cu2      1.0000 0.97284  0.47414  0.34331  Biso   1.000  Cu
  Cu3      1.0000 0.47284  0.02586  0.65669  Biso   1.000  Cu
  Cu4      1.0000 0.02716  0.97414  0.15669  Biso   1.000  Cu
  Cu5      1.0000 0.62690  0.47797  0.76707  Biso   1.000  Cu
  Cu6      1.0000 0.87310  0.52203  0.26706  Biso   1.000  Cu
  Cu7      1.0000 0.37310  0.97797  0.73294  Biso   1.000  Cu
  Cu8      1.0000 0.12690  0.02203  0.23294  Biso   1.000  Cu
  N1       1.0000 0.46700  0.56330  0.90950  Biso   1.000  N
  N2       1.0000 0.03300  0.43670  0.40950  Biso   1.000  N
  N3       1.0000 0.53300  0.06330  0.59050  Biso   1.000  N
  N4       1.0000 0.96700  0.93670  0.09050  Biso   1.000  N
  N5       1.0000 0.41320  0.61170  0.99375  Biso   1.000  N
  N6       1.0000 0.08680  0.38830  0.49375  Biso   1.000  N
  N7       1.0000 0.58680  0.11170  0.50625  Biso   1.000  N
  N8       1.0000 0.91320  0.88830  0.00625  Biso   1.000  N
  N9       1.0000 0.59010  0.59670  0.13270  Biso   1.000  N
  N10      1.0000 0.90990  0.40330  0.63270  Biso   1.000  N
  N11      1.0000 0.40990  0.09670  0.36730  Biso   1.000  N
  N12      1.0000 0.09010  0.90330  0.86730  Biso   1.000  N
  N13      1.0000 0.77360  0.55230  0.20376  Biso   1.000  N
  N14      1.0000 0.72640  0.44770  0.70376  Biso   1.000  N
  N15      1.0000 0.22640  0.05230  0.29624  Biso   1.000  N
  N16      1.0000 0.27360  0.94770  0.79624  Biso   1.000  N
  N17      1.0000 0.71690  0.42870  0.00560  Biso   1.000  N
  N18      1.0000 0.78310  0.57130  0.50560  Biso   1.000  N
  N19      1.0000 0.28310  0.92870  0.49440  Biso   1.000  N
  N20      1.0000 0.21690  0.07130  0.99440  Biso   1.000  N
  O1       1.0000 0.82190  0.42160  0.79203  Biso   1.000  O
  O2       1.0000 0.67810  0.57840  0.29203  Biso   1.000  O
  O3       1.0000 0.17810  0.92160  0.70797  Biso   1.000  O
  O4       1.0000 0.32190  0.07840  0.20797  Biso   1.000  O
  O5       1.0000 0.74010  0.45950  0.85758  Biso   1.000  O
  O6       1.0000 0.75990  0.54050  0.35758  Biso   1.000  O
  O7       1.0000 0.25990  0.95950  0.64242  Biso   1.000  O
  O8       1.0000 0.24010  0.04050  0.14242  Biso   1.000  O
  O9       1.0000 0.72680  0.61630  0.77111  Biso   1.000  O
  O10      1.0000 0.77320  0.38370  0.27111  Biso   1.000  O
  O11      1.0000 0.27320  0.11630  0.72889  Biso   1.000  O
  O12      1.0000 0.22680  0.88370  0.22889  Biso   1.000  O
  O13      1.0000 0.63260  0.65560  0.83459  Biso   1.000  O
  O14      1.0000 0.86740  0.34440  0.33459  Biso   1.000  O
  O15      1.0000 0.36740  0.15560  0.66541  Biso   1.000  O
  O16      1.0000 0.13260  0.84440  0.16541  Biso   1.000  O
  O17      1.0000 0.51650  0.34940  0.78071  Biso   1.000  O
  O18      1.0000 0.98350  0.65060  0.28071  Biso   1.000  O
  O19      1.0000 0.48350  0.84940  0.71929  Biso   1.000  O
  O20      1.0000 0.01650  0.15060  0.21929  Biso   1.000  O
  O21      1.0000 0.43060  0.39040  0.84588  Biso   1.000  O
  O22      1.0000 0.06940  0.60960  0.34588  Biso   1.000  O
  O23      1.0000 0.56940  0.89040  0.65412  Biso   1.000  O
  O24      1.0000 0.93060  0.10960  0.15412  Biso   1.000  O
  O25      1.0000 0.42670  0.53660  0.74664  Biso   1.000  O
  O26      1.0000 0.07330  0.46340  0.24664  Biso   1.000  O
  O27      1.0000 0.57330  0.03660  0.75336  Biso   1.000  O
  O28      1.0000 0.92670  0.96340  0.25336  Biso   1.000  O
  O29      1.0000 0.33870  0.57700  0.81124  Biso   1.000  O
  O30      1.0000 0.16130  0.42300  0.31124  Biso   1.000  O
  O31      1.0000 0.66130  0.07700  0.68876  Biso   1.000  O
  O32      1.0000 0.83870  0.92300  0.18876  Biso   1.000  O
  O33      1.0000 0.54580  0.76290  0.98154  Biso   1.000  O
  O34      1.0000 0.95420  0.23710  0.48154  Biso   1.000  O
  O35      1.0000 0.45420  0.26290  0.51846  Biso   1.000  O
  O36      1.0000 0.04580  0.73710  0.01846  Biso   1.000  O
  O37      1.0000 0.27320  0.45950  0.00041  Biso   1.000  O
  O38      1.0000 0.22680  0.54050  0.50041  Biso   1.000  O
  O39      1.0000 0.72680  0.95950  0.49959  Biso   1.000  O
  O40      1.0000 0.77320  0.04050  0.99959  Biso   1.000  O
  O41      1.0000 0.74860  0.73930  0.12337  Biso   1.000  O
  O42      1.0000 0.75140  0.26070  0.62337  Biso   1.000  O
  O43      1.0000 0.25140  0.23930  0.37663  Biso   1.000  O
  O44      1.0000 0.24860  0.76070  0.87663  Biso   1.000  O
  O45      1.0000 0.44680  0.44800  0.14570  Biso   1.000  O
  O46      1.0000 0.05320  0.55200  0.64570  Biso   1.000  O
  O47      1.0000 0.55320  0.94800  0.35430  Biso   1.000  O
  O48      1.0000 0.94680  0.05200  0.85430  Biso   1.000  O
  C1       1.0000 0.83920  0.42230  0.83159  Biso   1.000  C
  C2       1.0000 0.66080  0.57770  0.33159  Biso   1.000  C
  C3       1.0000 0.16080  0.92230  0.66841  Biso   1.000  C
  C4       1.0000 0.33920  0.07770  0.16841  Biso   1.000  C
  C5       1.0000 0.99070  0.37460  0.84900  Biso   1.000  C
  C6       1.0000 0.50930  0.62540  0.34900  Biso   1.000  C
  C7       1.0000 0.00930  0.87460  0.65100  Biso   1.000  C
  C8       1.0000 0.49070  0.12540  0.15100  Biso   1.000  C
  H1       1.0000 0.99020  0.37930  0.88000  Biso   1.000  H
  H2       1.0000 0.50980  0.62070  0.38000  Biso   1.000  H
  H3       1.0000 0.00980  0.87930  0.62000  Biso   1.000  H
  H4       1.0000 0.49020  0.12070  0.12000  Biso   1.000  H
  H5       1.0000 0.08520  0.41030  0.83780  Biso   1.000  H
  H6       1.0000 0.41480  0.58970  0.33780  Biso   1.000  H
  H7       1.0000 0.91480  0.91030  0.66220  Biso   1.000  H
  H8       1.0000 0.58520  0.08970  0.16220  Biso   1.000  H
  H9       1.0000 0.99520  0.30310  0.84050  Biso   1.000  H
  H10      1.0000 0.50480  0.69690  0.34050  Biso   1.000  H
  H11      1.0000 0.00480  0.80310  0.65950  Biso   1.000  H
  H12      1.0000 0.49520  0.19690  0.15950  Biso   1.000  H
  C9       1.0000 0.71110  0.67540  0.80148  Biso   1.000  C
  C10      1.0000 0.78890  0.32460  0.30148  Biso   1.000  C
  C11      1.0000 0.28890  0.17540  0.69852  Biso   1.000  C
  C12      1.0000 0.21110  0.82460  0.19852  Biso   1.000  C
  C13      1.0000 0.78640  0.77840  0.79791  Biso   1.000  C
  C14      1.0000 0.71360  0.22160  0.29791  Biso   1.000  C
  C15      1.0000 0.21360  0.27840  0.70209  Biso   1.000  C
  C16      1.0000 0.28640  0.72160  0.20209  Biso   1.000  C
  H13      1.0000 0.84250  0.78410  0.77070  Biso   1.000  H
  H14      1.0000 0.65750  0.21590  0.27070  Biso   1.000  H
  H15      1.0000 0.15750  0.28410  0.72930  Biso   1.000  H
  H16      1.0000 0.34250  0.71590  0.22930  Biso   1.000  H
  H17      1.0000 0.86360  0.78810  0.82110  Biso   1.000  H
  H18      1.0000 0.63640  0.21190  0.32110  Biso   1.000  H
  H19      1.0000 0.13640  0.28810  0.67890  Biso   1.000  H
  H20      1.0000 0.36360  0.71190  0.17890  Biso   1.000  H
  H21      1.0000 0.70210  0.83040  0.79960  Biso   1.000  H
  H22      1.0000 0.79790  0.16960  0.29960  Biso   1.000  H
  H23      1.0000 0.29790  0.33040  0.70040  Biso   1.000  H
  H24      1.0000 0.20210  0.66960  0.20040  Biso   1.000  H
  C17      1.0000 0.44870  0.32920  0.81578  Biso   1.000  C
  C18      1.0000 0.05130  0.67080  0.31578  Biso   1.000  C
  C19      1.0000 0.55130  0.82920  0.68422  Biso   1.000  C
  C20      1.0000 0.94870  0.17080  0.18422  Biso   1.000  C
  C21      1.0000 0.38820  0.22450  0.82200  Biso   1.000  C
  C22      1.0000 0.11180  0.77550  0.32200  Biso   1.000  C
  C23      1.0000 0.61180  0.72450  0.67800  Biso   1.000  C
  C24      1.0000 0.88820  0.27550  0.17800  Biso   1.000  C
  H25      1.0000 0.33900  0.21870  0.85010  Biso   1.000  H
  H26      1.0000 0.16100  0.78130  0.35010  Biso   1.000  H
  H27      1.0000 0.66100  0.71870  0.64990  Biso   1.000  H
  H28      1.0000 0.83900  0.28130  0.14990  Biso   1.000  H
  H29      1.0000 0.47810  0.17650  0.81970  Biso   1.000  H
  H30      1.0000 0.02190  0.82350  0.31970  Biso   1.000  H
  H31      1.0000 0.52190  0.67650  0.68030  Biso   1.000  H
  H32      1.0000 0.97810  0.32350  0.18030  Biso   1.000  H
  H33      1.0000 0.30740  0.20890  0.80030  Biso   1.000  H
  H34      1.0000 0.19260  0.79110  0.30030  Biso   1.000  H
  H35      1.0000 0.69260  0.70890  0.69970  Biso   1.000  H
  H36      1.0000 0.80740  0.29110  0.19970  Biso   1.000  H
  C25      1.0000 0.32610  0.57570  0.77158  Biso   1.000  C
  C26      1.0000 0.17390  0.42430  0.27158  Biso   1.000  C
  C27      1.0000 0.67390  0.07570  0.72842  Biso   1.000  C
  C28      1.0000 0.82610  0.92430  0.22842  Biso   1.000  C
  C29      1.0000 0.18090  0.62500  0.75260  Biso   1.000  C
  C30      1.0000 0.31910  0.37500  0.25260  Biso   1.000  C
  C31      1.0000 0.81910  0.12500  0.74740  Biso   1.000  C
  C32      1.0000 0.68090  0.87500  0.24740  Biso   1.000  C
  H37      1.0000 0.18520  0.61860  0.72170  Biso   1.000  H
  H38      1.0000 0.31480  0.38140  0.22170  Biso   1.000  H
  H39      1.0000 0.81480  0.11860  0.77830  Biso   1.000  H
  H40      1.0000 0.68520  0.88140  0.27830  Biso   1.000  H
  H41      1.0000 0.17920  0.69700  0.76030  Biso   1.000  H
  H42      1.0000 0.32080  0.30300  0.26030  Biso   1.000  H
  H43      1.0000 0.82080  0.19700  0.73970  Biso   1.000  H
  H44      1.0000 0.67920  0.80300  0.23970  Biso   1.000  H
  H45      1.0000 0.08320  0.59190  0.76320  Biso   1.000  H
  H46      1.0000 0.41680  0.40810  0.26320  Biso   1.000  H
  H47      1.0000 0.91680  0.09190  0.73680  Biso   1.000  H
  H48      1.0000 0.58320  0.90810  0.23680  Biso   1.000  H
  C33      1.0000 0.38220  0.50210  0.93434  Biso   1.000  C
  C34      1.0000 0.11780  0.49790  0.43434  Biso   1.000  C
  C35      1.0000 0.61780  0.00210  0.56566  Biso   1.000  C
  C36      1.0000 0.88220  0.99790  0.06566  Biso   1.000  C
  H49      1.0000 0.33750  0.44130  0.92320  Biso   1.000  H
  H50      1.0000 0.16250  0.55870  0.42320  Biso   1.000  H
  H51      1.0000 0.66250  0.94130  0.57680  Biso   1.000  H
  H52      1.0000 0.83750  0.05870  0.07680  Biso   1.000  H
  C37      1.0000 0.35910  0.52710  0.97667  Biso   1.000  C
  C38      1.0000 0.14090  0.47290  0.47667  Biso   1.000  C
  C39      1.0000 0.64090  0.02710  0.52333  Biso   1.000  C
  C40      1.0000 0.85910  0.97290  0.02333  Biso   1.000  C
  C41      1.0000 0.49330  0.67240  0.96822  Biso   1.000  C
  C42      1.0000 0.00670  0.32760  0.46822  Biso   1.000  C
  C43      1.0000 0.50670  0.17240  0.53178  Biso   1.000  C
  C44      1.0000 0.99330  0.82760  0.03178  Biso   1.000  C
  C45      1.0000 0.52350  0.64910  0.92530  Biso   1.000  C
  C46      1.0000 0.97650  0.35090  0.42530  Biso   1.000  C
  C47      1.0000 0.47650  0.14910  0.57470  Biso   1.000  C
  C48      1.0000 0.02350  0.85090  0.07470  Biso   1.000  C
  H53      1.0000 0.58350  0.69450  0.90800  Biso   1.000  H
  H54      1.0000 0.91650  0.30550  0.40800  Biso   1.000  H
  H55      1.0000 0.41650  0.19450  0.59200  Biso   1.000  H
  H56      1.0000 0.08350  0.80550  0.09200  Biso   1.000  H
  C49      1.0000 0.56500  0.51470  0.15581  Biso   1.000  C
  C50      1.0000 0.93500  0.48530  0.65581  Biso   1.000  C
  C51      1.0000 0.43500  0.01470  0.34419  Biso   1.000  C
  C52      1.0000 0.06500  0.98530  0.84419  Biso   1.000  C
  C53      1.0000 0.65520  0.49020  0.19127  Biso   1.000  C
  C54      1.0000 0.84480  0.50980  0.69127  Biso   1.000  C
  C55      1.0000 0.34480  0.99020  0.30873  Biso   1.000  C
  C56      1.0000 0.15520  0.00980  0.80873  Biso   1.000  C
  H57      1.0000 0.63320  0.42980  0.20660  Biso   1.000  H
  H58      1.0000 0.86680  0.57020  0.70660  Biso   1.000  H
  H59      1.0000 0.36680  0.92980  0.29340  Biso   1.000  H
  H60      1.0000 0.13320  0.07020  0.79340  Biso   1.000  H
  C57      1.0000 0.80400  0.63450  0.18105  Biso   1.000  C
  C58      1.0000 0.69600  0.36550  0.68105  Biso   1.000  C
  C59      1.0000 0.19600  0.13450  0.31895  Biso   1.000  C
  C60      1.0000 0.30400  0.86550  0.81895  Biso   1.000  C
  H61      1.0000 0.88870  0.67910  0.18910  Biso   1.000  H
  H62      1.0000 0.61130  0.32090  0.68910  Biso   1.000  H
  H63      1.0000 0.11130  0.17910  0.31090  Biso   1.000  H
  H64      1.0000 0.38870  0.82090  0.81090  Biso   1.000  H
  C61      1.0000 0.71110  0.65510  0.14546  Biso   1.000  C
  C62      1.0000 0.78890  0.34490  0.64546  Biso   1.000  C
  C63      1.0000 0.28890  0.15510  0.35454  Biso   1.000  C
  C64      1.0000 0.21110  0.84490  0.85454  Biso   1.000  C
  C65      1.0000 0.53680  0.78670  0.02459  Biso   1.000  C
  C66      1.0000 0.96320  0.21330  0.52459  Biso   1.000  C
  C67      1.0000 0.46320  0.28670  0.47541  Biso   1.000  C
  C68      1.0000 0.03680  0.71330  0.97541  Biso   1.000  C
  C69      1.0000 0.43120  0.86300  0.03648  Biso   1.000  C
  C70      1.0000 0.06880  0.13700  0.53648  Biso   1.000  C
  C71      1.0000 0.56880  0.36300  0.46352  Biso   1.000  C
  C72      1.0000 0.93120  0.63700  0.96352  Biso   1.000  C
  H65      1.0000 0.35980  0.89220  0.01630  Biso   1.000  H
  H66      1.0000 0.14020  0.10780  0.51630  Biso   1.000  H
  H67      1.0000 0.64020  0.39220  0.48370  Biso   1.000  H
  H68      1.0000 0.85980  0.60780  0.98370  Biso   1.000  H
  C73      1.0000 0.43090  0.89600  0.07800  Biso   1.000  C
  C74      1.0000 0.06910  0.10400  0.57800  Biso   1.000  C
  C75      1.0000 0.56910  0.39600  0.42200  Biso   1.000  C
  C76      1.0000 0.93090  0.60400  0.92200  Biso   1.000  C
  H69      1.0000 0.35910  0.94850  0.08640  Biso   1.000  H
  H70      1.0000 0.14090  0.05150  0.58640  Biso   1.000  H
  H71      1.0000 0.64090  0.44850  0.41360  Biso   1.000  H
  H72      1.0000 0.85910  0.55150  0.91360  Biso   1.000  H
  C77      1.0000 0.53360  0.85370  0.10720  Biso   1.000  C
  C78      1.0000 0.96640  0.14630  0.60720  Biso   1.000  C
  C79      1.0000 0.46640  0.35370  0.39280  Biso   1.000  C
  C80      1.0000 0.03360  0.64630  0.89280  Biso   1.000  C
  H73      1.0000 0.53490  0.87690  0.13570  Biso   1.000  H
  H74      1.0000 0.96510  0.12310  0.63570  Biso   1.000  H
  H75      1.0000 0.46510  0.37690  0.36430  Biso   1.000  H
  H76      1.0000 0.03490  0.62310  0.86430  Biso   1.000  H
  C81      1.0000 0.63510  0.77650  0.09420  Biso   1.000  C
  C82      1.0000 0.86490  0.22350  0.59420  Biso   1.000  C
  C83      1.0000 0.36490  0.27650  0.40580  Biso   1.000  C
  C84      1.0000 0.13510  0.72350  0.90580  Biso   1.000  C
  C85      1.0000 0.63680  0.74070  0.05340  Biso   1.000  C
  C86      1.0000 0.86320  0.25930  0.55340  Biso   1.000  C
  C87      1.0000 0.36320  0.24070  0.44660  Biso   1.000  C
  C88      1.0000 0.13680  0.75930  0.94660  Biso   1.000  C
  H77      1.0000 0.70480  0.68590  0.04540  Biso   1.000  H
  H78      1.0000 0.79520  0.31410  0.54540  Biso   1.000  H
  H79      1.0000 0.29520  0.18590  0.45460  Biso   1.000  H
  H80      1.0000 0.20480  0.81410  0.95460  Biso   1.000  H
  C89      1.0000 0.24660  0.47950  0.04353  Biso   1.000  C
  C90      1.0000 0.25340  0.52050  0.54353  Biso   1.000  C
  C91      1.0000 0.75340  0.97950  0.45647  Biso   1.000  C
  C92      1.0000 0.74660  0.02050  0.95647  Biso   1.000  C
  C93      1.0000 0.09290  0.49650  0.05621  Biso   1.000  C
  C94      1.0000 0.40710  0.50350  0.55621  Biso   1.000  C
  C95      1.0000 0.90710  0.99650  0.44379  Biso   1.000  C
  C96      1.0000 0.59290  0.00350  0.94379  Biso   1.000  C
  H81      1.0000 0.00950  0.50390  0.03580  Biso   1.000  H
  H82      1.0000 0.49050  0.49610  0.53580  Biso   1.000  H
  H83      1.0000 0.99050  0.00390  0.46420  Biso   1.000  H
  H84      1.0000 0.50950  0.99610  0.96420  Biso   1.000  H
  C97      1.0000 0.05800  0.50300  0.09867  Biso   1.000  C
  C98      1.0000 0.44200  0.49700  0.59867  Biso   1.000  C
  C99      1.0000 0.94200  0.00300  0.40133  Biso   1.000  C
  C100     1.0000 0.55800  0.99700  0.90133  Biso   1.000  C
  H85      1.0000 0.95050  0.51620  0.10760  Biso   1.000  H
  H86      1.0000 0.54950  0.48380  0.60760  Biso   1.000  H
  H87      1.0000 0.04950  0.01620  0.39240  Biso   1.000  H
  H88      1.0000 0.45050  0.98380  0.89240  Biso   1.000  H
  C101     1.0000 0.17790  0.49060  0.12818  Biso   1.000  C
  C102     1.0000 0.32210  0.50940  0.62818  Biso   1.000  C
  C103     1.0000 0.82210  0.99060  0.37182  Biso   1.000  C
  C104     1.0000 0.67790  0.00940  0.87182  Biso   1.000  C
  H89      1.0000 0.15440  0.49460  0.15760  Biso   1.000  H
  H90      1.0000 0.34560  0.50540  0.65760  Biso   1.000  H
  H91      1.0000 0.84560  0.99460  0.34240  Biso   1.000  H
  H92      1.0000 0.65440  0.00540  0.84240  Biso   1.000  H
  C105     1.0000 0.33080  0.47240  0.11465  Biso   1.000  C
  C106     1.0000 0.16920  0.52760  0.61465  Biso   1.000  C
  C107     1.0000 0.66920  0.97240  0.38535  Biso   1.000  C
  C108     1.0000 0.83080  0.02760  0.88535  Biso   1.000  C
  C109     1.0000 0.37140  0.46710  0.07230  Biso   1.000  C
  C110     1.0000 0.12860  0.53290  0.57230  Biso   1.000  C
  C111     1.0000 0.62860  0.96710  0.42770  Biso   1.000  C
  C112     1.0000 0.87140  0.03290  0.92770  Biso   1.000  C
  H93      1.0000 0.47930  0.45550  0.06330  Biso   1.000  H
  H94      1.0000 0.02070  0.54450  0.56330  Biso   1.000  H
  H95      1.0000 0.52070  0.95550  0.43670  Biso   1.000  H
  H96      1.0000 0.97930  0.04450  0.93670  Biso   1.000  H
  C113     1.0000 0.65100  0.33910  0.97940  Biso   1.000  C
  C114     1.0000 0.84900  0.66090  0.47940  Biso   1.000  C
  C115     1.0000 0.34900  0.83910  0.52060  Biso   1.000  C
  C116     1.0000 0.15100  0.16090  0.02060  Biso   1.000  C
  C117     1.0000 0.61200  0.28370  0.93970  Biso   1.000  C
  C118     1.0000 0.88800  0.71630  0.43970  Biso   1.000  C
  C119     1.0000 0.38800  0.78370  0.56030  Biso   1.000  C
  C120     1.0000 0.11200  0.21630  0.06030  Biso   1.000  C
  H97      1.0000 0.66500  0.31700  0.91570  Biso   1.000  H
  H98      1.0000 0.83500  0.68300  0.41570  Biso   1.000  H
  H99      1.0000 0.33500  0.81700  0.58430  Biso   1.000  H
  H100     1.0000 0.16500  0.18300  0.08430  Biso   1.000  H
  H101     1.0000 0.49470  0.28420  0.93520  Biso   1.000  H
  H102     1.0000 0.00530  0.71580  0.43520  Biso   1.000  H
  H103     1.0000 0.50530  0.78420  0.56480  Biso   1.000  H
  H104     1.0000 0.99470  0.21580  0.06480  Biso   1.000  H
  H105     1.0000 0.64960  0.21350  0.94190  Biso   1.000  H
  H106     1.0000 0.85040  0.78650  0.44190  Biso   1.000  H
  H107     1.0000 0.35040  0.71350  0.55810  Biso   1.000  H
  H108     1.0000 0.14960  0.28650  0.05810  Biso   1.000  H
