data_image0
_cell_length_a       7.5973
_cell_length_b       8.106
_cell_length_c       12.4901
_cell_angle_alpha    89.576
_cell_angle_beta     86.095
_cell_angle_gamma    69.787

_symmetry_space_group_name_H-M    "P 1"
_symmetry_int_tables_number       1

loop_
  _symmetry_equiv_pos_as_xyz
  'x, y, z'

loop_
  _atom_site_label
  _atom_site_occupancy
  _atom_site_fract_x
  _atom_site_fract_y
  _atom_site_fract_z
  _atom_site_thermal_displace_type
  _atom_site_B_iso_or_equiv
  _atom_site_type_symbol
  C1       1.0000 0.12310  0.75590  0.29266  Biso   1.000  C
  C2       1.0000 0.87690  0.24410  0.70734  Biso   1.000  C
  C3       1.0000 0.28290  0.67300  0.36345  Biso   1.000  C
  C4       1.0000 0.71710  0.32700  0.63655  Biso   1.000  C
  C5       1.0000 0.27340  0.54890  0.43563  Biso   1.000  C
  C6       1.0000 0.72660  0.45110  0.56437  Biso   1.000  C
  H1       1.0000 0.16870  0.51400  0.44010  Biso   1.000  H
  H2       1.0000 0.83130  0.48600  0.55990  Biso   1.000  H
  C7       1.0000 0.44310  0.72490  0.35503  Biso   1.000  C
  C8       1.0000 0.55690  0.27510  0.64497  Biso   1.000  C
  H3       1.0000 0.45050  0.80740  0.30440  Biso   1.000  H
  H4       1.0000 0.54950  0.19260  0.69560  Biso   1.000  H
  C9       1.0000 0.42100  0.47220  0.50397  Biso   1.000  C
  C10      1.0000 0.57900  0.52780  0.49603  Biso   1.000  C
  C11      1.0000 0.58610  0.65560  0.42021  Biso   1.000  C
  C12      1.0000 0.41390  0.34440  0.57979  Biso   1.000  C
  H5       1.0000 0.68930  0.69280  0.41470  Biso   1.000  H
  H6       1.0000 0.31070  0.30720  0.58530  Biso   1.000  H
  C13      1.0000 0.18330  0.67750  0.97839  Biso   1.000  C
  C14      1.0000 0.81670  0.32250  0.02161  Biso   1.000  C
  H7       1.0000 0.06940  0.64980  0.99140  Biso   1.000  H
  H8       1.0000 0.93060  0.35020  0.00860  Biso   1.000  H
  H9       1.0000 0.27580  0.60770  0.02570  Biso   1.000  H
  H10      1.0000 0.72420  0.39230  0.97430  Biso   1.000  H
  C15      1.0000 0.25820  0.63810  0.86170  Biso   1.000  C
  C16      1.0000 0.74180  0.36190  0.13830  Biso   1.000  C
  H11      1.0000 0.38710  0.63530  0.85390  Biso   1.000  H
  H12      1.0000 0.61290  0.36470  0.14610  Biso   1.000  H
  H13      1.0000 0.25720  0.52340  0.84080  Biso   1.000  H
  H14      1.0000 0.74280  0.47660  0.15920  Biso   1.000  H
  C17      1.0000 0.25930  0.82390  0.70490  Biso   1.000  C
  C18      1.0000 0.74070  0.17610  0.29510  Biso   1.000  C
  H15      1.0000 0.17810  0.89800  0.65380  Biso   1.000  H
  H16      1.0000 0.82190  0.10200  0.34620  Biso   1.000  H
  H17      1.0000 0.34010  0.71810  0.66690  Biso   1.000  H
  H18      1.0000 0.65990  0.28190  0.33310  Biso   1.000  H
  C19      1.0000 0.37990  0.91940  0.74630  Biso   1.000  C
  C20      1.0000 0.62010  0.08060  0.25370  Biso   1.000  C
  H19      1.0000 0.47230  0.83990  0.79000  Biso   1.000  H
  H20      1.0000 0.52770  0.16010  0.21000  Biso   1.000  H
  H21      1.0000 0.44730  0.95190  0.68580  Biso   1.000  H
  H22      1.0000 0.55270  0.04810  0.31420  Biso   1.000  H
  C21      1.0000 0.00370  0.71340  0.73756  Biso   1.000  C
  C22      1.0000 0.99630  0.28660  0.26244  Biso   1.000  C
  H23      1.0000 0.07170  0.60730  0.69580  Biso   1.000  H
  H24      1.0000 0.92830  0.39270  0.30420  Biso   1.000  H
  H25      1.0000 0.93610  0.80250  0.68850  Biso   1.000  H
  H26      1.0000 0.06390  0.19750  0.31150  Biso   1.000  H
  C23      1.0000 0.86420  0.67620  0.81700  Biso   1.000  C
  C24      1.0000 0.13580  0.32380  0.18300  Biso   1.000  C
  H27      1.0000 0.77110  0.64680  0.77950  Biso   1.000  H
  H28      1.0000 0.22890  0.35320  0.22050  Biso   1.000  H
  H29      1.0000 0.92810  0.57760  0.86130  Biso   1.000  H
  H30      1.0000 0.07190  0.42240  0.13870  Biso   1.000  H
  N1       1.0000 0.14080  0.77460  0.78986  Biso   1.000  N
  N2       1.0000 0.85920  0.22540  0.21014  Biso   1.000  N
  O1       1.0000 0.14890  0.86730  0.22730  Biso   1.000  O
  O2       1.0000 0.85110  0.13270  0.77270  Biso   1.000  O
  O3       1.0000 0.98150  0.71370  0.30348  Biso   1.000  O
  O4       1.0000 0.01850  0.28630  0.69652  Biso   1.000  O
  O5       1.0000 0.14550  0.85870  0.99737  Biso   1.000  O
  O6       1.0000 0.85450  0.14130  0.00263  Biso   1.000  O
  O7       1.0000 0.27860  0.07150  0.80743  Biso   1.000  O
  O8       1.0000 0.72140  0.92850  0.19257  Biso   1.000  O
  H31      1.0000 0.21110  0.14530  0.76880  Biso   1.000  H
  H32      1.0000 0.78890  0.85470  0.23120  Biso   1.000  H
  O9       1.0000 0.77610  0.82890  0.88188  Biso   1.000  O
  O10      1.0000 0.22390  0.17110  0.11812  Biso   1.000  O
  Cu1      1.0000 0.00123  0.00840  0.11616  Biso   1.000  Cu
  Cu2      1.0000 0.99877  0.99160  0.88384  Biso   1.000  Cu
  O11      1.0000 0.54340  0.78400  0.04260  Biso   1.000  O
  O12      1.0000 0.45660  0.21600  0.95740  Biso   1.000  O
  H33      1.0000 0.57700  0.82600  0.09000  Biso   1.000  H
  H34      1.0000 0.42300  0.17400  0.91000  Biso   1.000  H
  H35      1.0000 0.44500  0.82600  0.03800  Biso   1.000  H
  H36      1.0000 0.55500  0.17400  0.96200  Biso   1.000  H
