data_image0
_cell_length_a       7.7219
_cell_length_b       9.1715
_cell_length_c       9.4443
_cell_angle_alpha    72.53
_cell_angle_beta     70.67
_cell_angle_gamma    81.86

_symmetry_space_group_name_H-M    "P 1"
_symmetry_int_tables_number       1

loop_
  _symmetry_equiv_pos_as_xyz
  'x, y, z'

loop_
  _atom_site_label
  _atom_site_occupancy
  _atom_site_fract_x
  _atom_site_fract_y
  _atom_site_fract_z
  _atom_site_thermal_displace_type
  _atom_site_B_iso_or_equiv
  _atom_site_type_symbol
  C1       1.0000 0.24210  0.43500  0.55960  Biso   1.000  C
  C2       1.0000 0.75790  0.56500  0.44040  Biso   1.000  C
  H1       1.0000 0.35050  0.47760  0.48880  Biso   1.000  H
  H2       1.0000 0.64950  0.52240  0.51120  Biso   1.000  H
  C3       1.0000 0.10030  0.53030  0.62290  Biso   1.000  C
  C4       1.0000 0.89970  0.46970  0.37710  Biso   1.000  C
  H3       1.0000 0.11260  0.63550  0.59350  Biso   1.000  H
  H4       1.0000 0.88740  0.36450  0.40650  Biso   1.000  H
  C5       1.0000 0.94080  0.46650  0.73020  Biso   1.000  C
  C6       1.0000 0.05920  0.53350  0.26980  Biso   1.000  C
  H5       1.0000 0.84510  0.52850  0.77470  Biso   1.000  H
  H6       1.0000 0.15490  0.47150  0.22530  Biso   1.000  H
  C7       1.0000 0.92390  0.30900  0.77140  Biso   1.000  C
  C8       1.0000 0.07610  0.69100  0.22860  Biso   1.000  C
  C9       1.0000 0.07030  0.22340  0.70070  Biso   1.000  C
  C10      1.0000 0.92970  0.77660  0.29930  Biso   1.000  C
  H7       1.0000 0.06010  0.11830  0.72560  Biso   1.000  H
  H8       1.0000 0.93990  0.88170  0.27440  Biso   1.000  H
  C11      1.0000 0.75880  0.23240  0.89500  Biso   1.000  C
  C12      1.0000 0.24120  0.76760  0.10500  Biso   1.000  C
  C13      1.0000 0.88790  0.23370  0.11050  Biso   1.000  C
  C14      1.0000 0.11210  0.76630  0.88950  Biso   1.000  C
  H9       1.0000 0.94740  0.32740  0.08480  Biso   1.000  H
  H10      1.0000 0.05260  0.67260  0.91520  Biso   1.000  H
  H11      1.0000 0.97460  0.15990  0.06840  Biso   1.000  H
  H12      1.0000 0.02540  0.84010  0.93160  Biso   1.000  H
  H13      1.0000 0.84140  0.19490  0.22180  Biso   1.000  H
  H14      1.0000 0.15860  0.80510  0.77820  Biso   1.000  H
  C15      1.0000 0.56300  0.28460  0.12720  Biso   1.000  C
  C16      1.0000 0.43700  0.71540  0.87280  Biso   1.000  C
  C17      1.0000 0.44190  0.28090  0.03370  Biso   1.000  C
  C18      1.0000 0.55810  0.71910  0.96630  Biso   1.000  C
  H15      1.0000 0.35160  0.36600  0.03440  Biso   1.000  H
  H16      1.0000 0.64840  0.63400  0.96560  Biso   1.000  H
  H17      1.0000 0.37830  0.18600  0.07470  Biso   1.000  H
  H18      1.0000 0.62170  0.81400  0.92530  Biso   1.000  H
  C19      1.0000 0.57120  0.29310  0.87000  Biso   1.000  C
  C20      1.0000 0.42880  0.70690  0.13000  Biso   1.000  C
  C21      1.0000 0.51210  0.20600  0.77970  Biso   1.000  C
  C22      1.0000 0.48790  0.79400  0.22030  Biso   1.000  C
  Cu1      1.0000 0.45386  0.14905  0.54476  Biso   1.000  Cu
  Cu2      1.0000 0.54614  0.85095  0.45524  Biso   1.000  Cu
  H19      1.0000 0.59100  0.39300  0.80900  Biso   1.000  H
  H20      1.0000 0.40900  0.60700  0.19100  Biso   1.000  H
  H21      1.0000 0.77400  0.12800  0.91700  Biso   1.000  H
  H22      1.0000 0.22600  0.87200  0.08300  Biso   1.000  H
  N1       1.0000 0.33200  0.99980  0.49850  Biso   1.000  N
  N2       1.0000 0.66800  0.00020  0.50150  Biso   1.000  N
  N3       1.0000 0.23170  0.03910  0.41710  Biso   1.000  N
  N4       1.0000 0.76830  0.96090  0.58290  Biso   1.000  N
  N5       1.0000 0.13470  0.07560  0.34400  Biso   1.000  N
  N6       1.0000 0.86530  0.92440  0.65600  Biso   1.000  N
  N7       1.0000 0.22680  0.28440  0.59750  Biso   1.000  N
  N8       1.0000 0.77320  0.71560  0.40250  Biso   1.000  N
  N9       1.0000 0.73750  0.26230  0.04500  Biso   1.000  N
  N10      1.0000 0.26250  0.73770  0.95500  Biso   1.000  N
  O1       1.0000 0.57630  0.25500  0.63200  Biso   1.000  O
  O2       1.0000 0.42370  0.74500  0.36800  Biso   1.000  O
  O3       1.0000 0.40850  0.09950  0.84720  Biso   1.000  O
  O4       1.0000 0.59150  0.90050  0.15280  Biso   1.000  O
  O5       1.0000 0.51280  0.30220  0.26110  Biso   1.000  O
  O6       1.0000 0.48720  0.69780  0.73890  Biso   1.000  O
