data_image0
_cell_length_a       8.1546
_cell_length_b       11.9203
_cell_length_c       7.1098
_cell_angle_alpha    90
_cell_angle_beta     99.737
_cell_angle_gamma    90

_symmetry_space_group_name_H-M    "P 1"
_symmetry_int_tables_number       1

loop_
  _symmetry_equiv_pos_as_xyz
  'x, y, z'

loop_
  _atom_site_label
  _atom_site_occupancy
  _atom_site_fract_x
  _atom_site_fract_y
  _atom_site_fract_z
  _atom_site_thermal_displace_type
  _atom_site_B_iso_or_equiv
  _atom_site_type_symbol
  Cu1      1.0000 0.76371  0.73675  0.30971  Biso   1.000  Cu
  Cu2      1.0000 0.76371  0.76325  0.80971  Biso   1.000  Cu
  Cu3      1.0000 0.23629  0.26325  0.69029  Biso   1.000  Cu
  Cu4      1.0000 0.23629  0.23675  0.19029  Biso   1.000  Cu
  Cl1      1.0000 0.96652  0.80725  0.53754  Biso   1.000  Cl
  Cl2      1.0000 0.96652  0.69275  0.03754  Biso   1.000  Cl
  Cl3      1.0000 0.03348  0.19275  0.46246  Biso   1.000  Cl
  Cl4      1.0000 0.03348  0.30725  0.96246  Biso   1.000  Cl
  Cl5      1.0000 0.54572  0.67425  0.09454  Biso   1.000  Cl
  Cl6      1.0000 0.54572  0.82575  0.59454  Biso   1.000  Cl
  Cl7      1.0000 0.45428  0.32575  0.90546  Biso   1.000  Cl
  Cl8      1.0000 0.45428  0.17425  0.40546  Biso   1.000  Cl
  S1       1.0000 0.71438  0.09606  0.11047  Biso   1.000  S
  S2       1.0000 0.71438  0.40394  0.61047  Biso   1.000  S
  S3       1.0000 0.28562  0.90394  0.88953  Biso   1.000  S
  S4       1.0000 0.28562  0.59606  0.38953  Biso   1.000  S
  N1       1.0000 0.73950  0.88700  0.16610  Biso   1.000  N
  N2       1.0000 0.73950  0.61300  0.66610  Biso   1.000  N
  N3       1.0000 0.26050  0.11300  0.83390  Biso   1.000  N
  N4       1.0000 0.26050  0.38700  0.33390  Biso   1.000  N
  N5       1.0000 0.76460  0.90280  0.98020  Biso   1.000  N
  N6       1.0000 0.76460  0.59720  0.48020  Biso   1.000  N
  N7       1.0000 0.23540  0.09720  0.01980  Biso   1.000  N
  N8       1.0000 0.23540  0.40280  0.51980  Biso   1.000  N
  C1       1.0000 0.75900  0.00940  0.93420  Biso   1.000  C
  C2       1.0000 0.75900  0.49060  0.43420  Biso   1.000  C
  C3       1.0000 0.24100  0.99060  0.06580  Biso   1.000  C
  C4       1.0000 0.24100  0.50940  0.56580  Biso   1.000  C
  C5       1.0000 0.70950  0.98050  0.24830  Biso   1.000  C
  C6       1.0000 0.70950  0.51950  0.74830  Biso   1.000  C
  C7       1.0000 0.29050  0.01950  0.75170  Biso   1.000  C
  C8       1.0000 0.29050  0.48050  0.25170  Biso   1.000  C
  H1       1.0000 0.68720  0.98370  0.37230  Biso   1.000  H
  H2       1.0000 0.68720  0.51630  0.87230  Biso   1.000  H
  H3       1.0000 0.31280  0.01630  0.62770  Biso   1.000  H
  H4       1.0000 0.31280  0.48370  0.12770  Biso   1.000  H
  C9       1.0000 0.79300  0.05560  0.75050  Biso   1.000  C
  C10      1.0000 0.79300  0.44440  0.25050  Biso   1.000  C
  C11      1.0000 0.20700  0.94440  0.24950  Biso   1.000  C
  C12      1.0000 0.20700  0.55560  0.74950  Biso   1.000  C
  H5       1.0000 0.81560  0.99520  0.66930  Biso   1.000  H
  H6       1.0000 0.81560  0.50480  0.16930  Biso   1.000  H
  H7       1.0000 0.18440  0.00480  0.33070  Biso   1.000  H
  H8       1.0000 0.18440  0.49520  0.83070  Biso   1.000  H
  H9       1.0000 0.88760  0.10470  0.77450  Biso   1.000  H
  H10      1.0000 0.88760  0.39530  0.27450  Biso   1.000  H
  H11      1.0000 0.11240  0.89530  0.22550  Biso   1.000  H
  H12      1.0000 0.11240  0.60470  0.72550  Biso   1.000  H
  H13      1.0000 0.69770  0.09690  0.68900  Biso   1.000  H
  H14      1.0000 0.69770  0.40310  0.18900  Biso   1.000  H
  H15      1.0000 0.30230  0.90310  0.31100  Biso   1.000  H
  H16      1.0000 0.30230  0.59690  0.81100  Biso   1.000  H
