data_image0
_cell_length_a       6.5261
_cell_length_b       7.0683
_cell_length_c       18.417
_cell_angle_alpha    90
_cell_angle_beta     90.418
_cell_angle_gamma    90

_symmetry_space_group_name_H-M    "P 1"
_symmetry_int_tables_number       1

loop_
  _symmetry_equiv_pos_as_xyz
  'x, y, z'

loop_
  _atom_site_label
  _atom_site_occupancy
  _atom_site_fract_x
  _atom_site_fract_y
  _atom_site_fract_z
  _atom_site_thermal_displace_type
  _atom_site_B_iso_or_equiv
  _atom_site_type_symbol
  Cu1      1.0000 0.35202  0.25934  0.15837  Biso   1.000  Cu
  Cu2      1.0000 0.64798  0.75934  0.34163  Biso   1.000  Cu
  Cu3      1.0000 0.64798  0.74066  0.84163  Biso   1.000  Cu
  Cu4      1.0000 0.35202  0.24066  0.65837  Biso   1.000  Cu
  C1       1.0000 0.17540  0.22860  0.29617  Biso   1.000  C
  C2       1.0000 0.82460  0.72860  0.20383  Biso   1.000  C
  C3       1.0000 0.82460  0.77140  0.70383  Biso   1.000  C
  C4       1.0000 0.17540  0.27140  0.79617  Biso   1.000  C
  O1       1.0000 0.33720  0.28230  0.26402  Biso   1.000  O
  O2       1.0000 0.66280  0.78230  0.23598  Biso   1.000  O
  O3       1.0000 0.66280  0.71770  0.73598  Biso   1.000  O
  O4       1.0000 0.33720  0.21770  0.76402  Biso   1.000  O
  O5       1.0000 0.01930  0.16760  0.26643  Biso   1.000  O
  O6       1.0000 0.98070  0.66760  0.23357  Biso   1.000  O
  O7       1.0000 0.98070  0.83240  0.73357  Biso   1.000  O
  O8       1.0000 0.01930  0.33240  0.76643  Biso   1.000  O
  C5       1.0000 0.18080  0.24400  0.37589  Biso   1.000  C
  C6       1.0000 0.81920  0.74400  0.12411  Biso   1.000  C
  C7       1.0000 0.81920  0.75600  0.62411  Biso   1.000  C
  C8       1.0000 0.18080  0.25600  0.87589  Biso   1.000  C
  C9       1.0000 0.18310  0.25300  0.44047  Biso   1.000  C
  C10      1.0000 0.81690  0.75300  0.05953  Biso   1.000  C
  C11      1.0000 0.81690  0.74700  0.55953  Biso   1.000  C
  C12      1.0000 0.18310  0.24700  0.94047  Biso   1.000  C
  C13      1.0000 0.17920  0.26080  0.52017  Biso   1.000  C
  C14      1.0000 0.82080  0.76080  0.97983  Biso   1.000  C
  C15      1.0000 0.82080  0.73920  0.47983  Biso   1.000  C
  C16      1.0000 0.17920  0.23920  0.02017  Biso   1.000  C
  O9       1.0000 0.35270  0.25030  0.55160  Biso   1.000  O
  O10      1.0000 0.64730  0.75030  0.94840  Biso   1.000  O
  O11      1.0000 0.64730  0.74970  0.44840  Biso   1.000  O
  O12      1.0000 0.35270  0.24970  0.05160  Biso   1.000  O
  O13      1.0000 0.01330  0.27670  0.55115  Biso   1.000  O
  O14      1.0000 0.98670  0.77670  0.94885  Biso   1.000  O
  O15      1.0000 0.98670  0.72330  0.44885  Biso   1.000  O
  O16      1.0000 0.01330  0.22330  0.05115  Biso   1.000  O
  O17      1.0000 0.35970  0.98260  0.16304  Biso   1.000  O
  O18      1.0000 0.64030  0.48260  0.33696  Biso   1.000  O
  O19      1.0000 0.64030  0.01740  0.83696  Biso   1.000  O
  O20      1.0000 0.35970  0.51740  0.66304  Biso   1.000  O
  H1       1.0000 0.45100  0.93800  0.18400  Biso   1.000  H
  H2       1.0000 0.54900  0.43800  0.31600  Biso   1.000  H
  H3       1.0000 0.54900  0.06200  0.81600  Biso   1.000  H
  H4       1.0000 0.45100  0.56200  0.68400  Biso   1.000  H
  H5       1.0000 0.34300  0.93500  0.12800  Biso   1.000  H
  H6       1.0000 0.65700  0.43500  0.37200  Biso   1.000  H
  H7       1.0000 0.65700  0.06500  0.87200  Biso   1.000  H
  H8       1.0000 0.34300  0.56500  0.62800  Biso   1.000  H
  O21      1.0000 0.70210  0.28930  0.16405  Biso   1.000  O
  O22      1.0000 0.29790  0.78930  0.33595  Biso   1.000  O
  O23      1.0000 0.29790  0.71070  0.83595  Biso   1.000  O
  O24      1.0000 0.70210  0.21070  0.66405  Biso   1.000  O
  H9       1.0000 0.77100  0.26000  0.13400  Biso   1.000  H
  H10      1.0000 0.22900  0.76000  0.36600  Biso   1.000  H
  H11      1.0000 0.22900  0.74000  0.86600  Biso   1.000  H
  H12      1.0000 0.77100  0.24000  0.63400  Biso   1.000  H
  H13      1.0000 0.77100  0.26500  0.20500  Biso   1.000  H
  H14      1.0000 0.22900  0.76500  0.29500  Biso   1.000  H
  H15      1.0000 0.22900  0.73500  0.79500  Biso   1.000  H
  H16      1.0000 0.77100  0.23500  0.70500  Biso   1.000  H
  O25      1.0000 0.29090  0.52770  0.15423  Biso   1.000  O
  O26      1.0000 0.70910  0.02770  0.34577  Biso   1.000  O
  O27      1.0000 0.70910  0.47230  0.84577  Biso   1.000  O
  O28      1.0000 0.29090  0.97230  0.65423  Biso   1.000  O
  H17      1.0000 0.19400  0.55800  0.17700  Biso   1.000  H
  H18      1.0000 0.80600  0.05800  0.32300  Biso   1.000  H
  H19      1.0000 0.80600  0.44200  0.82300  Biso   1.000  H
  H20      1.0000 0.19400  0.94200  0.67700  Biso   1.000  H
  H21      1.0000 0.29300  0.57800  0.11700  Biso   1.000  H
  H22      1.0000 0.70700  0.07800  0.38300  Biso   1.000  H
  H23      1.0000 0.70700  0.42200  0.88300  Biso   1.000  H
  H24      1.0000 0.29300  0.92200  0.61700  Biso   1.000  H
  O29      1.0000 0.31590  0.76610  0.04038  Biso   1.000  O
  O30      1.0000 0.68410  0.26610  0.45962  Biso   1.000  O
  O31      1.0000 0.68410  0.23390  0.95962  Biso   1.000  O
  O32      1.0000 0.31590  0.73390  0.54038  Biso   1.000  O
  H25      1.0000 0.20700  0.76700  0.01400  Biso   1.000  H
  H26      1.0000 0.79300  0.26700  0.48600  Biso   1.000  H
  H27      1.0000 0.79300  0.23300  0.98600  Biso   1.000  H
  H28      1.0000 0.20700  0.73300  0.51400  Biso   1.000  H
  H29      1.0000 0.38900  0.76300  0.01800  Biso   1.000  H
  H30      1.0000 0.61100  0.26300  0.48200  Biso   1.000  H
  H31      1.0000 0.61100  0.23700  0.98200  Biso   1.000  H
  H32      1.0000 0.38900  0.73700  0.51800  Biso   1.000  H
