data_image0
_cell_length_a       11.3954
_cell_length_b       8.6694
_cell_length_c       8.7825
_cell_angle_alpha    90
_cell_angle_beta     95.884
_cell_angle_gamma    90

_symmetry_space_group_name_H-M    "P 1"
_symmetry_int_tables_number       1

loop_
  _symmetry_equiv_pos_as_xyz
  'x, y, z'

loop_
  _atom_site_label
  _atom_site_occupancy
  _atom_site_fract_x
  _atom_site_fract_y
  _atom_site_fract_z
  _atom_site_thermal_displace_type
  _atom_site_B_iso_or_equiv
  _atom_site_type_symbol
  Cu1      1.0000 0.50000  0.50000  0.50000  Biso   1.000  Cu
  Cu2      1.0000 0.00000  0.50000  0.50000  Biso   1.000  Cu
  Cu3      1.0000 0.00000  0.00000  0.00000  Biso   1.000  Cu
  Cu4      1.0000 0.50000  0.00000  0.00000  Biso   1.000  Cu
  O1       1.0000 0.34732  0.60540  0.50560  Biso   1.000  O
  O2       1.0000 0.15268  0.60540  0.49440  Biso   1.000  O
  O3       1.0000 0.84732  0.10540  0.00560  Biso   1.000  O
  O4       1.0000 0.65268  0.10540  0.99440  Biso   1.000  O
  O5       1.0000 0.65268  0.39460  0.49440  Biso   1.000  O
  O6       1.0000 0.84732  0.39460  0.50560  Biso   1.000  O
  O7       1.0000 0.15268  0.89460  0.99440  Biso   1.000  O
  O8       1.0000 0.34732  0.89460  0.00560  Biso   1.000  O
  O9       1.0000 0.42730  0.23130  0.12180  Biso   1.000  O
  O10      1.0000 0.07270  0.23130  0.87820  Biso   1.000  O
  O11      1.0000 0.92730  0.73130  0.62180  Biso   1.000  O
  O12      1.0000 0.57270  0.73130  0.37820  Biso   1.000  O
  O13      1.0000 0.57270  0.76870  0.87820  Biso   1.000  O
  O14      1.0000 0.92730  0.76870  0.12180  Biso   1.000  O
  O15      1.0000 0.07270  0.26870  0.37820  Biso   1.000  O
  O16      1.0000 0.42730  0.26870  0.62180  Biso   1.000  O
  O17      1.0000 0.43880  0.41190  0.30070  Biso   1.000  O
  O18      1.0000 0.06120  0.41190  0.69930  Biso   1.000  O
  O19      1.0000 0.93880  0.91190  0.80070  Biso   1.000  O
  O20      1.0000 0.56120  0.91190  0.19930  Biso   1.000  O
  O21      1.0000 0.56120  0.58810  0.69930  Biso   1.000  O
  O22      1.0000 0.93880  0.58810  0.30070  Biso   1.000  O
  O23      1.0000 0.06120  0.08810  0.19930  Biso   1.000  O
  O24      1.0000 0.43880  0.08810  0.80070  Biso   1.000  O
  C1       1.0000 0.25000  0.53690  0.50000  Biso   1.000  C
  C2       1.0000 0.75000  0.03690  0.00000  Biso   1.000  C
  C3       1.0000 0.75000  0.46310  0.50000  Biso   1.000  C
  C4       1.0000 0.25000  0.96310  0.00000  Biso   1.000  C
  H1       1.0000 0.25000  0.42962  0.50000  Biso   1.000  H
  H2       1.0000 0.75000  0.92962  0.00000  Biso   1.000  H
  H3       1.0000 0.75000  0.57038  0.50000  Biso   1.000  H
  H4       1.0000 0.25000  0.07038  0.00000  Biso   1.000  H
  C5       1.0000 0.47070  0.28790  0.24500  Biso   1.000  C
  C6       1.0000 0.02930  0.28790  0.75500  Biso   1.000  C
  C7       1.0000 0.97070  0.78790  0.74500  Biso   1.000  C
  C8       1.0000 0.52930  0.78790  0.25500  Biso   1.000  C
  C9       1.0000 0.52930  0.71210  0.75500  Biso   1.000  C
  C10      1.0000 0.97070  0.71210  0.24500  Biso   1.000  C
  C11      1.0000 0.02930  0.21210  0.25500  Biso   1.000  C
  C12      1.0000 0.47070  0.21210  0.74500  Biso   1.000  C
  H5       1.0000 0.53166  0.23391  0.29986  Biso   1.000  H
  H6       1.0000 0.96834  0.23391  0.70014  Biso   1.000  H
  H7       1.0000 0.03166  0.73391  0.79986  Biso   1.000  H
  H8       1.0000 0.46834  0.73391  0.20014  Biso   1.000  H
  H9       1.0000 0.46834  0.76609  0.70014  Biso   1.000  H
  H10      1.0000 0.03166  0.76609  0.29986  Biso   1.000  H
  H11      1.0000 0.96834  0.26609  0.20014  Biso   1.000  H
  H12      1.0000 0.53166  0.26609  0.79986  Biso   1.000  H
  N1       1.0000 0.25000  0.43710  0.00000  Biso   1.000  N
  N2       1.0000 0.75000  0.93710  0.50000  Biso   1.000  N
  N3       1.0000 0.75000  0.56290  0.00000  Biso   1.000  N
  N4       1.0000 0.25000  0.06290  0.50000  Biso   1.000  N
  H13      1.0000 0.20200  0.37400  0.95400  Biso   1.000  H
  H14      1.0000 0.29800  0.37400  0.04600  Biso   1.000  H
  H15      1.0000 0.70200  0.87400  0.45400  Biso   1.000  H
  H16      1.0000 0.79800  0.87400  0.54600  Biso   1.000  H
  H17      1.0000 0.79800  0.62600  0.04600  Biso   1.000  H
  H18      1.0000 0.70200  0.62600  0.95400  Biso   1.000  H
  H19      1.0000 0.29800  0.12600  0.54600  Biso   1.000  H
  H20      1.0000 0.20200  0.12600  0.45400  Biso   1.000  H
  C13      1.0000 0.19140  0.52960  0.10830  Biso   1.000  C
  C14      1.0000 0.30860  0.52960  0.89170  Biso   1.000  C
  C15      1.0000 0.69140  0.02960  0.60830  Biso   1.000  C
  C16      1.0000 0.80860  0.02960  0.39170  Biso   1.000  C
  C17      1.0000 0.80860  0.47040  0.89170  Biso   1.000  C
  C18      1.0000 0.69140  0.47040  0.10830  Biso   1.000  C
  C19      1.0000 0.30860  0.97040  0.39170  Biso   1.000  C
  C20      1.0000 0.19140  0.97040  0.60830  Biso   1.000  C
  H21      1.0000 0.15449  0.46270  0.17638  Biso   1.000  H
  H22      1.0000 0.34551  0.46270  0.82362  Biso   1.000  H
  H23      1.0000 0.65449  0.96270  0.67638  Biso   1.000  H
  H24      1.0000 0.84551  0.96270  0.32362  Biso   1.000  H
  H25      1.0000 0.84551  0.53730  0.82362  Biso   1.000  H
  H26      1.0000 0.65449  0.53730  0.17638  Biso   1.000  H
  H27      1.0000 0.34551  0.03730  0.32362  Biso   1.000  H
  H28      1.0000 0.15449  0.03730  0.67638  Biso   1.000  H
  H29      1.0000 0.24840  0.59348  0.16638  Biso   1.000  H
  H30      1.0000 0.25160  0.59348  0.83362  Biso   1.000  H
  H31      1.0000 0.74840  0.09348  0.66638  Biso   1.000  H
  H32      1.0000 0.75160  0.09348  0.33362  Biso   1.000  H
  H33      1.0000 0.75160  0.40652  0.83362  Biso   1.000  H
  H34      1.0000 0.74840  0.40652  0.16638  Biso   1.000  H
  H35      1.0000 0.25160  0.90652  0.33362  Biso   1.000  H
  H36      1.0000 0.24840  0.90652  0.66638  Biso   1.000  H
  H37      1.0000 0.13255  0.59348  0.05349  Biso   1.000  H
  H38      1.0000 0.36745  0.59348  0.94651  Biso   1.000  H
  H39      1.0000 0.63255  0.09348  0.55349  Biso   1.000  H
  H40      1.0000 0.86745  0.09348  0.44651  Biso   1.000  H
  H41      1.0000 0.86745  0.40652  0.94651  Biso   1.000  H
  H42      1.0000 0.63255  0.40652  0.05349  Biso   1.000  H
  H43      1.0000 0.36745  0.90652  0.44651  Biso   1.000  H
  H44      1.0000 0.13255  0.90652  0.55349  Biso   1.000  H
