data_image0
_cell_length_a       5.3448
_cell_length_b       5.871
_cell_length_c       5.67
_cell_angle_alpha    96.33
_cell_angle_beta     88.41
_cell_angle_gamma    96.33

_symmetry_space_group_name_H-M    "P 1"
_symmetry_int_tables_number       1

loop_
  _symmetry_equiv_pos_as_xyz
  'x, y, z'

loop_
  _atom_site_label
  _atom_site_occupancy
  _atom_site_fract_x
  _atom_site_fract_y
  _atom_site_fract_z
  _atom_site_thermal_displace_type
  _atom_site_B_iso_or_equiv
  _atom_site_type_symbol
  Cu1      1.0000 0.50000  0.50000  0.50000  Biso   1.000  Cu
  O1       1.0000 0.64500  0.63800  0.80400  Biso   1.000  O
  O2       1.0000 0.35500  0.36200  0.19600  Biso   1.000  O
  O3       1.0000 0.72300  0.57900  0.16300  Biso   1.000  O
  O4       1.0000 0.27700  0.42100  0.83700  Biso   1.000  O
  O5       1.0000 0.18500  0.39700  0.65400  Biso   1.000  O
  O6       1.0000 0.81500  0.60300  0.34600  Biso   1.000  O
  O7       1.0000 0.77800  0.40100  0.64400  Biso   1.000  O
  O8       1.0000 0.22200  0.59900  0.35600  Biso   1.000  O
  O9       1.0000 0.67700  0.18100  0.59400  Biso   1.000  O
  O10      1.0000 0.32300  0.81900  0.40600  Biso   1.000  O
  O11      1.0000 0.63400  0.81500  0.61200  Biso   1.000  O
  O12      1.0000 0.36600  0.18500  0.38800  Biso   1.000  O
  C1       1.0000 0.59300  0.54200  0.98600  Biso   1.000  C
  C2       1.0000 0.40700  0.45800  0.01400  Biso   1.000  C
  C3       1.0000 0.57200  0.99600  0.53400  Biso   1.000  C
  C4       1.0000 0.42800  0.00400  0.46600  Biso   1.000  C
  C5       1.0000 0.98800  0.45500  0.56900  Biso   1.000  C
  C6       1.0000 0.01200  0.54500  0.43100  Biso   1.000  C
  C7       1.0000 0.17500  0.90100  0.93900  Biso   1.000  C
  C8       1.0000 0.82500  0.09900  0.06100  Biso   1.000  C
  N1       1.0000 0.99800  0.98400  0.08700  Biso   1.000  N
  N2       1.0000 0.00200  0.01600  0.91300  Biso   1.000  N
