data_image0
_cell_length_a       11.1685
_cell_length_b       8.4704
_cell_length_c       8.3956
_cell_angle_alpha    90
_cell_angle_beta     94.7845
_cell_angle_gamma    90

_symmetry_space_group_name_H-M    "P 1"
_symmetry_int_tables_number       1

loop_
  _symmetry_equiv_pos_as_xyz
  'x, y, z'

loop_
  _atom_site_label
  _atom_site_occupancy
  _atom_site_fract_x
  _atom_site_fract_y
  _atom_site_fract_z
  _atom_site_thermal_displace_type
  _atom_site_B_iso_or_equiv
  _atom_site_type_symbol
  Cu1      1.0000 0.50000  0.50000  0.50000  Biso   1.000  Cu
  Cu2      1.0000 0.00000  0.50000  0.50000  Biso   1.000  Cu
  Cu3      1.0000 0.00000  0.00000  0.00000  Biso   1.000  Cu
  Cu4      1.0000 0.50000  0.00000  0.00000  Biso   1.000  Cu
  O1       1.0000 0.34880  0.61520  0.50790  Biso   1.000  O
  O2       1.0000 0.15120  0.61520  0.49210  Biso   1.000  O
  O3       1.0000 0.84880  0.11520  0.00790  Biso   1.000  O
  O4       1.0000 0.65120  0.11520  0.99210  Biso   1.000  O
  O5       1.0000 0.65120  0.38480  0.49210  Biso   1.000  O
  O6       1.0000 0.84880  0.38480  0.50790  Biso   1.000  O
  O7       1.0000 0.15120  0.88480  0.99210  Biso   1.000  O
  O8       1.0000 0.34880  0.88480  0.00790  Biso   1.000  O
  O9       1.0000 0.42220  0.22230  0.11470  Biso   1.000  O
  O10      1.0000 0.07780  0.22230  0.88530  Biso   1.000  O
  O11      1.0000 0.92220  0.72230  0.61470  Biso   1.000  O
  O12      1.0000 0.57780  0.72230  0.38530  Biso   1.000  O
  O13      1.0000 0.57780  0.77770  0.88530  Biso   1.000  O
  O14      1.0000 0.92220  0.77770  0.11470  Biso   1.000  O
  O15      1.0000 0.07780  0.27770  0.38530  Biso   1.000  O
  O16      1.0000 0.42220  0.27770  0.61470  Biso   1.000  O
  O17      1.0000 0.43690  0.41470  0.29110  Biso   1.000  O
  O18      1.0000 0.06310  0.41470  0.70890  Biso   1.000  O
  O19      1.0000 0.93690  0.91470  0.79110  Biso   1.000  O
  O20      1.0000 0.56310  0.91470  0.20890  Biso   1.000  O
  O21      1.0000 0.56310  0.58530  0.70890  Biso   1.000  O
  O22      1.0000 0.93690  0.58530  0.29110  Biso   1.000  O
  O23      1.0000 0.06310  0.08530  0.20890  Biso   1.000  O
  O24      1.0000 0.43690  0.08530  0.79110  Biso   1.000  O
  C1       1.0000 0.25000  0.54610  0.50000  Biso   1.000  C
  C2       1.0000 0.75000  0.04610  0.00000  Biso   1.000  C
  C3       1.0000 0.75000  0.45390  0.50000  Biso   1.000  C
  C4       1.0000 0.25000  0.95390  0.00000  Biso   1.000  C
  H1       1.0000 0.25000  0.43630  0.50000  Biso   1.000  H
  H2       1.0000 0.75000  0.93630  0.00000  Biso   1.000  H
  H3       1.0000 0.75000  0.56370  0.50000  Biso   1.000  H
  H4       1.0000 0.25000  0.06370  0.00000  Biso   1.000  H
  C5       1.0000 0.46650  0.28370  0.24050  Biso   1.000  C
  C6       1.0000 0.03350  0.28370  0.75950  Biso   1.000  C
  C7       1.0000 0.96650  0.78370  0.74050  Biso   1.000  C
  C8       1.0000 0.53350  0.78370  0.25950  Biso   1.000  C
  C9       1.0000 0.53350  0.71630  0.75950  Biso   1.000  C
  C10      1.0000 0.96650  0.71630  0.24050  Biso   1.000  C
  C11      1.0000 0.03350  0.21630  0.25950  Biso   1.000  C
  C12      1.0000 0.46650  0.21630  0.74050  Biso   1.000  C
  H5       1.0000 0.52587  0.22784  0.30091  Biso   1.000  H
  H6       1.0000 0.97413  0.22784  0.69909  Biso   1.000  H
  H7       1.0000 0.02587  0.72784  0.80091  Biso   1.000  H
  H8       1.0000 0.47413  0.72784  0.19909  Biso   1.000  H
  H9       1.0000 0.47413  0.77216  0.69909  Biso   1.000  H
  H10      1.0000 0.02587  0.77216  0.30091  Biso   1.000  H
  H11      1.0000 0.97413  0.27216  0.19909  Biso   1.000  H
  H12      1.0000 0.52587  0.27216  0.80091  Biso   1.000  H
  N1       1.0000 0.25000  0.44120  0.00000  Biso   1.000  N
  N2       1.0000 0.75000  0.94120  0.50000  Biso   1.000  N
  N3       1.0000 0.75000  0.55880  0.00000  Biso   1.000  N
  N4       1.0000 0.25000  0.05880  0.50000  Biso   1.000  N
  H13      1.0000 0.18300  0.38800  0.96000  Biso   1.000  H
  H14      1.0000 0.31700  0.38800  0.04000  Biso   1.000  H
  H15      1.0000 0.68300  0.88800  0.46000  Biso   1.000  H
  H16      1.0000 0.81700  0.88800  0.54000  Biso   1.000  H
  H17      1.0000 0.81700  0.61200  0.04000  Biso   1.000  H
  H18      1.0000 0.68300  0.61200  0.96000  Biso   1.000  H
  H19      1.0000 0.31700  0.11200  0.54000  Biso   1.000  H
  H20      1.0000 0.18300  0.11200  0.46000  Biso   1.000  H
  C13      1.0000 0.18770  0.53450  0.11020  Biso   1.000  C
  C14      1.0000 0.31230  0.53450  0.88980  Biso   1.000  C
  C15      1.0000 0.68770  0.03450  0.61020  Biso   1.000  C
  C16      1.0000 0.81230  0.03450  0.38980  Biso   1.000  C
  C17      1.0000 0.81230  0.46550  0.88980  Biso   1.000  C
  C18      1.0000 0.68770  0.46550  0.11020  Biso   1.000  C
  C19      1.0000 0.31230  0.96550  0.38980  Biso   1.000  C
  C20      1.0000 0.18770  0.96550  0.61020  Biso   1.000  C
  H21      1.0000 0.14813  0.46598  0.18026  Biso   1.000  H
  H22      1.0000 0.35187  0.46598  0.81974  Biso   1.000  H
  H23      1.0000 0.64813  0.96598  0.68026  Biso   1.000  H
  H24      1.0000 0.85187  0.96598  0.31974  Biso   1.000  H
  H25      1.0000 0.85187  0.53402  0.81974  Biso   1.000  H
  H26      1.0000 0.64813  0.53402  0.18026  Biso   1.000  H
  H27      1.0000 0.35187  0.03402  0.31974  Biso   1.000  H
  H28      1.0000 0.14813  0.03402  0.68026  Biso   1.000  H
  H29      1.0000 0.24429  0.59992  0.17214  Biso   1.000  H
  H30      1.0000 0.25571  0.59992  0.82786  Biso   1.000  H
  H31      1.0000 0.74429  0.09992  0.67214  Biso   1.000  H
  H32      1.0000 0.75571  0.09992  0.32786  Biso   1.000  H
  H33      1.0000 0.75571  0.40008  0.82786  Biso   1.000  H
  H34      1.0000 0.74429  0.40008  0.17214  Biso   1.000  H
  H35      1.0000 0.25571  0.90008  0.32786  Biso   1.000  H
  H36      1.0000 0.24429  0.90008  0.67214  Biso   1.000  H
  H37      1.0000 0.12917  0.59992  0.05178  Biso   1.000  H
  H38      1.0000 0.37083  0.59992  0.94822  Biso   1.000  H
  H39      1.0000 0.62917  0.09992  0.55178  Biso   1.000  H
  H40      1.0000 0.87083  0.09992  0.44822  Biso   1.000  H
  H41      1.0000 0.87083  0.40008  0.94822  Biso   1.000  H
  H42      1.0000 0.62917  0.40008  0.05178  Biso   1.000  H
  H43      1.0000 0.37083  0.90008  0.44822  Biso   1.000  H
  H44      1.0000 0.12917  0.90008  0.55178  Biso   1.000  H
