data_image0
_cell_length_a       11.4292
_cell_length_b       8.7331
_cell_length_c       8.876
_cell_angle_alpha    90
_cell_angle_beta     96.18
_cell_angle_gamma    90

_symmetry_space_group_name_H-M    "P 1"
_symmetry_int_tables_number       1

loop_
  _symmetry_equiv_pos_as_xyz
  'x, y, z'

loop_
  _atom_site_label
  _atom_site_occupancy
  _atom_site_fract_x
  _atom_site_fract_y
  _atom_site_fract_z
  _atom_site_thermal_displace_type
  _atom_site_B_iso_or_equiv
  _atom_site_type_symbol
  Cu1      1.0000 0.50000  0.50000  0.50000  Biso   1.000  Cu
  Cu2      1.0000 0.00000  0.50000  0.50000  Biso   1.000  Cu
  Cu3      1.0000 0.00000  0.00000  0.00000  Biso   1.000  Cu
  Cu4      1.0000 0.50000  0.00000  0.00000  Biso   1.000  Cu
  O1       1.0000 0.34690  0.60330  0.50590  Biso   1.000  O
  O2       1.0000 0.15310  0.60330  0.49410  Biso   1.000  O
  O3       1.0000 0.84690  0.10330  0.00590  Biso   1.000  O
  O4       1.0000 0.65310  0.10330  0.99410  Biso   1.000  O
  O5       1.0000 0.65310  0.39670  0.49410  Biso   1.000  O
  O6       1.0000 0.84690  0.39670  0.50590  Biso   1.000  O
  O7       1.0000 0.15310  0.89670  0.99410  Biso   1.000  O
  O8       1.0000 0.34690  0.89670  0.00590  Biso   1.000  O
  O9       1.0000 0.42750  0.23290  0.12460  Biso   1.000  O
  O10      1.0000 0.07250  0.23290  0.87540  Biso   1.000  O
  O11      1.0000 0.92750  0.73290  0.62460  Biso   1.000  O
  O12      1.0000 0.57250  0.73290  0.37540  Biso   1.000  O
  O13      1.0000 0.57250  0.76710  0.87540  Biso   1.000  O
  O14      1.0000 0.92750  0.76710  0.12460  Biso   1.000  O
  O15      1.0000 0.07250  0.26710  0.37540  Biso   1.000  O
  O16      1.0000 0.42750  0.26710  0.62460  Biso   1.000  O
  O17      1.0000 0.43930  0.41140  0.30230  Biso   1.000  O
  O18      1.0000 0.06070  0.41140  0.69770  Biso   1.000  O
  O19      1.0000 0.93930  0.91140  0.80230  Biso   1.000  O
  O20      1.0000 0.56070  0.91140  0.19770  Biso   1.000  O
  O21      1.0000 0.56070  0.58860  0.69770  Biso   1.000  O
  O22      1.0000 0.93930  0.58860  0.30230  Biso   1.000  O
  O23      1.0000 0.06070  0.08860  0.19770  Biso   1.000  O
  O24      1.0000 0.43930  0.08860  0.80230  Biso   1.000  O
  C1       1.0000 0.25000  0.53530  0.50000  Biso   1.000  C
  C2       1.0000 0.75000  0.03530  0.00000  Biso   1.000  C
  C3       1.0000 0.75000  0.46470  0.50000  Biso   1.000  C
  C4       1.0000 0.25000  0.96470  0.00000  Biso   1.000  C
  H1       1.0000 0.25000  0.42880  0.50000  Biso   1.000  H
  H2       1.0000 0.75000  0.92880  0.00000  Biso   1.000  H
  H3       1.0000 0.75000  0.57120  0.50000  Biso   1.000  H
  H4       1.0000 0.25000  0.07120  0.00000  Biso   1.000  H
  C5       1.0000 0.47110  0.28840  0.24730  Biso   1.000  C
  C6       1.0000 0.02890  0.28840  0.75270  Biso   1.000  C
  C7       1.0000 0.97110  0.78840  0.74730  Biso   1.000  C
  C8       1.0000 0.52890  0.78840  0.25270  Biso   1.000  C
  C9       1.0000 0.52890  0.71160  0.75270  Biso   1.000  C
  C10      1.0000 0.97110  0.71160  0.24730  Biso   1.000  C
  C11      1.0000 0.02890  0.21160  0.25270  Biso   1.000  C
  C12      1.0000 0.47110  0.21160  0.74730  Biso   1.000  C
  H5       1.0000 0.53162  0.23438  0.30196  Biso   1.000  H
  H6       1.0000 0.96838  0.23438  0.69804  Biso   1.000  H
  H7       1.0000 0.03162  0.73438  0.80196  Biso   1.000  H
  H8       1.0000 0.46838  0.73438  0.19804  Biso   1.000  H
  H9       1.0000 0.46838  0.76562  0.69804  Biso   1.000  H
  H10      1.0000 0.03162  0.76562  0.30196  Biso   1.000  H
  H11      1.0000 0.96838  0.26562  0.19804  Biso   1.000  H
  H12      1.0000 0.53162  0.26562  0.80196  Biso   1.000  H
  N1       1.0000 0.25000  0.43610  0.00000  Biso   1.000  N
  N2       1.0000 0.75000  0.93610  0.50000  Biso   1.000  N
  N3       1.0000 0.75000  0.56390  0.00000  Biso   1.000  N
  N4       1.0000 0.25000  0.06390  0.50000  Biso   1.000  N
  H13      1.0000 0.19200  0.37200  0.94400  Biso   1.000  H
  H14      1.0000 0.30800  0.37200  0.05600  Biso   1.000  H
  H15      1.0000 0.69200  0.87200  0.44400  Biso   1.000  H
  H16      1.0000 0.80800  0.87200  0.55600  Biso   1.000  H
  H17      1.0000 0.80800  0.62800  0.05600  Biso   1.000  H
  H18      1.0000 0.69200  0.62800  0.94400  Biso   1.000  H
  H19      1.0000 0.30800  0.12800  0.55600  Biso   1.000  H
  H20      1.0000 0.19200  0.12800  0.44400  Biso   1.000  H
  C13      1.0000 0.19190  0.52840  0.10810  Biso   1.000  C
  C14      1.0000 0.30810  0.52840  0.89190  Biso   1.000  C
  C15      1.0000 0.69190  0.02840  0.60810  Biso   1.000  C
  C16      1.0000 0.80810  0.02840  0.39190  Biso   1.000  C
  C17      1.0000 0.80810  0.47160  0.89190  Biso   1.000  C
  C18      1.0000 0.69190  0.47160  0.10810  Biso   1.000  C
  C19      1.0000 0.30810  0.97160  0.39190  Biso   1.000  C
  C20      1.0000 0.19190  0.97160  0.60810  Biso   1.000  C
  H21      1.0000 0.15553  0.46201  0.17565  Biso   1.000  H
  H22      1.0000 0.34447  0.46201  0.82435  Biso   1.000  H
  H23      1.0000 0.65553  0.96201  0.67565  Biso   1.000  H
  H24      1.0000 0.84447  0.96201  0.32435  Biso   1.000  H
  H25      1.0000 0.84447  0.53799  0.82435  Biso   1.000  H
  H26      1.0000 0.65553  0.53799  0.17565  Biso   1.000  H
  H27      1.0000 0.34447  0.03799  0.32435  Biso   1.000  H
  H28      1.0000 0.15553  0.03799  0.67565  Biso   1.000  H
  H29      1.0000 0.24907  0.59184  0.16542  Biso   1.000  H
  H30      1.0000 0.25093  0.59184  0.83458  Biso   1.000  H
  H31      1.0000 0.74907  0.09184  0.66542  Biso   1.000  H
  H32      1.0000 0.75093  0.09184  0.33458  Biso   1.000  H
  H33      1.0000 0.75093  0.40816  0.83458  Biso   1.000  H
  H34      1.0000 0.74907  0.40816  0.16542  Biso   1.000  H
  H35      1.0000 0.25093  0.90816  0.33458  Biso   1.000  H
  H36      1.0000 0.24907  0.90816  0.66542  Biso   1.000  H
  H37      1.0000 0.13290  0.59184  0.05403  Biso   1.000  H
  H38      1.0000 0.36710  0.59184  0.94597  Biso   1.000  H
  H39      1.0000 0.63290  0.09184  0.55403  Biso   1.000  H
  H40      1.0000 0.86710  0.09184  0.44597  Biso   1.000  H
  H41      1.0000 0.86710  0.40816  0.94597  Biso   1.000  H
  H42      1.0000 0.63290  0.40816  0.05403  Biso   1.000  H
  H43      1.0000 0.36710  0.90816  0.44597  Biso   1.000  H
  H44      1.0000 0.13290  0.90816  0.55403  Biso   1.000  H
