data_image0
_cell_length_a       8.3286
_cell_length_b       8.3286
_cell_length_c       22.89
_cell_angle_alpha    90
_cell_angle_beta     90
_cell_angle_gamma    120

_symmetry_space_group_name_H-M    "P 1"
_symmetry_int_tables_number       1

loop_
  _symmetry_equiv_pos_as_xyz
  'x, y, z'

loop_
  _atom_site_label
  _atom_site_occupancy
  _atom_site_fract_x
  _atom_site_fract_y
  _atom_site_fract_z
  _atom_site_thermal_displace_type
  _atom_site_B_iso_or_equiv
  _atom_site_type_symbol
  Cu1      1.0000 0.00000  0.00000  0.00000  Biso   1.000  Cu
  Cu2      1.0000 0.00000  0.00000  0.50000  Biso   1.000  Cu
  Cu3      1.0000 0.66667  0.33333  0.33333  Biso   1.000  Cu
  Cu4      1.0000 0.66667  0.33333  0.83333  Biso   1.000  Cu
  Cu5      1.0000 0.33333  0.66667  0.66667  Biso   1.000  Cu
  Cu6      1.0000 0.33333  0.66667  0.16667  Biso   1.000  Cu
  O1       1.0000 0.22090  0.21080  0.05430  Biso   1.000  O
  O2       1.0000 0.78920  0.01010  0.05430  Biso   1.000  O
  O3       1.0000 0.98990  0.77910  0.05430  Biso   1.000  O
  O4       1.0000 0.21080  0.22090  0.44570  Biso   1.000  O
  O5       1.0000 0.77910  0.98990  0.44570  Biso   1.000  O
  O6       1.0000 0.01010  0.78920  0.44570  Biso   1.000  O
  O7       1.0000 0.88757  0.54413  0.38763  Biso   1.000  O
  O8       1.0000 0.45587  0.34343  0.38763  Biso   1.000  O
  O9       1.0000 0.65657  0.11243  0.38763  Biso   1.000  O
  O10      1.0000 0.87747  0.55423  0.77903  Biso   1.000  O
  O11      1.0000 0.44577  0.32323  0.77903  Biso   1.000  O
  O12      1.0000 0.67677  0.12253  0.77903  Biso   1.000  O
  O13      1.0000 0.55423  0.87747  0.72097  Biso   1.000  O
  O14      1.0000 0.12253  0.67677  0.72097  Biso   1.000  O
  O15      1.0000 0.32323  0.44577  0.72097  Biso   1.000  O
  O16      1.0000 0.54413  0.88757  0.11237  Biso   1.000  O
  O17      1.0000 0.11243  0.65657  0.11237  Biso   1.000  O
  O18      1.0000 0.34343  0.45587  0.11237  Biso   1.000  O
  O19      1.0000 0.77910  0.78920  0.94570  Biso   1.000  O
  O20      1.0000 0.21080  0.98990  0.94570  Biso   1.000  O
  O21      1.0000 0.01010  0.22090  0.94570  Biso   1.000  O
  O22      1.0000 0.78920  0.77910  0.55430  Biso   1.000  O
  O23      1.0000 0.22090  0.01010  0.55430  Biso   1.000  O
  O24      1.0000 0.98990  0.21080  0.55430  Biso   1.000  O
  O25      1.0000 0.44577  0.12253  0.27903  Biso   1.000  O
  O26      1.0000 0.87747  0.32323  0.27903  Biso   1.000  O
  O27      1.0000 0.67677  0.55423  0.27903  Biso   1.000  O
  O28      1.0000 0.45587  0.11243  0.88763  Biso   1.000  O
  O29      1.0000 0.88757  0.34343  0.88763  Biso   1.000  O
  O30      1.0000 0.65657  0.54413  0.88763  Biso   1.000  O
  O31      1.0000 0.11243  0.45587  0.61237  Biso   1.000  O
  O32      1.0000 0.54413  0.65657  0.61237  Biso   1.000  O
  O33      1.0000 0.34343  0.88757  0.61237  Biso   1.000  O
  O34      1.0000 0.12253  0.44577  0.22097  Biso   1.000  O
  O35      1.0000 0.55423  0.67677  0.22097  Biso   1.000  O
  O36      1.0000 0.32323  0.87747  0.22097  Biso   1.000  O
  C1       1.0000 0.21520  0.33330  0.08330  Biso   1.000  C
  C2       1.0000 0.66670  0.88190  0.08330  Biso   1.000  C
  C3       1.0000 0.11810  0.78480  0.08330  Biso   1.000  C
  C4       1.0000 0.33330  0.21520  0.41670  Biso   1.000  C
  C5       1.0000 0.78480  0.11810  0.41670  Biso   1.000  C
  C6       1.0000 0.88190  0.66670  0.41670  Biso   1.000  C
  C7       1.0000 0.99997  0.54853  0.75003  Biso   1.000  C
  C8       1.0000 0.45147  0.45143  0.75003  Biso   1.000  C
  C9       1.0000 0.54857  0.00003  0.75003  Biso   1.000  C
  C10      1.0000 0.78480  0.66670  0.91670  Biso   1.000  C
  C11      1.0000 0.33330  0.11810  0.91670  Biso   1.000  C
  C12      1.0000 0.88190  0.21520  0.91670  Biso   1.000  C
  C13      1.0000 0.66670  0.78480  0.58330  Biso   1.000  C
  C14      1.0000 0.21520  0.88190  0.58330  Biso   1.000  C
  C15      1.0000 0.11810  0.33330  0.58330  Biso   1.000  C
  C16      1.0000 0.45147  0.00003  0.25003  Biso   1.000  C
  C17      1.0000 0.99997  0.45143  0.25003  Biso   1.000  C
  C18      1.0000 0.54857  0.54853  0.25003  Biso   1.000  C
  H1       1.0000 0.10350  0.33330  0.08330  Biso   1.000  H
  H2       1.0000 0.66670  0.77020  0.08330  Biso   1.000  H
  H3       1.0000 0.22980  0.89650  0.08330  Biso   1.000  H
  H4       1.0000 0.33330  0.10350  0.41670  Biso   1.000  H
  H5       1.0000 0.89650  0.22980  0.41670  Biso   1.000  H
  H6       1.0000 0.77020  0.66670  0.41670  Biso   1.000  H
  H7       1.0000 0.99997  0.43683  0.75003  Biso   1.000  H
  H8       1.0000 0.56317  0.56313  0.75003  Biso   1.000  H
  H9       1.0000 0.43687  0.00003  0.75003  Biso   1.000  H
  H10      1.0000 0.89650  0.66670  0.91670  Biso   1.000  H
  H11      1.0000 0.33330  0.22980  0.91670  Biso   1.000  H
  H12      1.0000 0.77020  0.10350  0.91670  Biso   1.000  H
  H13      1.0000 0.66670  0.89650  0.58330  Biso   1.000  H
  H14      1.0000 0.10350  0.77020  0.58330  Biso   1.000  H
  H15      1.0000 0.22980  0.33330  0.58330  Biso   1.000  H
  H16      1.0000 0.56317  0.00003  0.25003  Biso   1.000  H
  H17      1.0000 0.99997  0.56313  0.25003  Biso   1.000  H
  H18      1.0000 0.43687  0.43683  0.25003  Biso   1.000  H
  N1       1.0000 0.58500  0.25200  0.08330  Biso   1.000  N
  N2       1.0000 0.74800  0.33300  0.08330  Biso   1.000  N
  N3       1.0000 0.66700  0.41500  0.08330  Biso   1.000  N
  N4       1.0000 0.25200  0.58500  0.41670  Biso   1.000  N
  N5       1.0000 0.41500  0.66700  0.41670  Biso   1.000  N
  N6       1.0000 0.33300  0.74800  0.41670  Biso   1.000  N
  N7       1.0000 0.91867  0.91833  0.75003  Biso   1.000  N
  N8       1.0000 0.08167  0.00033  0.75003  Biso   1.000  N
  N9       1.0000 0.99967  0.08133  0.75003  Biso   1.000  N
  N10      1.0000 0.41500  0.74800  0.91670  Biso   1.000  N
  N11      1.0000 0.25200  0.66700  0.91670  Biso   1.000  N
  N12      1.0000 0.33300  0.58500  0.91670  Biso   1.000  N
  N13      1.0000 0.74800  0.41500  0.58330  Biso   1.000  N
  N14      1.0000 0.58500  0.33300  0.58330  Biso   1.000  N
  N15      1.0000 0.66700  0.25200  0.58330  Biso   1.000  N
  N16      1.0000 0.08167  0.08133  0.25003  Biso   1.000  N
  N17      1.0000 0.91867  0.00033  0.25003  Biso   1.000  N
  N18      1.0000 0.99967  0.91833  0.25003  Biso   1.000  N
  C19      1.0000 0.66670  0.33330  0.03160  Biso   1.000  C
  C20      1.0000 0.33330  0.66670  0.46840  Biso   1.000  C
  C21      1.0000 0.33337  0.66663  0.36493  Biso   1.000  C
  C22      1.0000 0.99997  0.00003  0.80173  Biso   1.000  C
  C23      1.0000 0.00003  0.99997  0.69827  Biso   1.000  C
  C24      1.0000 0.66663  0.33337  0.13507  Biso   1.000  C
  C25      1.0000 0.33330  0.66670  0.96840  Biso   1.000  C
  C26      1.0000 0.66670  0.33330  0.53160  Biso   1.000  C
  C27      1.0000 0.99997  0.00003  0.30173  Biso   1.000  C
  C28      1.0000 0.33337  0.66663  0.86493  Biso   1.000  C
  C29      1.0000 0.66663  0.33337  0.63507  Biso   1.000  C
  C30      1.0000 0.00003  0.99997  0.19827  Biso   1.000  C
  H19      1.0000 0.59140  0.26050  0.99950  Biso   1.000  H
  H20      1.0000 0.73950  0.33090  0.99950  Biso   1.000  H
  H21      1.0000 0.66910  0.40860  0.99950  Biso   1.000  H
  H22      1.0000 0.26050  0.59140  0.50050  Biso   1.000  H
  H23      1.0000 0.40860  0.66910  0.50050  Biso   1.000  H
  H24      1.0000 0.33090  0.73950  0.50050  Biso   1.000  H
  H25      1.0000 0.25807  0.59383  0.33283  Biso   1.000  H
  H26      1.0000 0.40617  0.66423  0.33283  Biso   1.000  H
  H27      1.0000 0.33577  0.74193  0.33283  Biso   1.000  H
  H28      1.0000 0.92717  0.92473  0.83383  Biso   1.000  H
  H29      1.0000 0.07527  0.00243  0.83383  Biso   1.000  H
  H30      1.0000 0.99757  0.07283  0.83383  Biso   1.000  H
  H31      1.0000 0.92473  0.92717  0.66617  Biso   1.000  H
  H32      1.0000 0.07283  0.99757  0.66617  Biso   1.000  H
  H33      1.0000 0.00243  0.07527  0.66617  Biso   1.000  H
  H34      1.0000 0.59383  0.25807  0.16717  Biso   1.000  H
  H35      1.0000 0.74193  0.33577  0.16717  Biso   1.000  H
  H36      1.0000 0.66423  0.40617  0.16717  Biso   1.000  H
  H37      1.0000 0.40860  0.73950  0.00050  Biso   1.000  H
  H38      1.0000 0.26050  0.66910  0.00050  Biso   1.000  H
  H39      1.0000 0.33090  0.59140  0.00050  Biso   1.000  H
  H40      1.0000 0.73950  0.40860  0.49950  Biso   1.000  H
  H41      1.0000 0.59140  0.33090  0.49950  Biso   1.000  H
  H42      1.0000 0.66910  0.26050  0.49950  Biso   1.000  H
  H43      1.0000 0.07527  0.07283  0.33383  Biso   1.000  H
  H44      1.0000 0.92717  0.00243  0.33383  Biso   1.000  H
  H45      1.0000 0.99757  0.92473  0.33383  Biso   1.000  H
  H46      1.0000 0.40617  0.74193  0.83283  Biso   1.000  H
  H47      1.0000 0.25807  0.66423  0.83283  Biso   1.000  H
  H48      1.0000 0.33577  0.59383  0.83283  Biso   1.000  H
  H49      1.0000 0.74193  0.40617  0.66717  Biso   1.000  H
  H50      1.0000 0.59383  0.33577  0.66717  Biso   1.000  H
  H51      1.0000 0.66423  0.25807  0.66717  Biso   1.000  H
  H52      1.0000 0.07283  0.07527  0.16617  Biso   1.000  H
  H53      1.0000 0.92473  0.99757  0.16617  Biso   1.000  H
  H54      1.0000 0.00243  0.92717  0.16617  Biso   1.000  H
  H55      1.0000 0.78630  0.34310  0.02930  Biso   1.000  H
  H56      1.0000 0.65690  0.44320  0.02930  Biso   1.000  H
  H57      1.0000 0.55680  0.21370  0.02930  Biso   1.000  H
  H58      1.0000 0.34310  0.78630  0.47070  Biso   1.000  H
  H59      1.0000 0.21370  0.55680  0.47070  Biso   1.000  H
  H60      1.0000 0.44320  0.65690  0.47070  Biso   1.000  H
  H61      1.0000 0.45297  0.67643  0.36263  Biso   1.000  H
  H62      1.0000 0.32357  0.77653  0.36263  Biso   1.000  H
  H63      1.0000 0.22347  0.54703  0.36263  Biso   1.000  H
  H64      1.0000 0.00977  0.11963  0.80403  Biso   1.000  H
  H65      1.0000 0.88037  0.89013  0.80403  Biso   1.000  H
  H66      1.0000 0.10987  0.99023  0.80403  Biso   1.000  H
  H67      1.0000 0.11963  0.00977  0.69597  Biso   1.000  H
  H68      1.0000 0.99023  0.10987  0.69597  Biso   1.000  H
  H69      1.0000 0.89013  0.88037  0.69597  Biso   1.000  H
  H70      1.0000 0.67643  0.45297  0.13737  Biso   1.000  H
  H71      1.0000 0.54703  0.22347  0.13737  Biso   1.000  H
  H72      1.0000 0.77653  0.32357  0.13737  Biso   1.000  H
  H73      1.0000 0.21370  0.65690  0.97070  Biso   1.000  H
  H74      1.0000 0.34310  0.55680  0.97070  Biso   1.000  H
  H75      1.0000 0.44320  0.78630  0.97070  Biso   1.000  H
  H76      1.0000 0.65690  0.21370  0.52930  Biso   1.000  H
  H77      1.0000 0.78630  0.44320  0.52930  Biso   1.000  H
  H78      1.0000 0.55680  0.34310  0.52930  Biso   1.000  H
  H79      1.0000 0.88037  0.99023  0.30403  Biso   1.000  H
  H80      1.0000 0.00977  0.89013  0.30403  Biso   1.000  H
  H81      1.0000 0.10987  0.11963  0.30403  Biso   1.000  H
  H82      1.0000 0.32357  0.54703  0.86263  Biso   1.000  H
  H83      1.0000 0.45297  0.77653  0.86263  Biso   1.000  H
  H84      1.0000 0.22347  0.67643  0.86263  Biso   1.000  H
  H85      1.0000 0.54703  0.32357  0.63737  Biso   1.000  H
  H86      1.0000 0.67643  0.22347  0.63737  Biso   1.000  H
  H87      1.0000 0.77653  0.45297  0.63737  Biso   1.000  H
  H88      1.0000 0.99023  0.88037  0.19597  Biso   1.000  H
  H89      1.0000 0.11963  0.10987  0.19597  Biso   1.000  H
  H90      1.0000 0.89013  0.00977  0.19597  Biso   1.000  H
  H91      1.0000 0.68080  0.45490  0.03000  Biso   1.000  H
  H92      1.0000 0.54510  0.22590  0.03000  Biso   1.000  H
  H93      1.0000 0.77410  0.31920  0.03000  Biso   1.000  H
  H94      1.0000 0.45490  0.68080  0.47000  Biso   1.000  H
  H95      1.0000 0.31920  0.77410  0.47000  Biso   1.000  H
  H96      1.0000 0.22590  0.54510  0.47000  Biso   1.000  H
  H97      1.0000 0.34747  0.78823  0.36333  Biso   1.000  H
  H98      1.0000 0.21177  0.55923  0.36333  Biso   1.000  H
  H99      1.0000 0.44077  0.65253  0.36333  Biso   1.000  H
  H100     1.0000 0.12157  0.01413  0.80333  Biso   1.000  H
  H101     1.0000 0.98587  0.10743  0.80333  Biso   1.000  H
  H102     1.0000 0.89257  0.87843  0.80333  Biso   1.000  H
  H103     1.0000 0.01413  0.12157  0.69667  Biso   1.000  H
  H104     1.0000 0.87843  0.89257  0.69667  Biso   1.000  H
  H105     1.0000 0.10743  0.98587  0.69667  Biso   1.000  H
  H106     1.0000 0.78823  0.34747  0.13667  Biso   1.000  H
  H107     1.0000 0.65253  0.44077  0.13667  Biso   1.000  H
  H108     1.0000 0.55923  0.21177  0.13667  Biso   1.000  H
  H109     1.0000 0.31920  0.54510  0.97000  Biso   1.000  H
  H110     1.0000 0.45490  0.77410  0.97000  Biso   1.000  H
  H111     1.0000 0.22590  0.68080  0.97000  Biso   1.000  H
  H112     1.0000 0.54510  0.31920  0.53000  Biso   1.000  H
  H113     1.0000 0.68080  0.22590  0.53000  Biso   1.000  H
  H114     1.0000 0.77410  0.45490  0.53000  Biso   1.000  H
  H115     1.0000 0.98587  0.87843  0.30333  Biso   1.000  H
  H116     1.0000 0.12157  0.10743  0.30333  Biso   1.000  H
  H117     1.0000 0.89257  0.01413  0.30333  Biso   1.000  H
  H118     1.0000 0.21177  0.65253  0.86333  Biso   1.000  H
  H119     1.0000 0.34747  0.55923  0.86333  Biso   1.000  H
  H120     1.0000 0.44077  0.78823  0.86333  Biso   1.000  H
  H121     1.0000 0.65253  0.21177  0.63667  Biso   1.000  H
  H122     1.0000 0.78823  0.44077  0.63667  Biso   1.000  H
  H123     1.0000 0.55923  0.34747  0.63667  Biso   1.000  H
  H124     1.0000 0.87843  0.98587  0.19667  Biso   1.000  H
  H125     1.0000 0.01413  0.89257  0.19667  Biso   1.000  H
  H126     1.0000 0.10743  0.12157  0.19667  Biso   1.000  H
  H127     1.0000 0.47090  0.23570  0.08330  Biso   1.000  H
  H128     1.0000 0.76430  0.23520  0.08330  Biso   1.000  H
  H129     1.0000 0.76480  0.52910  0.08330  Biso   1.000  H
  H130     1.0000 0.23570  0.47090  0.41670  Biso   1.000  H
  H131     1.0000 0.52910  0.76480  0.41670  Biso   1.000  H
  H132     1.0000 0.23520  0.76430  0.41670  Biso   1.000  H
  H133     1.0000 0.13757  0.56903  0.41663  Biso   1.000  H
  H134     1.0000 0.43097  0.56853  0.41663  Biso   1.000  H
  H135     1.0000 0.43147  0.86243  0.41663  Biso   1.000  H
  H136     1.0000 0.90237  0.80423  0.75003  Biso   1.000  H
  H137     1.0000 0.19577  0.09813  0.75003  Biso   1.000  H
  H138     1.0000 0.90187  0.09763  0.75003  Biso   1.000  H
  H139     1.0000 0.80423  0.90237  0.74997  Biso   1.000  H
  H140     1.0000 0.09763  0.90187  0.74997  Biso   1.000  H
  H141     1.0000 0.09813  0.19577  0.74997  Biso   1.000  H
  H142     1.0000 0.56903  0.13757  0.08337  Biso   1.000  H
  H143     1.0000 0.86243  0.43147  0.08337  Biso   1.000  H
  H144     1.0000 0.56853  0.43097  0.08337  Biso   1.000  H
  H145     1.0000 0.52910  0.76430  0.91670  Biso   1.000  H
  H146     1.0000 0.23570  0.76480  0.91670  Biso   1.000  H
  H147     1.0000 0.23520  0.47090  0.91670  Biso   1.000  H
  H148     1.0000 0.76430  0.52910  0.58330  Biso   1.000  H
  H149     1.0000 0.47090  0.23520  0.58330  Biso   1.000  H
  H150     1.0000 0.76480  0.23570  0.58330  Biso   1.000  H
  H151     1.0000 0.19577  0.09763  0.25003  Biso   1.000  H
  H152     1.0000 0.90237  0.09813  0.25003  Biso   1.000  H
  H153     1.0000 0.90187  0.80423  0.25003  Biso   1.000  H
  H154     1.0000 0.43097  0.86243  0.91663  Biso   1.000  H
  H155     1.0000 0.13757  0.56853  0.91663  Biso   1.000  H
  H156     1.0000 0.43147  0.56903  0.91663  Biso   1.000  H
  H157     1.0000 0.86243  0.43097  0.58337  Biso   1.000  H
  H158     1.0000 0.56903  0.43147  0.58337  Biso   1.000  H
  H159     1.0000 0.56853  0.13757  0.58337  Biso   1.000  H
  H160     1.0000 0.09763  0.19577  0.24997  Biso   1.000  H
  H161     1.0000 0.80423  0.90187  0.24997  Biso   1.000  H
  H162     1.0000 0.09813  0.90237  0.24997  Biso   1.000  H
  H163     1.0000 0.57120  0.13530  0.08330  Biso   1.000  H
  H164     1.0000 0.86470  0.43590  0.08330  Biso   1.000  H
  H165     1.0000 0.56410  0.42880  0.08330  Biso   1.000  H
  H166     1.0000 0.13530  0.57120  0.41670  Biso   1.000  H
  H167     1.0000 0.42880  0.56410  0.41670  Biso   1.000  H
  H168     1.0000 0.43590  0.86470  0.41670  Biso   1.000  H
  H169     1.0000 0.23787  0.46863  0.41663  Biso   1.000  H
  H170     1.0000 0.53137  0.76923  0.41663  Biso   1.000  H
  H171     1.0000 0.23077  0.76213  0.41663  Biso   1.000  H
  H172     1.0000 0.80197  0.90453  0.75003  Biso   1.000  H
  H173     1.0000 0.09547  0.89743  0.75003  Biso   1.000  H
  H174     1.0000 0.10257  0.19803  0.75003  Biso   1.000  H
  H175     1.0000 0.90453  0.80197  0.74997  Biso   1.000  H
  H176     1.0000 0.19803  0.10257  0.74997  Biso   1.000  H
  H177     1.0000 0.89743  0.09547  0.74997  Biso   1.000  H
  H178     1.0000 0.46863  0.23787  0.08337  Biso   1.000  H
  H179     1.0000 0.76213  0.23077  0.08337  Biso   1.000  H
  H180     1.0000 0.76923  0.53137  0.08337  Biso   1.000  H
  H181     1.0000 0.42880  0.86470  0.91670  Biso   1.000  H
  H182     1.0000 0.13530  0.56410  0.91670  Biso   1.000  H
  H183     1.0000 0.43590  0.57120  0.91670  Biso   1.000  H
  H184     1.0000 0.86470  0.42880  0.58330  Biso   1.000  H
  H185     1.0000 0.57120  0.43590  0.58330  Biso   1.000  H
  H186     1.0000 0.56410  0.13530  0.58330  Biso   1.000  H
  H187     1.0000 0.09547  0.19803  0.25003  Biso   1.000  H
  H188     1.0000 0.80197  0.89743  0.25003  Biso   1.000  H
  H189     1.0000 0.10257  0.90453  0.25003  Biso   1.000  H
  H190     1.0000 0.53137  0.76213  0.91663  Biso   1.000  H
  H191     1.0000 0.23787  0.76923  0.91663  Biso   1.000  H
  H192     1.0000 0.23077  0.46863  0.91663  Biso   1.000  H
  H193     1.0000 0.76213  0.53137  0.58337  Biso   1.000  H
  H194     1.0000 0.46863  0.23077  0.58337  Biso   1.000  H
  H195     1.0000 0.76923  0.23787  0.58337  Biso   1.000  H
  H196     1.0000 0.19803  0.09547  0.24997  Biso   1.000  H
  H197     1.0000 0.90453  0.10257  0.24997  Biso   1.000  H
  H198     1.0000 0.89743  0.80197  0.24997  Biso   1.000  H
