data_image0
_cell_length_a       11.272
_cell_length_b       8.5295
_cell_length_c       8.5611
_cell_angle_alpha    90
_cell_angle_beta     95.1904
_cell_angle_gamma    90

_symmetry_space_group_name_H-M    "P 1"
_symmetry_int_tables_number       1

loop_
  _symmetry_equiv_pos_as_xyz
  'x, y, z'

loop_
  _atom_site_label
  _atom_site_occupancy
  _atom_site_fract_x
  _atom_site_fract_y
  _atom_site_fract_z
  _atom_site_thermal_displace_type
  _atom_site_B_iso_or_equiv
  _atom_site_type_symbol
  Cu1      1.0000 0.50000  0.50000  0.50000  Biso   1.000  Cu
  Cu2      1.0000 0.00000  0.50000  0.50000  Biso   1.000  Cu
  Cu3      1.0000 0.00000  0.00000  0.00000  Biso   1.000  Cu
  Cu4      1.0000 0.50000  0.00000  0.00000  Biso   1.000  Cu
  O1       1.0000 0.34801  0.61160  0.50760  Biso   1.000  O
  O2       1.0000 0.15199  0.61160  0.49240  Biso   1.000  O
  O3       1.0000 0.84801  0.11160  0.00760  Biso   1.000  O
  O4       1.0000 0.65199  0.11160  0.99240  Biso   1.000  O
  O5       1.0000 0.65199  0.38840  0.49240  Biso   1.000  O
  O6       1.0000 0.84801  0.38840  0.50760  Biso   1.000  O
  O7       1.0000 0.15199  0.88840  0.99240  Biso   1.000  O
  O8       1.0000 0.34801  0.88840  0.00760  Biso   1.000  O
  O9       1.0000 0.42450  0.22550  0.11780  Biso   1.000  O
  O10      1.0000 0.07550  0.22550  0.88220  Biso   1.000  O
  O11      1.0000 0.92450  0.72550  0.61780  Biso   1.000  O
  O12      1.0000 0.57550  0.72550  0.38220  Biso   1.000  O
  O13      1.0000 0.57550  0.77450  0.88220  Biso   1.000  O
  O14      1.0000 0.92450  0.77450  0.11780  Biso   1.000  O
  O15      1.0000 0.07550  0.27450  0.38220  Biso   1.000  O
  O16      1.0000 0.42450  0.27450  0.61780  Biso   1.000  O
  O17      1.0000 0.43770  0.41320  0.29520  Biso   1.000  O
  O18      1.0000 0.06230  0.41320  0.70480  Biso   1.000  O
  O19      1.0000 0.93770  0.91320  0.79520  Biso   1.000  O
  O20      1.0000 0.56230  0.91320  0.20480  Biso   1.000  O
  O21      1.0000 0.56230  0.58680  0.70480  Biso   1.000  O
  O22      1.0000 0.93770  0.58680  0.29520  Biso   1.000  O
  O23      1.0000 0.06230  0.08680  0.20480  Biso   1.000  O
  O24      1.0000 0.43770  0.08680  0.79520  Biso   1.000  O
  C1       1.0000 0.25000  0.54280  0.50000  Biso   1.000  C
  C2       1.0000 0.75000  0.04280  0.00000  Biso   1.000  C
  C3       1.0000 0.75000  0.45720  0.50000  Biso   1.000  C
  C4       1.0000 0.25000  0.95720  0.00000  Biso   1.000  C
  H1       1.0000 0.25000  0.43374  0.50000  Biso   1.000  H
  H2       1.0000 0.75000  0.93374  0.00000  Biso   1.000  H
  H3       1.0000 0.75000  0.56626  0.50000  Biso   1.000  H
  H4       1.0000 0.25000  0.06626  0.00000  Biso   1.000  H
  C5       1.0000 0.46880  0.28470  0.24070  Biso   1.000  C
  C6       1.0000 0.03120  0.28470  0.75930  Biso   1.000  C
  C7       1.0000 0.96880  0.78470  0.74070  Biso   1.000  C
  C8       1.0000 0.53120  0.78470  0.25930  Biso   1.000  C
  C9       1.0000 0.53120  0.71530  0.75930  Biso   1.000  C
  C10      1.0000 0.96880  0.71530  0.24070  Biso   1.000  C
  C11      1.0000 0.03120  0.21530  0.25930  Biso   1.000  C
  C12      1.0000 0.46880  0.21530  0.74070  Biso   1.000  C
  H5       1.0000 0.52972  0.22993  0.29731  Biso   1.000  H
  H6       1.0000 0.97028  0.22993  0.70269  Biso   1.000  H
  H7       1.0000 0.02972  0.72993  0.79731  Biso   1.000  H
  H8       1.0000 0.47028  0.72993  0.20269  Biso   1.000  H
  H9       1.0000 0.47028  0.77007  0.70269  Biso   1.000  H
  H10      1.0000 0.02972  0.77007  0.29731  Biso   1.000  H
  H11      1.0000 0.97028  0.27007  0.20269  Biso   1.000  H
  H12      1.0000 0.52972  0.27007  0.79731  Biso   1.000  H
  N1       1.0000 0.25000  0.43960  0.00000  Biso   1.000  N
  N2       1.0000 0.75000  0.93960  0.50000  Biso   1.000  N
  N3       1.0000 0.75000  0.56040  0.00000  Biso   1.000  N
  N4       1.0000 0.25000  0.06040  0.50000  Biso   1.000  N
  H13      1.0000 0.19700  0.38100  0.95300  Biso   1.000  H
  H14      1.0000 0.30300  0.38100  0.04700  Biso   1.000  H
  H15      1.0000 0.69700  0.88100  0.45300  Biso   1.000  H
  H16      1.0000 0.80300  0.88100  0.54700  Biso   1.000  H
  H17      1.0000 0.80300  0.61900  0.04700  Biso   1.000  H
  H18      1.0000 0.69700  0.61900  0.95300  Biso   1.000  H
  H19      1.0000 0.30300  0.11900  0.54700  Biso   1.000  H
  H20      1.0000 0.19700  0.11900  0.45300  Biso   1.000  H
  C13      1.0000 0.18960  0.53290  0.10990  Biso   1.000  C
  C14      1.0000 0.31040  0.53290  0.89010  Biso   1.000  C
  C15      1.0000 0.68960  0.03290  0.60990  Biso   1.000  C
  C16      1.0000 0.81040  0.03290  0.39010  Biso   1.000  C
  C17      1.0000 0.81040  0.46710  0.89010  Biso   1.000  C
  C18      1.0000 0.68960  0.46710  0.10990  Biso   1.000  C
  C19      1.0000 0.31040  0.96710  0.39010  Biso   1.000  C
  C20      1.0000 0.18960  0.96710  0.60990  Biso   1.000  C
  H21      1.0000 0.15145  0.46490  0.17940  Biso   1.000  H
  H22      1.0000 0.34855  0.46490  0.82060  Biso   1.000  H
  H23      1.0000 0.65145  0.96490  0.67940  Biso   1.000  H
  H24      1.0000 0.84855  0.96490  0.32060  Biso   1.000  H
  H25      1.0000 0.84855  0.53510  0.82060  Biso   1.000  H
  H26      1.0000 0.65145  0.53510  0.17940  Biso   1.000  H
  H27      1.0000 0.34855  0.03510  0.32060  Biso   1.000  H
  H28      1.0000 0.15145  0.03510  0.67940  Biso   1.000  H
  H29      1.0000 0.24653  0.59787  0.16979  Biso   1.000  H
  H30      1.0000 0.25347  0.59787  0.83021  Biso   1.000  H
  H31      1.0000 0.74653  0.09787  0.66979  Biso   1.000  H
  H32      1.0000 0.75347  0.09787  0.33021  Biso   1.000  H
  H33      1.0000 0.75347  0.40213  0.83021  Biso   1.000  H
  H34      1.0000 0.74653  0.40213  0.16979  Biso   1.000  H
  H35      1.0000 0.25347  0.90213  0.33021  Biso   1.000  H
  H36      1.0000 0.24653  0.90213  0.66979  Biso   1.000  H
  H37      1.0000 0.13084  0.59787  0.05345  Biso   1.000  H
  H38      1.0000 0.36916  0.59787  0.94655  Biso   1.000  H
  H39      1.0000 0.63084  0.09787  0.55345  Biso   1.000  H
  H40      1.0000 0.86916  0.09787  0.44655  Biso   1.000  H
  H41      1.0000 0.86916  0.40213  0.94655  Biso   1.000  H
  H42      1.0000 0.63084  0.40213  0.05345  Biso   1.000  H
  H43      1.0000 0.36916  0.90213  0.44655  Biso   1.000  H
  H44      1.0000 0.13084  0.90213  0.55345  Biso   1.000  H
