data_image0
_cell_length_a       11.086
_cell_length_b       8.4489
_cell_length_c       8.2715
_cell_angle_alpha    90
_cell_angle_beta     94.553
_cell_angle_gamma    90

_symmetry_space_group_name_H-M    "P 1"
_symmetry_int_tables_number       1

loop_
  _symmetry_equiv_pos_as_xyz
  'x, y, z'

loop_
  _atom_site_label
  _atom_site_occupancy
  _atom_site_fract_x
  _atom_site_fract_y
  _atom_site_fract_z
  _atom_site_thermal_displace_type
  _atom_site_B_iso_or_equiv
  _atom_site_type_symbol
  Cu1      1.0000 0.50000  0.50000  0.50000  Biso   1.000  Cu
  Cu2      1.0000 0.00000  0.50000  0.50000  Biso   1.000  Cu
  Cu3      1.0000 0.00000  0.00000  0.00000  Biso   1.000  Cu
  Cu4      1.0000 0.50000  0.00000  0.00000  Biso   1.000  Cu
  O1       1.0000 0.34940  0.61900  0.50850  Biso   1.000  O
  O2       1.0000 0.15060  0.61900  0.49150  Biso   1.000  O
  O3       1.0000 0.84940  0.11900  0.00850  Biso   1.000  O
  O4       1.0000 0.65060  0.11900  0.99150  Biso   1.000  O
  O5       1.0000 0.65060  0.38100  0.49150  Biso   1.000  O
  O6       1.0000 0.84940  0.38100  0.50850  Biso   1.000  O
  O7       1.0000 0.15060  0.88100  0.99150  Biso   1.000  O
  O8       1.0000 0.34940  0.88100  0.00850  Biso   1.000  O
  O9       1.0000 0.41930  0.21900  0.11280  Biso   1.000  O
  O10      1.0000 0.08070  0.21900  0.88720  Biso   1.000  O
  O11      1.0000 0.91930  0.71900  0.61280  Biso   1.000  O
  O12      1.0000 0.58070  0.71900  0.38720  Biso   1.000  O
  O13      1.0000 0.58070  0.78100  0.88720  Biso   1.000  O
  O14      1.0000 0.91930  0.78100  0.11280  Biso   1.000  O
  O15      1.0000 0.08070  0.28100  0.38720  Biso   1.000  O
  O16      1.0000 0.41930  0.28100  0.61280  Biso   1.000  O
  O17      1.0000 0.43620  0.41570  0.28910  Biso   1.000  O
  O18      1.0000 0.06380  0.41570  0.71090  Biso   1.000  O
  O19      1.0000 0.93620  0.91570  0.78910  Biso   1.000  O
  O20      1.0000 0.56380  0.91570  0.21090  Biso   1.000  O
  O21      1.0000 0.56380  0.58430  0.71090  Biso   1.000  O
  O22      1.0000 0.93620  0.58430  0.28910  Biso   1.000  O
  O23      1.0000 0.06380  0.08430  0.21090  Biso   1.000  O
  O24      1.0000 0.43620  0.08430  0.78910  Biso   1.000  O
  C1       1.0000 0.25000  0.54840  0.50000  Biso   1.000  C
  C2       1.0000 0.75000  0.04840  0.00000  Biso   1.000  C
  C3       1.0000 0.75000  0.45160  0.50000  Biso   1.000  C
  C4       1.0000 0.25000  0.95160  0.00000  Biso   1.000  C
  H1       1.0000 0.25000  0.43834  0.50000  Biso   1.000  H
  H2       1.0000 0.75000  0.93834  0.00000  Biso   1.000  H
  H3       1.0000 0.75000  0.56166  0.50000  Biso   1.000  H
  H4       1.0000 0.25000  0.06166  0.00000  Biso   1.000  H
  C5       1.0000 0.46550  0.28300  0.23860  Biso   1.000  C
  C6       1.0000 0.03450  0.28300  0.76140  Biso   1.000  C
  C7       1.0000 0.96550  0.78300  0.73860  Biso   1.000  C
  C8       1.0000 0.53450  0.78300  0.26140  Biso   1.000  C
  C9       1.0000 0.53450  0.71700  0.76140  Biso   1.000  C
  C10      1.0000 0.96550  0.71700  0.23860  Biso   1.000  C
  C11      1.0000 0.03450  0.21700  0.26140  Biso   1.000  C
  C12      1.0000 0.46550  0.21700  0.73860  Biso   1.000  C
  H5       1.0000 0.52604  0.22799  0.29923  Biso   1.000  H
  H6       1.0000 0.97396  0.22799  0.70077  Biso   1.000  H
  H7       1.0000 0.02604  0.72799  0.79923  Biso   1.000  H
  H8       1.0000 0.47396  0.72799  0.20077  Biso   1.000  H
  H9       1.0000 0.47396  0.77201  0.70077  Biso   1.000  H
  H10      1.0000 0.02604  0.77201  0.29923  Biso   1.000  H
  H11      1.0000 0.97396  0.27201  0.20077  Biso   1.000  H
  H12      1.0000 0.52604  0.27201  0.79923  Biso   1.000  H
  N1       1.0000 0.25000  0.44360  0.00000  Biso   1.000  N
  N2       1.0000 0.75000  0.94360  0.50000  Biso   1.000  N
  N3       1.0000 0.75000  0.55640  0.00000  Biso   1.000  N
  N4       1.0000 0.25000  0.05640  0.50000  Biso   1.000  N
  H13      1.0000 0.18100  0.40200  0.94700  Biso   1.000  H
  H14      1.0000 0.31900  0.40200  0.05300  Biso   1.000  H
  H15      1.0000 0.68100  0.90200  0.44700  Biso   1.000  H
  H16      1.0000 0.81900  0.90200  0.55300  Biso   1.000  H
  H17      1.0000 0.81900  0.59800  0.05300  Biso   1.000  H
  H18      1.0000 0.68100  0.59800  0.94700  Biso   1.000  H
  H19      1.0000 0.31900  0.09800  0.55300  Biso   1.000  H
  H20      1.0000 0.18100  0.09800  0.44700  Biso   1.000  H
  C13      1.0000 0.18670  0.53450  0.10830  Biso   1.000  C
  C14      1.0000 0.31330  0.53450  0.89170  Biso   1.000  C
  C15      1.0000 0.68670  0.03450  0.60830  Biso   1.000  C
  C16      1.0000 0.81330  0.03450  0.39170  Biso   1.000  C
  C17      1.0000 0.81330  0.46550  0.89170  Biso   1.000  C
  C18      1.0000 0.68670  0.46550  0.10830  Biso   1.000  C
  C19      1.0000 0.31330  0.96550  0.39170  Biso   1.000  C
  C20      1.0000 0.18670  0.96550  0.60830  Biso   1.000  C
  H21      1.0000 0.14592  0.46532  0.17821  Biso   1.000  H
  H22      1.0000 0.35408  0.46532  0.82179  Biso   1.000  H
  H23      1.0000 0.64592  0.96532  0.67821  Biso   1.000  H
  H24      1.0000 0.85408  0.96532  0.32179  Biso   1.000  H
  H25      1.0000 0.85408  0.53468  0.82179  Biso   1.000  H
  H26      1.0000 0.64592  0.53468  0.17821  Biso   1.000  H
  H27      1.0000 0.35408  0.03468  0.32179  Biso   1.000  H
  H28      1.0000 0.14592  0.03468  0.67821  Biso   1.000  H
  H29      1.0000 0.24272  0.60004  0.17252  Biso   1.000  H
  H30      1.0000 0.25728  0.60004  0.82748  Biso   1.000  H
  H31      1.0000 0.74272  0.10004  0.67252  Biso   1.000  H
  H32      1.0000 0.75728  0.10004  0.32748  Biso   1.000  H
  H33      1.0000 0.75728  0.39996  0.82748  Biso   1.000  H
  H34      1.0000 0.74272  0.39996  0.17252  Biso   1.000  H
  H35      1.0000 0.25728  0.89996  0.32748  Biso   1.000  H
  H36      1.0000 0.24272  0.89996  0.67252  Biso   1.000  H
  H37      1.0000 0.12840  0.60004  0.04815  Biso   1.000  H
  H38      1.0000 0.37160  0.60004  0.95185  Biso   1.000  H
  H39      1.0000 0.62840  0.10004  0.54815  Biso   1.000  H
  H40      1.0000 0.87160  0.10004  0.45185  Biso   1.000  H
  H41      1.0000 0.87160  0.39996  0.95185  Biso   1.000  H
  H42      1.0000 0.62840  0.39996  0.04815  Biso   1.000  H
  H43      1.0000 0.37160  0.89996  0.45185  Biso   1.000  H
  H44      1.0000 0.12840  0.89996  0.54815  Biso   1.000  H
