data_image0
_cell_length_a       5.3066
_cell_length_b       5.849
_cell_length_c       5.599
_cell_angle_alpha    96.76
_cell_angle_beta     88.11
_cell_angle_gamma    95.53

_symmetry_space_group_name_H-M    "P 1"
_symmetry_int_tables_number       1

loop_
  _symmetry_equiv_pos_as_xyz
  'x, y, z'

loop_
  _atom_site_label
  _atom_site_occupancy
  _atom_site_fract_x
  _atom_site_fract_y
  _atom_site_fract_z
  _atom_site_thermal_displace_type
  _atom_site_B_iso_or_equiv
  _atom_site_type_symbol
  Cu1      1.0000 0.50000  0.50000  0.50000  Biso   1.000  Cu
  O1       1.0000 0.65100  0.63400  0.79700  Biso   1.000  O
  O2       1.0000 0.34900  0.36600  0.20300  Biso   1.000  O
  O3       1.0000 0.73400  0.57000  0.16000  Biso   1.000  O
  O4       1.0000 0.26600  0.43000  0.84000  Biso   1.000  O
  O5       1.0000 0.18700  0.39200  0.65600  Biso   1.000  O
  O6       1.0000 0.81300  0.60800  0.34400  Biso   1.000  O
  O7       1.0000 0.77800  0.40400  0.64400  Biso   1.000  O
  O8       1.0000 0.22200  0.59600  0.35600  Biso   1.000  O
  O9       1.0000 0.68500  0.17400  0.58300  Biso   1.000  O
  O10      1.0000 0.31500  0.82600  0.41700  Biso   1.000  O
  O11      1.0000 0.64200  0.80100  0.61100  Biso   1.000  O
  O12      1.0000 0.35800  0.19900  0.38900  Biso   1.000  O
  C1       1.0000 0.59500  0.53700  0.98600  Biso   1.000  C
  C2       1.0000 0.40500  0.46300  0.01400  Biso   1.000  C
  C3       1.0000 0.56900  0.98500  0.53500  Biso   1.000  C
  C4       1.0000 0.43100  0.01500  0.46500  Biso   1.000  C
  C5       1.0000 0.99000  0.45100  0.56900  Biso   1.000  C
  C6       1.0000 0.01000  0.54900  0.43100  Biso   1.000  C
  C7       1.0000 0.17800  0.91000  0.94300  Biso   1.000  C
  C8       1.0000 0.82200  0.09000  0.05700  Biso   1.000  C
  N1       1.0000 0.00000  0.97300  0.08600  Biso   1.000  N
  N2       1.0000 0.00000  0.02700  0.91400  Biso   1.000  N
