data_image0
_cell_length_a       5.3901
_cell_length_b       5.8969
_cell_length_c       5.72
_cell_angle_alpha    95.95
_cell_angle_beta     88.82
_cell_angle_gamma    96.958

_symmetry_space_group_name_H-M    "P 1"
_symmetry_int_tables_number       1

loop_
  _symmetry_equiv_pos_as_xyz
  'x, y, z'

loop_
  _atom_site_label
  _atom_site_occupancy
  _atom_site_fract_x
  _atom_site_fract_y
  _atom_site_fract_z
  _atom_site_thermal_displace_type
  _atom_site_B_iso_or_equiv
  _atom_site_type_symbol
  Cu1      1.0000 0.50000  0.50000  0.50000  Biso   1.000  Cu
  O1       1.0000 0.63900  0.64000  0.80200  Biso   1.000  O
  O2       1.0000 0.36100  0.36000  0.19800  Biso   1.000  O
  O3       1.0000 0.71050  0.58100  0.16500  Biso   1.000  O
  O4       1.0000 0.28950  0.41900  0.83500  Biso   1.000  O
  O5       1.0000 0.81190  0.60700  0.35400  Biso   1.000  O
  O6       1.0000 0.18810  0.39300  0.64600  Biso   1.000  O
  O7       1.0000 0.22000  0.60600  0.35800  Biso   1.000  O
  O8       1.0000 0.78000  0.39400  0.64200  Biso   1.000  O
  O9       1.0000 0.66600  0.18600  0.59300  Biso   1.000  O
  O10      1.0000 0.33400  0.81400  0.40700  Biso   1.000  O
  O11      1.0000 0.63300  0.81500  0.61200  Biso   1.000  O
  O12      1.0000 0.36700  0.18500  0.38800  Biso   1.000  O
  C1       1.0000 0.58900  0.53600  0.97900  Biso   1.000  C
  C2       1.0000 0.41100  0.46400  0.02100  Biso   1.000  C
  C3       1.0000 0.56600  0.99300  0.54000  Biso   1.000  C
  C4       1.0000 0.43400  0.00700  0.46000  Biso   1.000  C
  C5       1.0000 0.00500  0.54700  0.43900  Biso   1.000  C
  C6       1.0000 0.99500  0.45300  0.56100  Biso   1.000  C
  C7       1.0000 0.17000  0.90000  0.93800  Biso   1.000  C
  C8       1.0000 0.83000  0.10000  0.06200  Biso   1.000  C
  N1       1.0000 0.99800  0.98400  0.08900  Biso   1.000  N
  N2       1.0000 0.00200  0.01600  0.91100  Biso   1.000  N
