data_image0
_cell_length_a       11.2227
_cell_length_b       8.4953
_cell_length_c       8.4836
_cell_angle_alpha    90
_cell_angle_beta     94.9859
_cell_angle_gamma    90

_symmetry_space_group_name_H-M    "P 1"
_symmetry_int_tables_number       1

loop_
  _symmetry_equiv_pos_as_xyz
  'x, y, z'

loop_
  _atom_site_label
  _atom_site_occupancy
  _atom_site_fract_x
  _atom_site_fract_y
  _atom_site_fract_z
  _atom_site_thermal_displace_type
  _atom_site_B_iso_or_equiv
  _atom_site_type_symbol
  Cu1      1.0000 0.50000  0.50000  0.50000  Biso   1.000  Cu
  Cu2      1.0000 0.00000  0.50000  0.50000  Biso   1.000  Cu
  Cu3      1.0000 0.00000  0.00000  0.00000  Biso   1.000  Cu
  Cu4      1.0000 0.50000  0.00000  0.00000  Biso   1.000  Cu
  O1       1.0000 0.34840  0.61330  0.50760  Biso   1.000  O
  O2       1.0000 0.15160  0.61330  0.49240  Biso   1.000  O
  O3       1.0000 0.84840  0.11330  0.00760  Biso   1.000  O
  O4       1.0000 0.65160  0.11330  0.99240  Biso   1.000  O
  O5       1.0000 0.65160  0.38670  0.49240  Biso   1.000  O
  O6       1.0000 0.84840  0.38670  0.50760  Biso   1.000  O
  O7       1.0000 0.15160  0.88670  0.99240  Biso   1.000  O
  O8       1.0000 0.34840  0.88670  0.00760  Biso   1.000  O
  O9       1.0000 0.42330  0.22450  0.11680  Biso   1.000  O
  O10      1.0000 0.07670  0.22450  0.88320  Biso   1.000  O
  O11      1.0000 0.92330  0.72450  0.61680  Biso   1.000  O
  O12      1.0000 0.57670  0.72450  0.38320  Biso   1.000  O
  O13      1.0000 0.57670  0.77550  0.88320  Biso   1.000  O
  O14      1.0000 0.92330  0.77550  0.11680  Biso   1.000  O
  O15      1.0000 0.07670  0.27550  0.38320  Biso   1.000  O
  O16      1.0000 0.42330  0.27550  0.61680  Biso   1.000  O
  O17      1.0000 0.43760  0.41420  0.29320  Biso   1.000  O
  O18      1.0000 0.06240  0.41420  0.70680  Biso   1.000  O
  O19      1.0000 0.93760  0.91420  0.79320  Biso   1.000  O
  O20      1.0000 0.56240  0.91420  0.20680  Biso   1.000  O
  O21      1.0000 0.56240  0.58580  0.70680  Biso   1.000  O
  O22      1.0000 0.93760  0.58580  0.29320  Biso   1.000  O
  O23      1.0000 0.06240  0.08580  0.20680  Biso   1.000  O
  O24      1.0000 0.43760  0.08580  0.79320  Biso   1.000  O
  C1       1.0000 0.25000  0.54390  0.50000  Biso   1.000  C
  C2       1.0000 0.75000  0.04390  0.00000  Biso   1.000  C
  C3       1.0000 0.75000  0.45610  0.50000  Biso   1.000  C
  C4       1.0000 0.25000  0.95610  0.00000  Biso   1.000  C
  H1       1.0000 0.25000  0.43439  0.50000  Biso   1.000  H
  H2       1.0000 0.75000  0.93439  0.00000  Biso   1.000  H
  H3       1.0000 0.75000  0.56561  0.50000  Biso   1.000  H
  H4       1.0000 0.25000  0.06561  0.00000  Biso   1.000  H
  C5       1.0000 0.46770  0.28450  0.24100  Biso   1.000  C
  C6       1.0000 0.03230  0.28450  0.75900  Biso   1.000  C
  C7       1.0000 0.96770  0.78450  0.74100  Biso   1.000  C
  C8       1.0000 0.53230  0.78450  0.25900  Biso   1.000  C
  C9       1.0000 0.53230  0.71550  0.75900  Biso   1.000  C
  C10      1.0000 0.96770  0.71550  0.24100  Biso   1.000  C
  C11      1.0000 0.03230  0.21550  0.25900  Biso   1.000  C
  C12      1.0000 0.46770  0.21550  0.74100  Biso   1.000  C
  H5       1.0000 0.52780  0.22897  0.29946  Biso   1.000  H
  H6       1.0000 0.97220  0.22897  0.70054  Biso   1.000  H
  H7       1.0000 0.02780  0.72897  0.79946  Biso   1.000  H
  H8       1.0000 0.47220  0.72897  0.20054  Biso   1.000  H
  H9       1.0000 0.47220  0.77103  0.70054  Biso   1.000  H
  H10      1.0000 0.02780  0.77103  0.29946  Biso   1.000  H
  H11      1.0000 0.97220  0.27103  0.20054  Biso   1.000  H
  H12      1.0000 0.52780  0.27103  0.79946  Biso   1.000  H
  N1       1.0000 0.25000  0.44070  0.00000  Biso   1.000  N
  N2       1.0000 0.75000  0.94070  0.50000  Biso   1.000  N
  N3       1.0000 0.75000  0.55930  0.00000  Biso   1.000  N
  N4       1.0000 0.25000  0.05930  0.50000  Biso   1.000  N
  H13      1.0000 0.19600  0.37100  0.94500  Biso   1.000  H
  H14      1.0000 0.30400  0.37100  0.05500  Biso   1.000  H
  H15      1.0000 0.69600  0.87100  0.44500  Biso   1.000  H
  H16      1.0000 0.80400  0.87100  0.55500  Biso   1.000  H
  H17      1.0000 0.80400  0.62900  0.05500  Biso   1.000  H
  H18      1.0000 0.69600  0.62900  0.94500  Biso   1.000  H
  H19      1.0000 0.30400  0.12900  0.55500  Biso   1.000  H
  H20      1.0000 0.19600  0.12900  0.44500  Biso   1.000  H
  C13      1.0000 0.18870  0.53340  0.11020  Biso   1.000  C
  C14      1.0000 0.31130  0.53340  0.88980  Biso   1.000  C
  C15      1.0000 0.68870  0.03340  0.61020  Biso   1.000  C
  C16      1.0000 0.81130  0.03340  0.38980  Biso   1.000  C
  C17      1.0000 0.81130  0.46660  0.88980  Biso   1.000  C
  C18      1.0000 0.68870  0.46660  0.11020  Biso   1.000  C
  C19      1.0000 0.31130  0.96660  0.38980  Biso   1.000  C
  C20      1.0000 0.18870  0.96660  0.61020  Biso   1.000  C
  H21      1.0000 0.15000  0.46471  0.17978  Biso   1.000  H
  H22      1.0000 0.35000  0.46471  0.82022  Biso   1.000  H
  H23      1.0000 0.65000  0.96471  0.67978  Biso   1.000  H
  H24      1.0000 0.85000  0.96471  0.32022  Biso   1.000  H
  H25      1.0000 0.85000  0.53529  0.82022  Biso   1.000  H
  H26      1.0000 0.65000  0.53529  0.17978  Biso   1.000  H
  H27      1.0000 0.35000  0.03529  0.32022  Biso   1.000  H
  H28      1.0000 0.15000  0.03529  0.67978  Biso   1.000  H
  H29      1.0000 0.24534  0.59861  0.17122  Biso   1.000  H
  H30      1.0000 0.25466  0.59861  0.82878  Biso   1.000  H
  H31      1.0000 0.74534  0.09861  0.67122  Biso   1.000  H
  H32      1.0000 0.75466  0.09861  0.32878  Biso   1.000  H
  H33      1.0000 0.75466  0.40139  0.82878  Biso   1.000  H
  H34      1.0000 0.74534  0.40139  0.17122  Biso   1.000  H
  H35      1.0000 0.25466  0.90139  0.32878  Biso   1.000  H
  H36      1.0000 0.24534  0.90139  0.67122  Biso   1.000  H
  H37      1.0000 0.12987  0.59861  0.05311  Biso   1.000  H
  H38      1.0000 0.37013  0.59861  0.94689  Biso   1.000  H
  H39      1.0000 0.62987  0.09861  0.55311  Biso   1.000  H
  H40      1.0000 0.87013  0.09861  0.44689  Biso   1.000  H
  H41      1.0000 0.87013  0.40139  0.94689  Biso   1.000  H
  H42      1.0000 0.62987  0.40139  0.05311  Biso   1.000  H
  H43      1.0000 0.37013  0.90139  0.44689  Biso   1.000  H
  H44      1.0000 0.12987  0.90139  0.55311  Biso   1.000  H
