data_image0
_cell_length_a       11.3613
_cell_length_b       8.6208
_cell_length_c       8.718
_cell_angle_alpha    90
_cell_angle_beta     95.658
_cell_angle_gamma    90

_symmetry_space_group_name_H-M    "P 1"
_symmetry_int_tables_number       1

loop_
  _symmetry_equiv_pos_as_xyz
  'x, y, z'

loop_
  _atom_site_label
  _atom_site_occupancy
  _atom_site_fract_x
  _atom_site_fract_y
  _atom_site_fract_z
  _atom_site_thermal_displace_type
  _atom_site_B_iso_or_equiv
  _atom_site_type_symbol
  Cu1      1.0000 0.50000  0.50000  0.50000  Biso   1.000  Cu
  Cu2      1.0000 0.00000  0.50000  0.50000  Biso   1.000  Cu
  Cu3      1.0000 0.00000  0.00000  0.00000  Biso   1.000  Cu
  Cu4      1.0000 0.50000  0.00000  0.00000  Biso   1.000  Cu
  O1       1.0000 0.34761  0.60720  0.50620  Biso   1.000  O
  O2       1.0000 0.15239  0.60720  0.49380  Biso   1.000  O
  O3       1.0000 0.84761  0.10720  0.00620  Biso   1.000  O
  O4       1.0000 0.65239  0.10720  0.99380  Biso   1.000  O
  O5       1.0000 0.65239  0.39280  0.49380  Biso   1.000  O
  O6       1.0000 0.84761  0.39280  0.50620  Biso   1.000  O
  O7       1.0000 0.15239  0.89280  0.99380  Biso   1.000  O
  O8       1.0000 0.34761  0.89280  0.00620  Biso   1.000  O
  O9       1.0000 0.42620  0.22930  0.12120  Biso   1.000  O
  O10      1.0000 0.07380  0.22930  0.87880  Biso   1.000  O
  O11      1.0000 0.92620  0.72930  0.62120  Biso   1.000  O
  O12      1.0000 0.57380  0.72930  0.37880  Biso   1.000  O
  O13      1.0000 0.57380  0.77070  0.87880  Biso   1.000  O
  O14      1.0000 0.92620  0.77070  0.12120  Biso   1.000  O
  O15      1.0000 0.07380  0.27070  0.37880  Biso   1.000  O
  O16      1.0000 0.42620  0.27070  0.62120  Biso   1.000  O
  O17      1.0000 0.43850  0.41160  0.29900  Biso   1.000  O
  O18      1.0000 0.06150  0.41160  0.70100  Biso   1.000  O
  O19      1.0000 0.93850  0.91160  0.79900  Biso   1.000  O
  O20      1.0000 0.56150  0.91160  0.20100  Biso   1.000  O
  O21      1.0000 0.56150  0.58840  0.70100  Biso   1.000  O
  O22      1.0000 0.93850  0.58840  0.29900  Biso   1.000  O
  O23      1.0000 0.06150  0.08840  0.20100  Biso   1.000  O
  O24      1.0000 0.43850  0.08840  0.79900  Biso   1.000  O
  C1       1.0000 0.25000  0.53850  0.50000  Biso   1.000  C
  C2       1.0000 0.75000  0.03850  0.00000  Biso   1.000  C
  C3       1.0000 0.75000  0.46150  0.50000  Biso   1.000  C
  C4       1.0000 0.25000  0.96150  0.00000  Biso   1.000  C
  H1       1.0000 0.25000  0.43066  0.50000  Biso   1.000  H
  H2       1.0000 0.75000  0.93066  0.00000  Biso   1.000  H
  H3       1.0000 0.75000  0.56934  0.50000  Biso   1.000  H
  H4       1.0000 0.25000  0.06934  0.00000  Biso   1.000  H
  C5       1.0000 0.46990  0.28670  0.24330  Biso   1.000  C
  C6       1.0000 0.03010  0.28670  0.75670  Biso   1.000  C
  C7       1.0000 0.96990  0.78670  0.74330  Biso   1.000  C
  C8       1.0000 0.53010  0.78670  0.25670  Biso   1.000  C
  C9       1.0000 0.53010  0.71330  0.75670  Biso   1.000  C
  C10      1.0000 0.96990  0.71330  0.24330  Biso   1.000  C
  C11      1.0000 0.03010  0.21330  0.25670  Biso   1.000  C
  C12      1.0000 0.46990  0.21330  0.74330  Biso   1.000  C
  H5       1.0000 0.53103  0.23251  0.29826  Biso   1.000  H
  H6       1.0000 0.96897  0.23251  0.70174  Biso   1.000  H
  H7       1.0000 0.03103  0.73251  0.79826  Biso   1.000  H
  H8       1.0000 0.46897  0.73251  0.20174  Biso   1.000  H
  H9       1.0000 0.46897  0.76749  0.70174  Biso   1.000  H
  H10      1.0000 0.03103  0.76749  0.29826  Biso   1.000  H
  H11      1.0000 0.96897  0.26749  0.20174  Biso   1.000  H
  H12      1.0000 0.53103  0.26749  0.79826  Biso   1.000  H
  N1       1.0000 0.25000  0.43820  0.00000  Biso   1.000  N
  N2       1.0000 0.75000  0.93820  0.50000  Biso   1.000  N
  N3       1.0000 0.75000  0.56180  0.00000  Biso   1.000  N
  N4       1.0000 0.25000  0.06180  0.50000  Biso   1.000  N
  H13      1.0000 0.19000  0.37300  0.95700  Biso   1.000  H
  H14      1.0000 0.31000  0.37300  0.04300  Biso   1.000  H
  H15      1.0000 0.69000  0.87300  0.45700  Biso   1.000  H
  H16      1.0000 0.81000  0.87300  0.54300  Biso   1.000  H
  H17      1.0000 0.81000  0.62700  0.04300  Biso   1.000  H
  H18      1.0000 0.69000  0.62700  0.95700  Biso   1.000  H
  H19      1.0000 0.31000  0.12700  0.54300  Biso   1.000  H
  H20      1.0000 0.19000  0.12700  0.45700  Biso   1.000  H
  C13      1.0000 0.19130  0.53110  0.10870  Biso   1.000  C
  C14      1.0000 0.30870  0.53110  0.89130  Biso   1.000  C
  C15      1.0000 0.69130  0.03110  0.60870  Biso   1.000  C
  C16      1.0000 0.80870  0.03110  0.39130  Biso   1.000  C
  C17      1.0000 0.80870  0.46890  0.89130  Biso   1.000  C
  C18      1.0000 0.69130  0.46890  0.10870  Biso   1.000  C
  C19      1.0000 0.30870  0.96890  0.39130  Biso   1.000  C
  C20      1.0000 0.19130  0.96890  0.60870  Biso   1.000  C
  H21      1.0000 0.15412  0.46395  0.17739  Biso   1.000  H
  H22      1.0000 0.34588  0.46395  0.82261  Biso   1.000  H
  H23      1.0000 0.65412  0.96395  0.67739  Biso   1.000  H
  H24      1.0000 0.84588  0.96395  0.32261  Biso   1.000  H
  H25      1.0000 0.84588  0.53605  0.82261  Biso   1.000  H
  H26      1.0000 0.65412  0.53605  0.17739  Biso   1.000  H
  H27      1.0000 0.34588  0.03605  0.32261  Biso   1.000  H
  H28      1.0000 0.15412  0.03605  0.67739  Biso   1.000  H
  H29      1.0000 0.24840  0.59533  0.16698  Biso   1.000  H
  H30      1.0000 0.25160  0.59533  0.83302  Biso   1.000  H
  H31      1.0000 0.74840  0.09533  0.66698  Biso   1.000  H
  H32      1.0000 0.75160  0.09533  0.33302  Biso   1.000  H
  H33      1.0000 0.75160  0.40467  0.83302  Biso   1.000  H
  H34      1.0000 0.74840  0.40467  0.16698  Biso   1.000  H
  H35      1.0000 0.25160  0.90467  0.33302  Biso   1.000  H
  H36      1.0000 0.24840  0.90467  0.66698  Biso   1.000  H
  H37      1.0000 0.13243  0.59533  0.05350  Biso   1.000  H
  H38      1.0000 0.36757  0.59533  0.94650  Biso   1.000  H
  H39      1.0000 0.63243  0.09533  0.55350  Biso   1.000  H
  H40      1.0000 0.86757  0.09533  0.44650  Biso   1.000  H
  H41      1.0000 0.86757  0.40467  0.94650  Biso   1.000  H
  H42      1.0000 0.63243  0.40467  0.05350  Biso   1.000  H
  H43      1.0000 0.36757  0.90467  0.44650  Biso   1.000  H
  H44      1.0000 0.13243  0.90467  0.55350  Biso   1.000  H
