data_image0
_cell_length_a       11.3229
_cell_length_b       8.5761
_cell_length_c       8.6487
_cell_angle_alpha    90
_cell_angle_beta     95.432
_cell_angle_gamma    90

_symmetry_space_group_name_H-M    "P 1"
_symmetry_int_tables_number       1

loop_
  _symmetry_equiv_pos_as_xyz
  'x, y, z'

loop_
  _atom_site_label
  _atom_site_occupancy
  _atom_site_fract_x
  _atom_site_fract_y
  _atom_site_fract_z
  _atom_site_thermal_displace_type
  _atom_site_B_iso_or_equiv
  _atom_site_type_symbol
  Cu1      1.0000 0.50000  0.50000  0.50000  Biso   1.000  Cu
  Cu2      1.0000 0.00000  0.50000  0.50000  Biso   1.000  Cu
  Cu3      1.0000 0.00000  0.00000  0.00000  Biso   1.000  Cu
  Cu4      1.0000 0.50000  0.00000  0.00000  Biso   1.000  Cu
  O1       1.0000 0.34783  0.60900  0.50700  Biso   1.000  O
  O2       1.0000 0.15217  0.60900  0.49300  Biso   1.000  O
  O3       1.0000 0.84783  0.10900  0.00700  Biso   1.000  O
  O4       1.0000 0.65217  0.10900  0.99300  Biso   1.000  O
  O5       1.0000 0.65217  0.39100  0.49300  Biso   1.000  O
  O6       1.0000 0.84783  0.39100  0.50700  Biso   1.000  O
  O7       1.0000 0.15217  0.89100  0.99300  Biso   1.000  O
  O8       1.0000 0.34783  0.89100  0.00700  Biso   1.000  O
  O9       1.0000 0.42560  0.22740  0.11980  Biso   1.000  O
  O10      1.0000 0.07440  0.22740  0.88020  Biso   1.000  O
  O11      1.0000 0.92560  0.72740  0.61980  Biso   1.000  O
  O12      1.0000 0.57440  0.72740  0.38020  Biso   1.000  O
  O13      1.0000 0.57440  0.77260  0.88020  Biso   1.000  O
  O14      1.0000 0.92560  0.77260  0.11980  Biso   1.000  O
  O15      1.0000 0.07440  0.27260  0.38020  Biso   1.000  O
  O16      1.0000 0.42560  0.27260  0.61980  Biso   1.000  O
  O17      1.0000 0.43800  0.41240  0.29730  Biso   1.000  O
  O18      1.0000 0.06200  0.41240  0.70270  Biso   1.000  O
  O19      1.0000 0.93800  0.91240  0.79730  Biso   1.000  O
  O20      1.0000 0.56200  0.91240  0.20270  Biso   1.000  O
  O21      1.0000 0.56200  0.58760  0.70270  Biso   1.000  O
  O22      1.0000 0.93800  0.58760  0.29730  Biso   1.000  O
  O23      1.0000 0.06200  0.08760  0.20270  Biso   1.000  O
  O24      1.0000 0.43800  0.08760  0.79730  Biso   1.000  O
  C1       1.0000 0.25000  0.54040  0.50000  Biso   1.000  C
  C2       1.0000 0.75000  0.04040  0.00000  Biso   1.000  C
  C3       1.0000 0.75000  0.45960  0.50000  Biso   1.000  C
  C4       1.0000 0.25000  0.95960  0.00000  Biso   1.000  C
  H1       1.0000 0.25000  0.43201  0.50000  Biso   1.000  H
  H2       1.0000 0.75000  0.93201  0.00000  Biso   1.000  H
  H3       1.0000 0.75000  0.56799  0.50000  Biso   1.000  H
  H4       1.0000 0.25000  0.06799  0.00000  Biso   1.000  H
  C5       1.0000 0.46970  0.28540  0.24330  Biso   1.000  C
  C6       1.0000 0.03030  0.28540  0.75670  Biso   1.000  C
  C7       1.0000 0.96970  0.78540  0.74330  Biso   1.000  C
  C8       1.0000 0.53030  0.78540  0.25670  Biso   1.000  C
  C9       1.0000 0.53030  0.71460  0.75670  Biso   1.000  C
  C10      1.0000 0.96970  0.71460  0.24330  Biso   1.000  C
  C11      1.0000 0.03030  0.21460  0.25670  Biso   1.000  C
  C12      1.0000 0.46970  0.21460  0.74330  Biso   1.000  C
  H5       1.0000 0.53041  0.23082  0.29962  Biso   1.000  H
  H6       1.0000 0.96959  0.23082  0.70038  Biso   1.000  H
  H7       1.0000 0.03041  0.73082  0.79962  Biso   1.000  H
  H8       1.0000 0.46959  0.73082  0.20038  Biso   1.000  H
  H9       1.0000 0.46959  0.76918  0.70038  Biso   1.000  H
  H10      1.0000 0.03041  0.76918  0.29962  Biso   1.000  H
  H11      1.0000 0.96959  0.26918  0.20038  Biso   1.000  H
  H12      1.0000 0.53041  0.26918  0.79962  Biso   1.000  H
  N1       1.0000 0.25000  0.43830  0.00000  Biso   1.000  N
  N2       1.0000 0.75000  0.93830  0.50000  Biso   1.000  N
  N3       1.0000 0.75000  0.56170  0.00000  Biso   1.000  N
  N4       1.0000 0.25000  0.06170  0.50000  Biso   1.000  N
  H13      1.0000 0.19300  0.38400  0.95600  Biso   1.000  H
  H14      1.0000 0.30700  0.38400  0.04400  Biso   1.000  H
  H15      1.0000 0.69300  0.88400  0.45600  Biso   1.000  H
  H16      1.0000 0.80700  0.88400  0.54400  Biso   1.000  H
  H17      1.0000 0.80700  0.61600  0.04400  Biso   1.000  H
  H18      1.0000 0.69300  0.61600  0.95600  Biso   1.000  H
  H19      1.0000 0.30700  0.11600  0.54400  Biso   1.000  H
  H20      1.0000 0.19300  0.11600  0.45600  Biso   1.000  H
  C13      1.0000 0.19000  0.53120  0.10980  Biso   1.000  C
  C14      1.0000 0.31000  0.53120  0.89020  Biso   1.000  C
  C15      1.0000 0.69000  0.03120  0.60980  Biso   1.000  C
  C16      1.0000 0.81000  0.03120  0.39020  Biso   1.000  C
  C17      1.0000 0.81000  0.46880  0.89020  Biso   1.000  C
  C18      1.0000 0.69000  0.46880  0.10980  Biso   1.000  C
  C19      1.0000 0.31000  0.96880  0.39020  Biso   1.000  C
  C20      1.0000 0.19000  0.96880  0.60980  Biso   1.000  C
  H21      1.0000 0.15245  0.46325  0.17854  Biso   1.000  H
  H22      1.0000 0.34755  0.46325  0.82146  Biso   1.000  H
  H23      1.0000 0.65245  0.96325  0.67854  Biso   1.000  H
  H24      1.0000 0.84755  0.96325  0.32146  Biso   1.000  H
  H25      1.0000 0.84755  0.53675  0.82146  Biso   1.000  H
  H26      1.0000 0.65245  0.53675  0.17854  Biso   1.000  H
  H27      1.0000 0.34755  0.03675  0.32146  Biso   1.000  H
  H28      1.0000 0.15245  0.03675  0.67854  Biso   1.000  H
  H29      1.0000 0.24688  0.59575  0.16906  Biso   1.000  H
  H30      1.0000 0.25312  0.59575  0.83094  Biso   1.000  H
  H31      1.0000 0.74688  0.09575  0.66906  Biso   1.000  H
  H32      1.0000 0.75312  0.09575  0.33094  Biso   1.000  H
  H33      1.0000 0.75312  0.40425  0.83094  Biso   1.000  H
  H34      1.0000 0.74688  0.40425  0.16906  Biso   1.000  H
  H35      1.0000 0.25312  0.90425  0.33094  Biso   1.000  H
  H36      1.0000 0.24688  0.90425  0.66906  Biso   1.000  H
  H37      1.0000 0.13117  0.59575  0.05415  Biso   1.000  H
  H38      1.0000 0.36883  0.59575  0.94585  Biso   1.000  H
  H39      1.0000 0.63117  0.09575  0.55415  Biso   1.000  H
  H40      1.0000 0.86883  0.09575  0.44585  Biso   1.000  H
  H41      1.0000 0.86883  0.40425  0.94585  Biso   1.000  H
  H42      1.0000 0.63117  0.40425  0.05415  Biso   1.000  H
  H43      1.0000 0.36883  0.90425  0.44585  Biso   1.000  H
  H44      1.0000 0.13117  0.90425  0.55415  Biso   1.000  H
