data_image0
_cell_length_a       8.1929
_cell_length_b       8.1929
_cell_length_c       22.2399
_cell_angle_alpha    90
_cell_angle_beta     90
_cell_angle_gamma    120

_symmetry_space_group_name_H-M    "P 1"
_symmetry_int_tables_number       1

loop_
  _symmetry_equiv_pos_as_xyz
  'x, y, z'

loop_
  _atom_site_label
  _atom_site_occupancy
  _atom_site_fract_x
  _atom_site_fract_y
  _atom_site_fract_z
  _atom_site_thermal_displace_type
  _atom_site_B_iso_or_equiv
  _atom_site_type_symbol
  N1       1.0000 0.00000  0.91580  0.25000  Biso   1.000  N
  N2       1.0000 0.08420  0.08420  0.25000  Biso   1.000  N
  N3       1.0000 0.91580  0.00000  0.25000  Biso   1.000  N
  N4       1.0000 0.66667  0.24913  0.58333  Biso   1.000  N
  N5       1.0000 0.75087  0.41753  0.58333  Biso   1.000  N
  N6       1.0000 0.58247  0.33333  0.58333  Biso   1.000  N
  N7       1.0000 0.33333  0.58247  0.91667  Biso   1.000  N
  N8       1.0000 0.41753  0.75087  0.91667  Biso   1.000  N
  N9       1.0000 0.24913  0.66667  0.91667  Biso   1.000  N
  N10      1.0000 0.00000  0.08420  0.75000  Biso   1.000  N
  N11      1.0000 0.91580  0.91580  0.75000  Biso   1.000  N
  N12      1.0000 0.08420  0.00000  0.75000  Biso   1.000  N
  N13      1.0000 0.66667  0.41753  0.08333  Biso   1.000  N
  N14      1.0000 0.58247  0.24913  0.08333  Biso   1.000  N
  N15      1.0000 0.75087  0.33333  0.08333  Biso   1.000  N
  N16      1.0000 0.33333  0.75087  0.41667  Biso   1.000  N
  N17      1.0000 0.24913  0.58247  0.41667  Biso   1.000  N
  N18      1.0000 0.41753  0.66667  0.41667  Biso   1.000  N
  H1       1.0000 0.10100  0.90130  0.25000  Biso   1.000  H
  H2       1.0000 0.09870  0.19970  0.25000  Biso   1.000  H
  H3       1.0000 0.80030  0.89900  0.25000  Biso   1.000  H
  H4       1.0000 0.19970  0.09870  0.25000  Biso   1.000  H
  H5       1.0000 0.89900  0.80030  0.25000  Biso   1.000  H
  H6       1.0000 0.90130  0.10100  0.25000  Biso   1.000  H
  H7       1.0000 0.76767  0.23463  0.58333  Biso   1.000  H
  H8       1.0000 0.76537  0.53303  0.58333  Biso   1.000  H
  H9       1.0000 0.46697  0.23233  0.58333  Biso   1.000  H
  H10      1.0000 0.86637  0.43203  0.58333  Biso   1.000  H
  H11      1.0000 0.56567  0.13363  0.58333  Biso   1.000  H
  H12      1.0000 0.56797  0.43433  0.58333  Biso   1.000  H
  H13      1.0000 0.43433  0.56797  0.91667  Biso   1.000  H
  H14      1.0000 0.43203  0.86637  0.91667  Biso   1.000  H
  H15      1.0000 0.13363  0.56567  0.91667  Biso   1.000  H
  H16      1.0000 0.53303  0.76537  0.91667  Biso   1.000  H
  H17      1.0000 0.23233  0.46697  0.91667  Biso   1.000  H
  H18      1.0000 0.23463  0.76767  0.91667  Biso   1.000  H
  H19      1.0000 0.89900  0.09870  0.75000  Biso   1.000  H
  H20      1.0000 0.90130  0.80030  0.75000  Biso   1.000  H
  H21      1.0000 0.19970  0.10100  0.75000  Biso   1.000  H
  H22      1.0000 0.80030  0.90130  0.75000  Biso   1.000  H
  H23      1.0000 0.10100  0.19970  0.75000  Biso   1.000  H
  H24      1.0000 0.09870  0.89900  0.75000  Biso   1.000  H
  H25      1.0000 0.56567  0.43203  0.08333  Biso   1.000  H
  H26      1.0000 0.56797  0.13363  0.08333  Biso   1.000  H
  H27      1.0000 0.86637  0.43433  0.08333  Biso   1.000  H
  H28      1.0000 0.46697  0.23463  0.08333  Biso   1.000  H
  H29      1.0000 0.76767  0.53303  0.08333  Biso   1.000  H
  H30      1.0000 0.76537  0.23233  0.08333  Biso   1.000  H
  H31      1.0000 0.23233  0.76537  0.41667  Biso   1.000  H
  H32      1.0000 0.23463  0.46697  0.41667  Biso   1.000  H
  H33      1.0000 0.53303  0.76767  0.41667  Biso   1.000  H
  H34      1.0000 0.13363  0.56797  0.41667  Biso   1.000  H
  H35      1.0000 0.43433  0.86637  0.41667  Biso   1.000  H
  H36      1.0000 0.43203  0.56567  0.41667  Biso   1.000  H
  H37      1.0000 0.89720  0.79940  0.25000  Biso   1.000  H
  H38      1.0000 0.90220  0.10280  0.25000  Biso   1.000  H
  H39      1.0000 0.10280  0.90220  0.25000  Biso   1.000  H
  H40      1.0000 0.79940  0.89720  0.25000  Biso   1.000  H
  H41      1.0000 0.56387  0.13273  0.58333  Biso   1.000  H
  H42      1.0000 0.56887  0.43613  0.58333  Biso   1.000  H
  H43      1.0000 0.76947  0.23553  0.58333  Biso   1.000  H
  H44      1.0000 0.46607  0.23053  0.58333  Biso   1.000  H
  H45      1.0000 0.23053  0.46607  0.91667  Biso   1.000  H
  H46      1.0000 0.23553  0.76947  0.91667  Biso   1.000  H
  H47      1.0000 0.43613  0.56887  0.91667  Biso   1.000  H
  H48      1.0000 0.13273  0.56387  0.91667  Biso   1.000  H
  H49      1.0000 0.10280  0.20060  0.75000  Biso   1.000  H
  H50      1.0000 0.09780  0.89720  0.75000  Biso   1.000  H
  H51      1.0000 0.89720  0.09780  0.75000  Biso   1.000  H
  H52      1.0000 0.20060  0.10280  0.75000  Biso   1.000  H
  H53      1.0000 0.76947  0.53393  0.08333  Biso   1.000  H
  H54      1.0000 0.76447  0.23053  0.08333  Biso   1.000  H
  H55      1.0000 0.56387  0.43113  0.08333  Biso   1.000  H
  H56      1.0000 0.86727  0.43613  0.08333  Biso   1.000  H
  H57      1.0000 0.43613  0.86727  0.41667  Biso   1.000  H
  H58      1.0000 0.43113  0.56387  0.41667  Biso   1.000  H
  H59      1.0000 0.23053  0.76447  0.41667  Biso   1.000  H
  H60      1.0000 0.53393  0.76947  0.41667  Biso   1.000  H
  C1       1.0000 0.00000  0.00000  0.30410  Biso   1.000  C
  C2       1.0000 0.00000  0.00000  0.19590  Biso   1.000  C
  C3       1.0000 0.66667  0.33333  0.63743  Biso   1.000  C
  C4       1.0000 0.66667  0.33333  0.52923  Biso   1.000  C
  C5       1.0000 0.33333  0.66667  0.97077  Biso   1.000  C
  C6       1.0000 0.33333  0.66667  0.86257  Biso   1.000  C
  C7       1.0000 0.00000  0.00000  0.69590  Biso   1.000  C
  C8       1.0000 0.00000  0.00000  0.80410  Biso   1.000  C
  C9       1.0000 0.66667  0.33333  0.02923  Biso   1.000  C
  C10      1.0000 0.66667  0.33333  0.13743  Biso   1.000  C
  C11      1.0000 0.33333  0.66667  0.36257  Biso   1.000  C
  C12      1.0000 0.33333  0.66667  0.47077  Biso   1.000  C
  H61      1.0000 0.07670  0.07670  0.33670  Biso   1.000  H
  H62      1.0000 0.92330  0.00000  0.33670  Biso   1.000  H
  H63      1.0000 0.00000  0.92330  0.33670  Biso   1.000  H
  H64      1.0000 0.00000  0.92330  0.16330  Biso   1.000  H
  H65      1.0000 0.92330  0.00000  0.16330  Biso   1.000  H
  H66      1.0000 0.07670  0.07670  0.16330  Biso   1.000  H
  H67      1.0000 0.74337  0.41003  0.67003  Biso   1.000  H
  H68      1.0000 0.58997  0.33333  0.67003  Biso   1.000  H
  H69      1.0000 0.66667  0.25663  0.67003  Biso   1.000  H
  H70      1.0000 0.66667  0.25663  0.49663  Biso   1.000  H
  H71      1.0000 0.58997  0.33333  0.49663  Biso   1.000  H
  H72      1.0000 0.74337  0.41003  0.49663  Biso   1.000  H
  H73      1.0000 0.41003  0.74337  0.00337  Biso   1.000  H
  H74      1.0000 0.25663  0.66667  0.00337  Biso   1.000  H
  H75      1.0000 0.33333  0.58997  0.00337  Biso   1.000  H
  H76      1.0000 0.33333  0.58997  0.82997  Biso   1.000  H
  H77      1.0000 0.25663  0.66667  0.82997  Biso   1.000  H
  H78      1.0000 0.41003  0.74337  0.82997  Biso   1.000  H
  H79      1.0000 0.92330  0.92330  0.66330  Biso   1.000  H
  H80      1.0000 0.07670  0.00000  0.66330  Biso   1.000  H
  H81      1.0000 0.00000  0.07670  0.66330  Biso   1.000  H
  H82      1.0000 0.00000  0.07670  0.83670  Biso   1.000  H
  H83      1.0000 0.07670  0.00000  0.83670  Biso   1.000  H
  H84      1.0000 0.92330  0.92330  0.83670  Biso   1.000  H
  H85      1.0000 0.58997  0.25663  0.99663  Biso   1.000  H
  H86      1.0000 0.74337  0.33333  0.99663  Biso   1.000  H
  H87      1.0000 0.66667  0.41003  0.99663  Biso   1.000  H
  H88      1.0000 0.66667  0.41003  0.17003  Biso   1.000  H
  H89      1.0000 0.74337  0.33333  0.17003  Biso   1.000  H
  H90      1.0000 0.58997  0.25663  0.17003  Biso   1.000  H
  H91      1.0000 0.25663  0.58997  0.32997  Biso   1.000  H
  H92      1.0000 0.41003  0.66667  0.32997  Biso   1.000  H
  H93      1.0000 0.33333  0.74337  0.32997  Biso   1.000  H
  H94      1.0000 0.33333  0.74337  0.50337  Biso   1.000  H
  H95      1.0000 0.41003  0.66667  0.50337  Biso   1.000  H
  H96      1.0000 0.25663  0.58997  0.50337  Biso   1.000  H
  H97      1.0000 0.01210  0.88950  0.19350  Biso   1.000  H
  H98      1.0000 0.11050  0.12260  0.19350  Biso   1.000  H
  H99      1.0000 0.87740  0.98790  0.19350  Biso   1.000  H
  H100     1.0000 0.12260  0.11050  0.30650  Biso   1.000  H
  H101     1.0000 0.98790  0.87740  0.30650  Biso   1.000  H
  H102     1.0000 0.88950  0.01210  0.30650  Biso   1.000  H
  H103     1.0000 0.67877  0.22283  0.52683  Biso   1.000  H
  H104     1.0000 0.77717  0.45593  0.52683  Biso   1.000  H
  H105     1.0000 0.54407  0.32123  0.52683  Biso   1.000  H
  H106     1.0000 0.78927  0.44383  0.63983  Biso   1.000  H
  H107     1.0000 0.65457  0.21073  0.63983  Biso   1.000  H
  H108     1.0000 0.55617  0.34543  0.63983  Biso   1.000  H
  H109     1.0000 0.34543  0.55617  0.86017  Biso   1.000  H
  H110     1.0000 0.44383  0.78927  0.86017  Biso   1.000  H
  H111     1.0000 0.21073  0.65457  0.86017  Biso   1.000  H
  H112     1.0000 0.45593  0.77717  0.97317  Biso   1.000  H
  H113     1.0000 0.32123  0.54407  0.97317  Biso   1.000  H
  H114     1.0000 0.22283  0.67877  0.97317  Biso   1.000  H
  H115     1.0000 0.98790  0.11050  0.80650  Biso   1.000  H
  H116     1.0000 0.88950  0.87740  0.80650  Biso   1.000  H
  H117     1.0000 0.12260  0.01210  0.80650  Biso   1.000  H
  H118     1.0000 0.87740  0.88950  0.69350  Biso   1.000  H
  H119     1.0000 0.01210  0.12260  0.69350  Biso   1.000  H
  H120     1.0000 0.11050  0.98790  0.69350  Biso   1.000  H
  H121     1.0000 0.65457  0.44383  0.13983  Biso   1.000  H
  H122     1.0000 0.55617  0.21073  0.13983  Biso   1.000  H
  H123     1.0000 0.78927  0.34543  0.13983  Biso   1.000  H
  H124     1.0000 0.54407  0.22283  0.02683  Biso   1.000  H
  H125     1.0000 0.67877  0.45593  0.02683  Biso   1.000  H
  H126     1.0000 0.77717  0.32123  0.02683  Biso   1.000  H
  H127     1.0000 0.32123  0.77717  0.47317  Biso   1.000  H
  H128     1.0000 0.22283  0.54407  0.47317  Biso   1.000  H
  H129     1.0000 0.45593  0.67877  0.47317  Biso   1.000  H
  H130     1.0000 0.21073  0.55617  0.36017  Biso   1.000  H
  H131     1.0000 0.34543  0.78927  0.36017  Biso   1.000  H
  H132     1.0000 0.44383  0.65457  0.36017  Biso   1.000  H
  H133     1.0000 0.01210  0.88950  0.30650  Biso   1.000  H
  H134     1.0000 0.11050  0.12260  0.30650  Biso   1.000  H
  H135     1.0000 0.87740  0.98790  0.30650  Biso   1.000  H
  H136     1.0000 0.12260  0.11050  0.19350  Biso   1.000  H
  H137     1.0000 0.98790  0.87740  0.19350  Biso   1.000  H
  H138     1.0000 0.88950  0.01210  0.19350  Biso   1.000  H
  H139     1.0000 0.67877  0.22283  0.63983  Biso   1.000  H
  H140     1.0000 0.77717  0.45593  0.63983  Biso   1.000  H
  H141     1.0000 0.54407  0.32123  0.63983  Biso   1.000  H
  H142     1.0000 0.78927  0.44383  0.52683  Biso   1.000  H
  H143     1.0000 0.65457  0.21073  0.52683  Biso   1.000  H
  H144     1.0000 0.55617  0.34543  0.52683  Biso   1.000  H
  H145     1.0000 0.34543  0.55617  0.97317  Biso   1.000  H
  H146     1.0000 0.44383  0.78927  0.97317  Biso   1.000  H
  H147     1.0000 0.21073  0.65457  0.97317  Biso   1.000  H
  H148     1.0000 0.45593  0.77717  0.86017  Biso   1.000  H
  H149     1.0000 0.32123  0.54407  0.86017  Biso   1.000  H
  H150     1.0000 0.22283  0.67877  0.86017  Biso   1.000  H
  H151     1.0000 0.98790  0.11050  0.69350  Biso   1.000  H
  H152     1.0000 0.88950  0.87740  0.69350  Biso   1.000  H
  H153     1.0000 0.12260  0.01210  0.69350  Biso   1.000  H
  H154     1.0000 0.87740  0.88950  0.80650  Biso   1.000  H
  H155     1.0000 0.01210  0.12260  0.80650  Biso   1.000  H
  H156     1.0000 0.11050  0.98790  0.80650  Biso   1.000  H
  H157     1.0000 0.65457  0.44383  0.02683  Biso   1.000  H
  H158     1.0000 0.55617  0.21073  0.02683  Biso   1.000  H
  H159     1.0000 0.78927  0.34543  0.02683  Biso   1.000  H
  H160     1.0000 0.54407  0.22283  0.13983  Biso   1.000  H
  H161     1.0000 0.67877  0.45593  0.13983  Biso   1.000  H
  H162     1.0000 0.77717  0.32123  0.13983  Biso   1.000  H
  H163     1.0000 0.32123  0.77717  0.36017  Biso   1.000  H
  H164     1.0000 0.22283  0.54407  0.36017  Biso   1.000  H
  H165     1.0000 0.45593  0.67877  0.36017  Biso   1.000  H
  H166     1.0000 0.21073  0.55617  0.47317  Biso   1.000  H
  H167     1.0000 0.34543  0.78927  0.47317  Biso   1.000  H
  H168     1.0000 0.44383  0.65457  0.47317  Biso   1.000  H
  Cu1      1.0000 0.66670  0.33330  0.33330  Biso   1.000  Cu
  Cu2      1.0000 0.33340  0.66670  0.16670  Biso   1.000  Cu
  Cu3      1.0000 0.33337  0.66663  0.66663  Biso   1.000  Cu
  Cu4      1.0000 0.00007  0.00003  0.50003  Biso   1.000  Cu
  Cu5      1.0000 0.00003  0.99997  0.99997  Biso   1.000  Cu
  Cu6      1.0000 0.66673  0.33337  0.83337  Biso   1.000  Cu
  O1       1.0000 0.45800  0.34120  0.38687  Biso   1.000  O
  O2       1.0000 0.65880  0.11680  0.38687  Biso   1.000  O
  O3       1.0000 0.88320  0.54200  0.38687  Biso   1.000  O
  O4       1.0000 0.11680  0.65880  0.11313  Biso   1.000  O
  O5       1.0000 0.54200  0.88320  0.11313  Biso   1.000  O
  O6       1.0000 0.34120  0.45800  0.11313  Biso   1.000  O
  O7       1.0000 0.12467  0.67453  0.72020  Biso   1.000  O
  O8       1.0000 0.32547  0.45013  0.72020  Biso   1.000  O
  O9       1.0000 0.54987  0.87533  0.72020  Biso   1.000  O
  O10      1.0000 0.78347  0.99213  0.44646  Biso   1.000  O
  O11      1.0000 0.20867  0.21653  0.44646  Biso   1.000  O
  O12      1.0000 0.00787  0.79133  0.44646  Biso   1.000  O
  O13      1.0000 0.79133  0.00787  0.05354  Biso   1.000  O
  O14      1.0000 0.99213  0.78347  0.05354  Biso   1.000  O
  O15      1.0000 0.21653  0.20867  0.05354  Biso   1.000  O
  O16      1.0000 0.45013  0.32547  0.77980  Biso   1.000  O
  O17      1.0000 0.87533  0.54987  0.77980  Biso   1.000  O
  O18      1.0000 0.67453  0.12467  0.77980  Biso   1.000  O
  O19      1.0000 0.54200  0.65880  0.61313  Biso   1.000  O
  O20      1.0000 0.34120  0.88320  0.61313  Biso   1.000  O
  O21      1.0000 0.11680  0.45800  0.61313  Biso   1.000  O
  O22      1.0000 0.88320  0.34120  0.88687  Biso   1.000  O
  O23      1.0000 0.45800  0.11680  0.88687  Biso   1.000  O
  O24      1.0000 0.65880  0.54200  0.88687  Biso   1.000  O
  O25      1.0000 0.20867  0.99213  0.94646  Biso   1.000  O
  O26      1.0000 0.00787  0.21653  0.94646  Biso   1.000  O
  O27      1.0000 0.78347  0.79133  0.94646  Biso   1.000  O
  O28      1.0000 0.54987  0.67453  0.22020  Biso   1.000  O
  O29      1.0000 0.12467  0.45013  0.22020  Biso   1.000  O
  O30      1.0000 0.32547  0.87533  0.22020  Biso   1.000  O
  O31      1.0000 0.87533  0.32547  0.27980  Biso   1.000  O
  O32      1.0000 0.67453  0.54987  0.27980  Biso   1.000  O
  O33      1.0000 0.45013  0.12467  0.27980  Biso   1.000  O
  O34      1.0000 0.21653  0.00787  0.55354  Biso   1.000  O
  O35      1.0000 0.79133  0.78347  0.55354  Biso   1.000  O
  O36      1.0000 0.99213  0.20867  0.55354  Biso   1.000  O
  C13      1.0000 0.33330  0.20920  0.41670  Biso   1.000  C
  C14      1.0000 0.79080  0.12410  0.41670  Biso   1.000  C
  C15      1.0000 0.87590  0.66670  0.41670  Biso   1.000  C
  C16      1.0000 0.12410  0.79080  0.08330  Biso   1.000  C
  C17      1.0000 0.66670  0.87590  0.08330  Biso   1.000  C
  C18      1.0000 0.20920  0.33330  0.08330  Biso   1.000  C
  C19      1.0000 0.99997  0.54253  0.75003  Biso   1.000  C
  C20      1.0000 0.45747  0.45743  0.75003  Biso   1.000  C
  C21      1.0000 0.54257  0.00003  0.75003  Biso   1.000  C
  C22      1.0000 0.66670  0.79080  0.58330  Biso   1.000  C
  C23      1.0000 0.20920  0.87590  0.58330  Biso   1.000  C
  C24      1.0000 0.12410  0.33330  0.58330  Biso   1.000  C
  C25      1.0000 0.87590  0.20920  0.91670  Biso   1.000  C
  C26      1.0000 0.33330  0.12410  0.91670  Biso   1.000  C
  C27      1.0000 0.79080  0.66670  0.91670  Biso   1.000  C
  C28      1.0000 0.54257  0.54253  0.25003  Biso   1.000  C
  C29      1.0000 0.99997  0.45743  0.25003  Biso   1.000  C
  C30      1.0000 0.45747  0.00003  0.25003  Biso   1.000  C
  H169     1.0000 0.33330  0.09570  0.41670  Biso   1.000  H
  H170     1.0000 0.90430  0.23760  0.41670  Biso   1.000  H
  H171     1.0000 0.76240  0.66670  0.41670  Biso   1.000  H
  H172     1.0000 0.23760  0.90430  0.08330  Biso   1.000  H
  H173     1.0000 0.66670  0.76240  0.08330  Biso   1.000  H
  H174     1.0000 0.09570  0.33330  0.08330  Biso   1.000  H
  H175     1.0000 0.99997  0.42903  0.75003  Biso   1.000  H
  H176     1.0000 0.57097  0.57093  0.75003  Biso   1.000  H
  H177     1.0000 0.42907  0.00003  0.75003  Biso   1.000  H
  H178     1.0000 0.66670  0.90430  0.58330  Biso   1.000  H
  H179     1.0000 0.09570  0.76240  0.58330  Biso   1.000  H
  H180     1.0000 0.23760  0.33330  0.58330  Biso   1.000  H
  H181     1.0000 0.76240  0.09570  0.91670  Biso   1.000  H
  H182     1.0000 0.33330  0.23760  0.91670  Biso   1.000  H
  H183     1.0000 0.90430  0.66670  0.91670  Biso   1.000  H
  H184     1.0000 0.42907  0.42903  0.25003  Biso   1.000  H
  H185     1.0000 0.99997  0.57093  0.25003  Biso   1.000  H
  H186     1.0000 0.57097  0.00003  0.25003  Biso   1.000  H
