data_image0
_cell_length_a       11.4204
_cell_length_b       8.7139
_cell_length_c       8.8502
_cell_angle_alpha    90
_cell_angle_beta     96.247
_cell_angle_gamma    90

_symmetry_space_group_name_H-M    "P 1"
_symmetry_int_tables_number       1

loop_
  _symmetry_equiv_pos_as_xyz
  'x, y, z'

loop_
  _atom_site_label
  _atom_site_occupancy
  _atom_site_fract_x
  _atom_site_fract_y
  _atom_site_fract_z
  _atom_site_thermal_displace_type
  _atom_site_B_iso_or_equiv
  _atom_site_type_symbol
  Cu1      1.0000 0.25000  0.25000  0.25000  Biso   1.000  Cu
  Cu2      1.0000 0.75000  0.75000  0.75000  Biso   1.000  Cu
  Cu3      1.0000 0.75000  0.25000  0.25000  Biso   1.000  Cu
  Cu4      1.0000 0.25000  0.75000  0.75000  Biso   1.000  Cu
  C1       1.0000 0.50000  0.21403  0.25000  Biso   1.000  C
  C2       1.0000 0.00000  0.71403  0.75000  Biso   1.000  C
  C3       1.0000 0.50000  0.78597  0.75000  Biso   1.000  C
  C4       1.0000 0.00000  0.28597  0.25000  Biso   1.000  C
  C5       1.0000 0.27831  0.53774  0.00318  Biso   1.000  C
  C6       1.0000 0.77831  0.03774  0.50318  Biso   1.000  C
  C7       1.0000 0.72169  0.53774  0.49682  Biso   1.000  C
  C8       1.0000 0.22169  0.03774  0.99682  Biso   1.000  C
  C9       1.0000 0.72169  0.46226  0.99682  Biso   1.000  C
  C10      1.0000 0.22169  0.96226  0.49682  Biso   1.000  C
  C11      1.0000 0.27831  0.46226  0.50318  Biso   1.000  C
  C12      1.0000 0.77831  0.96226  0.00318  Biso   1.000  C
  H1       1.0000 0.50000  0.32320  0.25000  Biso   1.000  H
  H2       1.0000 0.00000  0.82320  0.75000  Biso   1.000  H
  H3       1.0000 0.50000  0.67680  0.75000  Biso   1.000  H
  H4       1.0000 0.00000  0.17680  0.25000  Biso   1.000  H
  H5       1.0000 0.21600  0.48120  0.94180  Biso   1.000  H
  H6       1.0000 0.71600  0.98120  0.44180  Biso   1.000  H
  H7       1.0000 0.78400  0.48120  0.55820  Biso   1.000  H
  H8       1.0000 0.28400  0.98120  0.05820  Biso   1.000  H
  H9       1.0000 0.78400  0.51880  0.05820  Biso   1.000  H
  H10      1.0000 0.28400  0.01880  0.55820  Biso   1.000  H
  H11      1.0000 0.21600  0.51880  0.44180  Biso   1.000  H
  H12      1.0000 0.71600  0.01880  0.94180  Biso   1.000  H
  O1       1.0000 0.40315  0.14722  0.24419  Biso   1.000  O
  O2       1.0000 0.90315  0.64722  0.74419  Biso   1.000  O
  O3       1.0000 0.59685  0.14722  0.25581  Biso   1.000  O
  O4       1.0000 0.09685  0.64722  0.75581  Biso   1.000  O
  O5       1.0000 0.59685  0.85278  0.75581  Biso   1.000  O
  O6       1.0000 0.09685  0.35278  0.25581  Biso   1.000  O
  O7       1.0000 0.40315  0.85278  0.74419  Biso   1.000  O
  O8       1.0000 0.90315  0.35278  0.24419  Biso   1.000  O
  O9       1.0000 0.32206  0.48315  0.12594  Biso   1.000  O
  O10      1.0000 0.82206  0.98315  0.62594  Biso   1.000  O
  O11      1.0000 0.67794  0.48315  0.37406  Biso   1.000  O
  O12      1.0000 0.17794  0.98315  0.87406  Biso   1.000  O
  O13      1.0000 0.67794  0.51685  0.87406  Biso   1.000  O
  O14      1.0000 0.17794  0.01685  0.37406  Biso   1.000  O
  O15      1.0000 0.32206  0.51685  0.62594  Biso   1.000  O
  O16      1.0000 0.82206  0.01685  0.12594  Biso   1.000  O
  O17      1.0000 0.31088  0.33920  0.44750  Biso   1.000  O
  O18      1.0000 0.81088  0.83920  0.94750  Biso   1.000  O
  O19      1.0000 0.68912  0.33920  0.05250  Biso   1.000  O
  O20      1.0000 0.18912  0.83920  0.55250  Biso   1.000  O
  O21      1.0000 0.68912  0.66080  0.55250  Biso   1.000  O
  O22      1.0000 0.18912  0.16080  0.05250  Biso   1.000  O
  O23      1.0000 0.31088  0.66080  0.94750  Biso   1.000  O
  O24      1.0000 0.81088  0.16080  0.44750  Biso   1.000  O
  C13      1.0000 0.55813  0.77864  0.14183  Biso   1.000  C
  C14      1.0000 0.05813  0.27864  0.64183  Biso   1.000  C
  C15      1.0000 0.44187  0.77864  0.35817  Biso   1.000  C
  C16      1.0000 0.94187  0.27864  0.85817  Biso   1.000  C
  C17      1.0000 0.44187  0.22136  0.85817  Biso   1.000  C
  C18      1.0000 0.94187  0.72136  0.35817  Biso   1.000  C
  C19      1.0000 0.55813  0.22136  0.64183  Biso   1.000  C
  C20      1.0000 0.05813  0.72136  0.14183  Biso   1.000  C
  H13      1.0000 0.61060  0.83230  0.19690  Biso   1.000  H
  H14      1.0000 0.11060  0.33230  0.69690  Biso   1.000  H
  H15      1.0000 0.38940  0.83230  0.30310  Biso   1.000  H
  H16      1.0000 0.88940  0.33230  0.80310  Biso   1.000  H
  H17      1.0000 0.38940  0.16770  0.80310  Biso   1.000  H
  H18      1.0000 0.88940  0.66770  0.30310  Biso   1.000  H
  H19      1.0000 0.61060  0.16770  0.69690  Biso   1.000  H
  H20      1.0000 0.11060  0.66770  0.19690  Biso   1.000  H
  H21      1.0000 0.49890  0.83530  0.09090  Biso   1.000  H
  H22      1.0000 0.99890  0.33530  0.59090  Biso   1.000  H
  H23      1.0000 0.50110  0.83530  0.40910  Biso   1.000  H
  H24      1.0000 0.00110  0.33530  0.90910  Biso   1.000  H
  H25      1.0000 0.50110  0.16470  0.90910  Biso   1.000  H
  H26      1.0000 0.00110  0.66470  0.40910  Biso   1.000  H
  H27      1.0000 0.49890  0.16470  0.59090  Biso   1.000  H
  H28      1.0000 0.99890  0.66470  0.09090  Biso   1.000  H
  H29      1.0000 0.58390  0.71400  0.08130  Biso   1.000  H
  H30      1.0000 0.08390  0.21400  0.58130  Biso   1.000  H
  H31      1.0000 0.41610  0.71400  0.41870  Biso   1.000  H
  H32      1.0000 0.91610  0.21400  0.91870  Biso   1.000  H
  H33      1.0000 0.41610  0.28600  0.91870  Biso   1.000  H
  H34      1.0000 0.91610  0.78600  0.41870  Biso   1.000  H
  H35      1.0000 0.58390  0.28600  0.58130  Biso   1.000  H
  H36      1.0000 0.08390  0.78600  0.08130  Biso   1.000  H
  H37      1.0000 0.44820  0.63390  0.19970  Biso   1.000  H
  H38      1.0000 0.94820  0.13390  0.69970  Biso   1.000  H
  H39      1.0000 0.55180  0.63390  0.30030  Biso   1.000  H
  H40      1.0000 0.05180  0.13390  0.80030  Biso   1.000  H
  H41      1.0000 0.55180  0.36610  0.80030  Biso   1.000  H
  H42      1.0000 0.05180  0.86610  0.30030  Biso   1.000  H
  H43      1.0000 0.44820  0.36610  0.69970  Biso   1.000  H
  H44      1.0000 0.94820  0.86610  0.19970  Biso   1.000  H
  N1       1.0000 0.50000  0.68522  0.25000  Biso   1.000  N
  N2       1.0000 0.00000  0.18522  0.75000  Biso   1.000  N
  N3       1.0000 0.50000  0.31478  0.75000  Biso   1.000  N
  N4       1.0000 0.00000  0.81478  0.25000  Biso   1.000  N
