data_image0
_cell_length_a       10.9738
_cell_length_b       8.4692
_cell_length_c       8.109
_cell_angle_alpha    90
_cell_angle_beta     94.187
_cell_angle_gamma    90

_symmetry_space_group_name_H-M    "P 1"
_symmetry_int_tables_number       1

loop_
  _symmetry_equiv_pos_as_xyz
  'x, y, z'

loop_
  _atom_site_label
  _atom_site_occupancy
  _atom_site_fract_x
  _atom_site_fract_y
  _atom_site_fract_z
  _atom_site_thermal_displace_type
  _atom_site_B_iso_or_equiv
  _atom_site_type_symbol
  Cu1      1.0000 0.50000  0.50000  0.50000  Biso   1.000  Cu
  Cu2      1.0000 0.00000  0.50000  0.50000  Biso   1.000  Cu
  Cu3      1.0000 0.00000  0.00000  0.00000  Biso   1.000  Cu
  Cu4      1.0000 0.50000  0.00000  0.00000  Biso   1.000  Cu
  O1       1.0000 0.35010  0.62180  0.50720  Biso   1.000  O
  O2       1.0000 0.14990  0.62180  0.49280  Biso   1.000  O
  O3       1.0000 0.85010  0.12180  0.00720  Biso   1.000  O
  O4       1.0000 0.64990  0.12180  0.99280  Biso   1.000  O
  O5       1.0000 0.64990  0.37820  0.49280  Biso   1.000  O
  O6       1.0000 0.85010  0.37820  0.50720  Biso   1.000  O
  O7       1.0000 0.14990  0.87820  0.99280  Biso   1.000  O
  O8       1.0000 0.35010  0.87820  0.00720  Biso   1.000  O
  O9       1.0000 0.41590  0.21710  0.11170  Biso   1.000  O
  O10      1.0000 0.08410  0.21710  0.88830  Biso   1.000  O
  O11      1.0000 0.91590  0.71710  0.61170  Biso   1.000  O
  O12      1.0000 0.58410  0.71710  0.38830  Biso   1.000  O
  O13      1.0000 0.58410  0.78290  0.88830  Biso   1.000  O
  O14      1.0000 0.91590  0.78290  0.11170  Biso   1.000  O
  O15      1.0000 0.08410  0.28290  0.38830  Biso   1.000  O
  O16      1.0000 0.41590  0.28290  0.61170  Biso   1.000  O
  O17      1.0000 0.43440  0.41520  0.28670  Biso   1.000  O
  O18      1.0000 0.06560  0.41520  0.71330  Biso   1.000  O
  O19      1.0000 0.93440  0.91520  0.78670  Biso   1.000  O
  O20      1.0000 0.56560  0.91520  0.21330  Biso   1.000  O
  O21      1.0000 0.56560  0.58480  0.71330  Biso   1.000  O
  O22      1.0000 0.93440  0.58480  0.28670  Biso   1.000  O
  O23      1.0000 0.06560  0.08480  0.21330  Biso   1.000  O
  O24      1.0000 0.43440  0.08480  0.78670  Biso   1.000  O
  C1       1.0000 0.25000  0.55220  0.50000  Biso   1.000  C
  C2       1.0000 0.75000  0.05220  0.00000  Biso   1.000  C
  C3       1.0000 0.75000  0.44780  0.50000  Biso   1.000  C
  C4       1.0000 0.25000  0.94780  0.00000  Biso   1.000  C
  H1       1.0000 0.25000  0.44241  0.50000  Biso   1.000  H
  H2       1.0000 0.75000  0.94241  0.00000  Biso   1.000  H
  H3       1.0000 0.75000  0.55759  0.50000  Biso   1.000  H
  H4       1.0000 0.25000  0.05759  0.00000  Biso   1.000  H
  C5       1.0000 0.46270  0.28200  0.23830  Biso   1.000  C
  C6       1.0000 0.03730  0.28200  0.76170  Biso   1.000  C
  C7       1.0000 0.96270  0.78200  0.73830  Biso   1.000  C
  C8       1.0000 0.53730  0.78200  0.26170  Biso   1.000  C
  C9       1.0000 0.53730  0.71800  0.76170  Biso   1.000  C
  C10      1.0000 0.96270  0.71800  0.23830  Biso   1.000  C
  C11      1.0000 0.03730  0.21800  0.26170  Biso   1.000  C
  C12      1.0000 0.46270  0.21800  0.73830  Biso   1.000  C
  H5       1.0000 0.52294  0.22705  0.30116  Biso   1.000  H
  H6       1.0000 0.97706  0.22705  0.69884  Biso   1.000  H
  H7       1.0000 0.02294  0.72705  0.80116  Biso   1.000  H
  H8       1.0000 0.47706  0.72705  0.19884  Biso   1.000  H
  H9       1.0000 0.47706  0.77295  0.69884  Biso   1.000  H
  H10      1.0000 0.02294  0.77295  0.30116  Biso   1.000  H
  H11      1.0000 0.97706  0.27295  0.19884  Biso   1.000  H
  H12      1.0000 0.52294  0.27295  0.80116  Biso   1.000  H
  N1       1.0000 0.25000  0.44560  0.00000  Biso   1.000  N
  N2       1.0000 0.75000  0.94560  0.50000  Biso   1.000  N
  N3       1.0000 0.75000  0.55440  0.00000  Biso   1.000  N
  N4       1.0000 0.25000  0.05440  0.50000  Biso   1.000  N
  H13      1.0000 0.19300  0.35700  0.95500  Biso   1.000  H
  H14      1.0000 0.30700  0.35700  0.04500  Biso   1.000  H
  H15      1.0000 0.69300  0.85700  0.45500  Biso   1.000  H
  H16      1.0000 0.80700  0.85700  0.54500  Biso   1.000  H
  H17      1.0000 0.80700  0.64300  0.04500  Biso   1.000  H
  H18      1.0000 0.69300  0.64300  0.95500  Biso   1.000  H
  H19      1.0000 0.30700  0.14300  0.54500  Biso   1.000  H
  H20      1.0000 0.19300  0.14300  0.45500  Biso   1.000  H
  C13      1.0000 0.18110  0.53770  0.10850  Biso   1.000  C
  C14      1.0000 0.31890  0.53770  0.89150  Biso   1.000  C
  C15      1.0000 0.68110  0.03770  0.60850  Biso   1.000  C
  C16      1.0000 0.81890  0.03770  0.39150  Biso   1.000  C
  C17      1.0000 0.81890  0.46230  0.89150  Biso   1.000  C
  C18      1.0000 0.68110  0.46230  0.10850  Biso   1.000  C
  C19      1.0000 0.31890  0.96230  0.39150  Biso   1.000  C
  C20      1.0000 0.18110  0.96230  0.60850  Biso   1.000  C
  H21      1.0000 0.13737  0.46870  0.17721  Biso   1.000  H
  H22      1.0000 0.36263  0.46870  0.82279  Biso   1.000  H
  H23      1.0000 0.63737  0.96870  0.67721  Biso   1.000  H
  H24      1.0000 0.86263  0.96870  0.32279  Biso   1.000  H
  H25      1.0000 0.86263  0.53130  0.82279  Biso   1.000  H
  H26      1.0000 0.63737  0.53130  0.17721  Biso   1.000  H
  H27      1.0000 0.36263  0.03130  0.32279  Biso   1.000  H
  H28      1.0000 0.13737  0.03130  0.67721  Biso   1.000  H
  H29      1.0000 0.23555  0.60312  0.17664  Biso   1.000  H
  H30      1.0000 0.26445  0.60312  0.82336  Biso   1.000  H
  H31      1.0000 0.73555  0.10312  0.67664  Biso   1.000  H
  H32      1.0000 0.76445  0.10312  0.32336  Biso   1.000  H
  H33      1.0000 0.76445  0.39688  0.82336  Biso   1.000  H
  H34      1.0000 0.73555  0.39688  0.17664  Biso   1.000  H
  H35      1.0000 0.26445  0.89688  0.32336  Biso   1.000  H
  H36      1.0000 0.23555  0.89688  0.67664  Biso   1.000  H
  H37      1.0000 0.12409  0.60312  0.04421  Biso   1.000  H
  H38      1.0000 0.37591  0.60312  0.95579  Biso   1.000  H
  H39      1.0000 0.62409  0.10312  0.54421  Biso   1.000  H
  H40      1.0000 0.87591  0.10312  0.45579  Biso   1.000  H
  H41      1.0000 0.87591  0.39688  0.95579  Biso   1.000  H
  H42      1.0000 0.62409  0.39688  0.04421  Biso   1.000  H
  H43      1.0000 0.37591  0.89688  0.45579  Biso   1.000  H
  H44      1.0000 0.12409  0.89688  0.54421  Biso   1.000  H
