data_image0
_cell_length_a       5.4601
_cell_length_b       5.9181
_cell_length_c       5.784
_cell_angle_alpha    94.58
_cell_angle_beta     90
_cell_angle_gamma    96.582

_symmetry_space_group_name_H-M    "P 1"
_symmetry_int_tables_number       1

loop_
  _symmetry_equiv_pos_as_xyz
  'x, y, z'

loop_
  _atom_site_label
  _atom_site_occupancy
  _atom_site_fract_x
  _atom_site_fract_y
  _atom_site_fract_z
  _atom_site_thermal_displace_type
  _atom_site_B_iso_or_equiv
  _atom_site_type_symbol
  O1       1.0000 0.81160  0.61300  0.36100  Biso   1.000  O
  O2       1.0000 0.18840  0.38700  0.63900  Biso   1.000  O
  O3       1.0000 0.21400  0.59900  0.36600  Biso   1.000  O
  O4       1.0000 0.78600  0.40100  0.63400  Biso   1.000  O
  C1       1.0000 0.00200  0.54700  0.44500  Biso   1.000  C
  C2       1.0000 0.99800  0.45300  0.55500  Biso   1.000  C
  O5       1.0000 0.63200  0.63600  0.80100  Biso   1.000  O
  O6       1.0000 0.36800  0.36400  0.19900  Biso   1.000  O
  O7       1.0000 0.69700  0.59000  0.16500  Biso   1.000  O
  O8       1.0000 0.30300  0.41000  0.83500  Biso   1.000  O
  C3       1.0000 0.58100  0.54100  0.98200  Biso   1.000  C
  C4       1.0000 0.41900  0.45900  0.01800  Biso   1.000  C
  Cu1      1.0000 0.50000  0.50000  0.50000  Biso   1.000  Cu
  O9       1.0000 0.36800  0.19200  0.38900  Biso   1.000  O
  O10      1.0000 0.63200  0.80800  0.61100  Biso   1.000  O
  C5       1.0000 0.44000  0.01000  0.45900  Biso   1.000  C
  C6       1.0000 0.56000  0.99000  0.54100  Biso   1.000  C
  O11      1.0000 0.33800  0.81900  0.39400  Biso   1.000  O
  O12      1.0000 0.66200  0.18100  0.60600  Biso   1.000  O
  C7       1.0000 0.15900  0.89700  0.91900  Biso   1.000  C
  C8       1.0000 0.84100  0.10300  0.08100  Biso   1.000  C
  N1       1.0000 0.99900  0.97900  0.08000  Biso   1.000  N
  N2       1.0000 0.00100  0.02100  0.92000  Biso   1.000  N
