data_image0
_cell_length_a       8.3629
_cell_length_b       9.1293
_cell_length_c       20.174
_cell_angle_alpha    90
_cell_angle_beta     90
_cell_angle_gamma    90

_symmetry_space_group_name_H-M    "P 1"
_symmetry_int_tables_number       1

loop_
  _symmetry_equiv_pos_as_xyz
  'x, y, z'

loop_
  _atom_site_label
  _atom_site_occupancy
  _atom_site_fract_x
  _atom_site_fract_y
  _atom_site_fract_z
  _atom_site_thermal_displace_type
  _atom_site_B_iso_or_equiv
  _atom_site_type_symbol
  Cu1      1.0000 0.07563  0.97188  0.50724  Biso   1.000  Cu
  Cu2      1.0000 0.42437  0.02812  0.00724  Biso   1.000  Cu
  Cu3      1.0000 0.57563  0.52812  0.49276  Biso   1.000  Cu
  Cu4      1.0000 0.92437  0.47188  0.99276  Biso   1.000  Cu
  O1       1.0000 0.89769  0.98640  0.56562  Biso   1.000  O
  O2       1.0000 0.60231  0.01360  0.06562  Biso   1.000  O
  O3       1.0000 0.39769  0.51360  0.43438  Biso   1.000  O
  O4       1.0000 0.10231  0.48640  0.93438  Biso   1.000  O
  N1       1.0000 0.25300  0.00110  0.43783  Biso   1.000  N
  N2       1.0000 0.24700  0.99890  0.93783  Biso   1.000  N
  N3       1.0000 0.75300  0.49890  0.56217  Biso   1.000  N
  N4       1.0000 0.74700  0.50110  0.06217  Biso   1.000  N
  N5       1.0000 0.81210  0.82090  0.44742  Biso   1.000  N
  N6       1.0000 0.68790  0.17910  0.94742  Biso   1.000  N
  N7       1.0000 0.31210  0.67910  0.55258  Biso   1.000  N
  N8       1.0000 0.18790  0.32090  0.05258  Biso   1.000  N
  N9       1.0000 0.69040  0.76310  0.45235  Biso   1.000  N
  N10      1.0000 0.80960  0.23690  0.95235  Biso   1.000  N
  N11      1.0000 0.19040  0.73690  0.54765  Biso   1.000  N
  N12      1.0000 0.30960  0.26310  0.04765  Biso   1.000  N
  N13      1.0000 0.19960  0.11130  0.56102  Biso   1.000  N
  N14      1.0000 0.30040  0.88870  0.06102  Biso   1.000  N
  N15      1.0000 0.69960  0.38870  0.43898  Biso   1.000  N
  N16      1.0000 0.80040  0.61130  0.93898  Biso   1.000  N
  C1       1.0000 0.74390  0.02370  0.66111  Biso   1.000  C
  C2       1.0000 0.75610  0.97630  0.16111  Biso   1.000  C
  C3       1.0000 0.24390  0.47630  0.33889  Biso   1.000  C
  C4       1.0000 0.25610  0.52370  0.83889  Biso   1.000  C
  N17      1.0000 0.93850  0.87870  0.43894  Biso   1.000  N
  N18      1.0000 0.56150  0.12130  0.93894  Biso   1.000  N
  N19      1.0000 0.43850  0.62130  0.56106  Biso   1.000  N
  N20      1.0000 0.06150  0.37870  0.06106  Biso   1.000  N
  C5       1.0000 0.72680  0.08230  0.72548  Biso   1.000  C
  C6       1.0000 0.77320  0.91770  0.22548  Biso   1.000  C
  C7       1.0000 0.22680  0.41770  0.27452  Biso   1.000  C
  C8       1.0000 0.27320  0.58230  0.77452  Biso   1.000  C
  C9       1.0000 0.89330  0.04270  0.62426  Biso   1.000  C
  C10      1.0000 0.60670  0.95730  0.12426  Biso   1.000  C
  C11      1.0000 0.39330  0.45730  0.37574  Biso   1.000  C
  C12      1.0000 0.10670  0.54270  0.87574  Biso   1.000  C
  C13      1.0000 0.61450  0.95150  0.63138  Biso   1.000  C
  C14      1.0000 0.88550  0.04850  0.13138  Biso   1.000  C
  C15      1.0000 0.11450  0.54850  0.36862  Biso   1.000  C
  C16      1.0000 0.38550  0.45150  0.86862  Biso   1.000  C
  H1       1.0000 0.62580  0.91270  0.58900  Biso   1.000  H
  H2       1.0000 0.87420  0.08730  0.08900  Biso   1.000  H
  H3       1.0000 0.12580  0.58730  0.41100  Biso   1.000  H
  H4       1.0000 0.37420  0.41270  0.91100  Biso   1.000  H
  C17      1.0000 0.01680  0.12660  0.65345  Biso   1.000  C
  C18      1.0000 0.48320  0.87340  0.15345  Biso   1.000  C
  C19      1.0000 0.51680  0.37340  0.34655  Biso   1.000  C
  C20      1.0000 0.98320  0.62660  0.84655  Biso   1.000  C
  C21      1.0000 0.99510  0.17790  0.72021  Biso   1.000  C
  C22      1.0000 0.50490  0.82210  0.22021  Biso   1.000  C
  C23      1.0000 0.49510  0.32210  0.27979  Biso   1.000  C
  C24      1.0000 0.00490  0.67790  0.77979  Biso   1.000  C
  H5       1.0000 0.07850  0.22840  0.74040  Biso   1.000  H
  H6       1.0000 0.42150  0.77160  0.24040  Biso   1.000  H
  H7       1.0000 0.57850  0.27160  0.25960  Biso   1.000  H
  H8       1.0000 0.92150  0.72840  0.75960  Biso   1.000  H
  C25      1.0000 0.25500  0.29820  0.64392  Biso   1.000  C
  C26      1.0000 0.24500  0.70180  0.14392  Biso   1.000  C
  C27      1.0000 0.75500  0.20180  0.35608  Biso   1.000  C
  C28      1.0000 0.74500  0.79820  0.85608  Biso   1.000  C
  H9       1.0000 0.34420  0.31730  0.61520  Biso   1.000  H
  H10      1.0000 0.15580  0.68270  0.11520  Biso   1.000  H
  H11      1.0000 0.84420  0.18270  0.38480  Biso   1.000  H
  H12      1.0000 0.65580  0.81730  0.88480  Biso   1.000  H
  H13      1.0000 0.29350  0.27360  0.68740  Biso   1.000  H
  H14      1.0000 0.20650  0.72640  0.18740  Biso   1.000  H
  H15      1.0000 0.79350  0.22640  0.31260  Biso   1.000  H
  H16      1.0000 0.70650  0.77360  0.81260  Biso   1.000  H
  H17      1.0000 0.18880  0.38390  0.64660  Biso   1.000  H
  H18      1.0000 0.31120  0.61610  0.14660  Biso   1.000  H
  H19      1.0000 0.68880  0.11610  0.35340  Biso   1.000  H
  H20      1.0000 0.81120  0.88390  0.85340  Biso   1.000  H
  C29      1.0000 0.34720  0.15990  0.52723  Biso   1.000  C
  C30      1.0000 0.15280  0.84010  0.02723  Biso   1.000  C
  C31      1.0000 0.84720  0.34010  0.47277  Biso   1.000  C
  C32      1.0000 0.65280  0.65990  0.97277  Biso   1.000  C
  H21      1.0000 0.43250  0.17220  0.55930  Biso   1.000  H
  H22      1.0000 0.06750  0.82780  0.05930  Biso   1.000  H
  H23      1.0000 0.93250  0.32780  0.44070  Biso   1.000  H
  H24      1.0000 0.56750  0.67220  0.94070  Biso   1.000  H
  H25      1.0000 0.32900  0.25320  0.50550  Biso   1.000  H
  H26      1.0000 0.17100  0.74680  0.00550  Biso   1.000  H
  H27      1.0000 0.82900  0.24680  0.49450  Biso   1.000  H
  H28      1.0000 0.67100  0.75320  0.99450  Biso   1.000  H
  C33      1.0000 0.15830  0.17170  0.61656  Biso   1.000  C
  C34      1.0000 0.34170  0.82830  0.11656  Biso   1.000  C
  C35      1.0000 0.65830  0.32830  0.38344  Biso   1.000  C
  C36      1.0000 0.84170  0.67170  0.88344  Biso   1.000  C
  C37      1.0000 0.39340  0.04620  0.47690  Biso   1.000  C
  C38      1.0000 0.10660  0.95380  0.97690  Biso   1.000  C
  C39      1.0000 0.89340  0.45380  0.52310  Biso   1.000  C
  C40      1.0000 0.60660  0.54620  0.02310  Biso   1.000  C
  H29      1.0000 0.47450  0.08570  0.44760  Biso   1.000  H
  H30      1.0000 0.02550  0.91430  0.94760  Biso   1.000  H
  H31      1.0000 0.97450  0.41430  0.55240  Biso   1.000  H
  H32      1.0000 0.52550  0.58570  0.05240  Biso   1.000  H
  H33      1.0000 0.43820  0.96160  0.49930  Biso   1.000  H
  H34      1.0000 0.06180  0.03840  0.99930  Biso   1.000  H
  H35      1.0000 0.93820  0.53840  0.50070  Biso   1.000  H
  H36      1.0000 0.56180  0.46160  0.00070  Biso   1.000  H
  C41      1.0000 0.57800  0.06420  0.75828  Biso   1.000  C
  C42      1.0000 0.92200  0.93580  0.25828  Biso   1.000  C
  C43      1.0000 0.07800  0.43580  0.24172  Biso   1.000  C
  C44      1.0000 0.42200  0.56420  0.74172  Biso   1.000  C
  H37      1.0000 0.56490  0.10060  0.80100  Biso   1.000  H
  H38      1.0000 0.93510  0.89940  0.30100  Biso   1.000  H
  H39      1.0000 0.06490  0.39940  0.19900  Biso   1.000  H
  H40      1.0000 0.43510  0.60060  0.69900  Biso   1.000  H
  C45      1.0000 0.85940  0.15620  0.75485  Biso   1.000  C
  C46      1.0000 0.64060  0.84380  0.25485  Biso   1.000  C
  C47      1.0000 0.35940  0.34380  0.24515  Biso   1.000  C
  C48      1.0000 0.14060  0.65620  0.74515  Biso   1.000  C
  H41      1.0000 0.85200  0.18970  0.79830  Biso   1.000  H
  H42      1.0000 0.64800  0.81030  0.29830  Biso   1.000  H
  H43      1.0000 0.35200  0.31030  0.20170  Biso   1.000  H
  H44      1.0000 0.14800  0.68970  0.70170  Biso   1.000  H
  C49      1.0000 0.45380  0.99430  0.72799  Biso   1.000  C
  C50      1.0000 0.04620  0.00570  0.22799  Biso   1.000  C
  C51      1.0000 0.95380  0.50570  0.27201  Biso   1.000  C
  C52      1.0000 0.54620  0.49430  0.77201  Biso   1.000  C
  H45      1.0000 0.35680  0.98460  0.75010  Biso   1.000  H
  H46      1.0000 0.14320  0.01540  0.25010  Biso   1.000  H
  H47      1.0000 0.85680  0.51540  0.24990  Biso   1.000  H
  H48      1.0000 0.64320  0.48460  0.74990  Biso   1.000  H
  C53      1.0000 0.47030  0.93720  0.66425  Biso   1.000  C
  C54      1.0000 0.02970  0.06280  0.16425  Biso   1.000  C
  C55      1.0000 0.97030  0.56280  0.33575  Biso   1.000  C
  C56      1.0000 0.52970  0.43720  0.83575  Biso   1.000  C
  H49      1.0000 0.38490  0.88980  0.64400  Biso   1.000  H
  H50      1.0000 0.11510  0.11020  0.14400  Biso   1.000  H
  H51      1.0000 0.88490  0.61020  0.35600  Biso   1.000  H
  H52      1.0000 0.61510  0.38980  0.85600  Biso   1.000  H
  C57      1.0000 0.29530  0.87320  0.39676  Biso   1.000  C
  C58      1.0000 0.20470  0.12680  0.89676  Biso   1.000  C
  C59      1.0000 0.79530  0.62680  0.60324  Biso   1.000  C
  C60      1.0000 0.70470  0.37320  0.10324  Biso   1.000  C
  H53      1.0000 0.20390  0.84340  0.37140  Biso   1.000  H
  H54      1.0000 0.29610  0.15660  0.87140  Biso   1.000  H
  H55      1.0000 0.70390  0.65660  0.62860  Biso   1.000  H
  H56      1.0000 0.79610  0.34340  0.12860  Biso   1.000  H
  H57      1.0000 0.32860  0.79410  0.42490  Biso   1.000  H
  H58      1.0000 0.17140  0.20590  0.92490  Biso   1.000  H
  H59      1.0000 0.82860  0.70590  0.57510  Biso   1.000  H
  H60      1.0000 0.67140  0.29410  0.07510  Biso   1.000  H
  H61      1.0000 0.38100  0.89890  0.36730  Biso   1.000  H
  H62      1.0000 0.11900  0.10110  0.86730  Biso   1.000  H
  H63      1.0000 0.88100  0.60110  0.63270  Biso   1.000  H
  H64      1.0000 0.61900  0.39890  0.13270  Biso   1.000  H
  C61      1.0000 0.20040  0.11920  0.39348  Biso   1.000  C
  C62      1.0000 0.29960  0.88080  0.89348  Biso   1.000  C
  C63      1.0000 0.70040  0.38080  0.60652  Biso   1.000  C
  C64      1.0000 0.79960  0.61920  0.10652  Biso   1.000  C
  H65      1.0000 0.10860  0.08740  0.36880  Biso   1.000  H
  H66      1.0000 0.39140  0.91260  0.86880  Biso   1.000  H
  H67      1.0000 0.60860  0.41260  0.63120  Biso   1.000  H
  H68      1.0000 0.89140  0.58740  0.13120  Biso   1.000  H
  H69      1.0000 0.28530  0.14340  0.36340  Biso   1.000  H
  H70      1.0000 0.21470  0.85660  0.86340  Biso   1.000  H
  H71      1.0000 0.78530  0.35660  0.63660  Biso   1.000  H
  H72      1.0000 0.71470  0.64340  0.13660  Biso   1.000  H
  H73      1.0000 0.17310  0.20400  0.41930  Biso   1.000  H
  H74      1.0000 0.32690  0.79600  0.91930  Biso   1.000  H
  H75      1.0000 0.67310  0.29600  0.58070  Biso   1.000  H
  H76      1.0000 0.82690  0.70400  0.08070  Biso   1.000  H
