data_image0
_cell_length_a       6.9439
_cell_length_b       7.7514
_cell_length_c       27.556
_cell_angle_alpha    90
_cell_angle_beta     90
_cell_angle_gamma    90

_symmetry_space_group_name_H-M    "P 1"
_symmetry_int_tables_number       1

loop_
  _symmetry_equiv_pos_as_xyz
  'x, y, z'

loop_
  _atom_site_label
  _atom_site_occupancy
  _atom_site_fract_x
  _atom_site_fract_y
  _atom_site_fract_z
  _atom_site_thermal_displace_type
  _atom_site_B_iso_or_equiv
  _atom_site_type_symbol
  Cu1      1.0000 0.43862  0.28844  0.32949  Biso   1.000  Cu
  Cu2      1.0000 0.06138  0.71156  0.82949  Biso   1.000  Cu
  Cu3      1.0000 0.93862  0.21156  0.67051  Biso   1.000  Cu
  Cu4      1.0000 0.56138  0.78844  0.17051  Biso   1.000  Cu
  O1       1.0000 0.64710  0.42960  0.35294  Biso   1.000  O
  O2       1.0000 0.85290  0.57040  0.85294  Biso   1.000  O
  O3       1.0000 0.14710  0.07040  0.64706  Biso   1.000  O
  O4       1.0000 0.35290  0.92960  0.14706  Biso   1.000  O
  N1       1.0000 0.20780  0.13380  0.31113  Biso   1.000  N
  N2       1.0000 0.29220  0.86620  0.81113  Biso   1.000  N
  N3       1.0000 0.70780  0.36620  0.68887  Biso   1.000  N
  N4       1.0000 0.79220  0.63380  0.18887  Biso   1.000  N
  N5       1.0000 0.27790  0.36240  0.38310  Biso   1.000  N
  N6       1.0000 0.22210  0.63760  0.88310  Biso   1.000  N
  N7       1.0000 0.77790  0.13760  0.61690  Biso   1.000  N
  N8       1.0000 0.72210  0.86240  0.11690  Biso   1.000  N
  N9       1.0000 0.60010  0.18650  0.28080  Biso   1.000  N
  N10      1.0000 0.89990  0.81350  0.78080  Biso   1.000  N
  N11      1.0000 0.10010  0.31350  0.71920  Biso   1.000  N
  N12      1.0000 0.39990  0.68650  0.21920  Biso   1.000  N
  C1       1.0000 0.46800  0.61020  0.40753  Biso   1.000  C
  C2       1.0000 0.03200  0.38980  0.90753  Biso   1.000  C
  C3       1.0000 0.96800  0.88980  0.59247  Biso   1.000  C
  C4       1.0000 0.53200  0.11020  0.09247  Biso   1.000  C
  C5       1.0000 0.62570  0.88570  0.43119  Biso   1.000  C
  C6       1.0000 0.87430  0.11430  0.93119  Biso   1.000  C
  C7       1.0000 0.12570  0.61430  0.56881  Biso   1.000  C
  C8       1.0000 0.37430  0.38570  0.06881  Biso   1.000  C
  C9       1.0000 0.46420  0.77120  0.43468  Biso   1.000  C
  C10      1.0000 0.03580  0.22880  0.93468  Biso   1.000  C
  C11      1.0000 0.96420  0.72880  0.56532  Biso   1.000  C
  C12      1.0000 0.53580  0.27120  0.06532  Biso   1.000  C
  C13      1.0000 0.30190  0.49960  0.40919  Biso   1.000  C
  C14      1.0000 0.19810  0.50040  0.90919  Biso   1.000  C
  C15      1.0000 0.80190  0.00040  0.59081  Biso   1.000  C
  C16      1.0000 0.69810  0.99960  0.09081  Biso   1.000  C
  H1       1.0000 0.20200  0.52950  0.43120  Biso   1.000  H
  H2       1.0000 0.29800  0.47050  0.93120  Biso   1.000  H
  H3       1.0000 0.70200  0.97050  0.56880  Biso   1.000  H
  H4       1.0000 0.79800  0.02950  0.06880  Biso   1.000  H
  C17      1.0000 0.62990  0.56710  0.37919  Biso   1.000  C
  C18      1.0000 0.87010  0.43290  0.87919  Biso   1.000  C
  C19      1.0000 0.12990  0.93290  0.62081  Biso   1.000  C
  C20      1.0000 0.37010  0.06710  0.12081  Biso   1.000  C
  C21      1.0000 0.09760  0.26520  0.38703  Biso   1.000  C
  C22      1.0000 0.40240  0.73480  0.88703  Biso   1.000  C
  C23      1.0000 0.59760  0.23480  0.61297  Biso   1.000  C
  C24      1.0000 0.90240  0.76520  0.11297  Biso   1.000  C
  H5       1.0000 0.99600  0.33820  0.40160  Biso   1.000  H
  H6       1.0000 0.50400  0.66180  0.90160  Biso   1.000  H
  H7       1.0000 0.49600  0.16180  0.59840  Biso   1.000  H
  H8       1.0000 0.00400  0.83820  0.09840  Biso   1.000  H
  H9       1.0000 0.11610  0.16240  0.40780  Biso   1.000  H
  H10      1.0000 0.38390  0.83760  0.90780  Biso   1.000  H
  H11      1.0000 0.61610  0.33760  0.59220  Biso   1.000  H
  H12      1.0000 0.88390  0.66240  0.09220  Biso   1.000  H
  C25      1.0000 0.04010  0.21110  0.33619  Biso   1.000  C
  C26      1.0000 0.45990  0.78890  0.83619  Biso   1.000  C
  C27      1.0000 0.54010  0.28890  0.66381  Biso   1.000  C
  C28      1.0000 0.95990  0.71110  0.16381  Biso   1.000  C
  H13      1.0000 0.93390  0.12610  0.33790  Biso   1.000  H
  H14      1.0000 0.56610  0.87390  0.83790  Biso   1.000  H
  H15      1.0000 0.43390  0.37390  0.66210  Biso   1.000  H
  H16      1.0000 0.06610  0.62610  0.16210  Biso   1.000  H
  H17      1.0000 0.99390  0.31270  0.31780  Biso   1.000  H
  H18      1.0000 0.50610  0.68730  0.81780  Biso   1.000  H
  H19      1.0000 0.49390  0.18730  0.68220  Biso   1.000  H
  H20      1.0000 0.00610  0.81270  0.18220  Biso   1.000  H
  C29      1.0000 0.31160  0.98240  0.48813  Biso   1.000  C
  C30      1.0000 0.18840  0.01760  0.98813  Biso   1.000  C
  C31      1.0000 0.81160  0.51760  0.51187  Biso   1.000  C
  C32      1.0000 0.68840  0.48240  0.01187  Biso   1.000  C
  H21      1.0000 0.20640  0.01360  0.50840  Biso   1.000  H
  H22      1.0000 0.29360  0.98640  0.00840  Biso   1.000  H
  H23      1.0000 0.70640  0.48640  0.49160  Biso   1.000  H
  H24      1.0000 0.79360  0.51360  0.99160  Biso   1.000  H
  C33      1.0000 0.79180  0.68300  0.37912  Biso   1.000  C
  C34      1.0000 0.70820  0.31700  0.87912  Biso   1.000  C
  C35      1.0000 0.29180  0.81700  0.62088  Biso   1.000  C
  C36      1.0000 0.20820  0.18300  0.12088  Biso   1.000  C
  H25      1.0000 0.90440  0.65260  0.36150  Biso   1.000  H
  H26      1.0000 0.59560  0.34740  0.86150  Biso   1.000  H
  H27      1.0000 0.40440  0.84740  0.63850  Biso   1.000  H
  H28      1.0000 0.09560  0.15260  0.13850  Biso   1.000  H
  C37      1.0000 0.78720  0.83350  0.40349  Biso   1.000  C
  C38      1.0000 0.71280  0.16650  0.90349  Biso   1.000  C
  C39      1.0000 0.28720  0.66650  0.59651  Biso   1.000  C
  C40      1.0000 0.21280  0.33350  0.09651  Biso   1.000  C
  H29      1.0000 0.89630  0.90730  0.40200  Biso   1.000  H
  H30      1.0000 0.60370  0.09270  0.90200  Biso   1.000  H
  H31      1.0000 0.39630  0.59270  0.59800  Biso   1.000  H
  H32      1.0000 0.10370  0.40730  0.09800  Biso   1.000  H
  C41      1.0000 0.46570  0.09530  0.48245  Biso   1.000  C
  C42      1.0000 0.03430  0.90470  0.98245  Biso   1.000  C
  C43      1.0000 0.96570  0.40470  0.51755  Biso   1.000  C
  C44      1.0000 0.53430  0.59530  0.01755  Biso   1.000  C
  H33      1.0000 0.46380  0.20520  0.49770  Biso   1.000  H
  H34      1.0000 0.03620  0.79480  0.99770  Biso   1.000  H
  H35      1.0000 0.96380  0.29480  0.50230  Biso   1.000  H
  H36      1.0000 0.53620  0.70520  0.00230  Biso   1.000  H
  C45      1.0000 0.61980  0.04700  0.45473  Biso   1.000  C
  C46      1.0000 0.88020  0.95300  0.95473  Biso   1.000  C
  C47      1.0000 0.11980  0.45300  0.54527  Biso   1.000  C
  C48      1.0000 0.38020  0.54700  0.04527  Biso   1.000  C
  H37      1.0000 0.72530  0.12400  0.45120  Biso   1.000  H
  H38      1.0000 0.77470  0.87600  0.95120  Biso   1.000  H
  H39      1.0000 0.22530  0.37600  0.54880  Biso   1.000  H
  H40      1.0000 0.27470  0.62400  0.04880  Biso   1.000  H
  C49      1.0000 0.31060  0.82550  0.46452  Biso   1.000  C
  C50      1.0000 0.18940  0.17450  0.96452  Biso   1.000  C
  C51      1.0000 0.81060  0.67450  0.53548  Biso   1.000  C
  C52      1.0000 0.68940  0.32550  0.03548  Biso   1.000  C
  H41      1.0000 0.20280  0.75150  0.46850  Biso   1.000  H
  H42      1.0000 0.29720  0.24850  0.96850  Biso   1.000  H
  H43      1.0000 0.70280  0.74850  0.53150  Biso   1.000  H
  H44      1.0000 0.79720  0.25150  0.03150  Biso   1.000  H
  C53      1.0000 0.16780  0.12510  0.25841  Biso   1.000  C
  C54      1.0000 0.33220  0.87490  0.75841  Biso   1.000  C
  C55      1.0000 0.66780  0.37490  0.74159  Biso   1.000  C
  C56      1.0000 0.83220  0.62510  0.24159  Biso   1.000  C
  H45      1.0000 0.15470  0.24220  0.24540  Biso   1.000  H
  H46      1.0000 0.34530  0.75780  0.74540  Biso   1.000  H
  H47      1.0000 0.65470  0.25780  0.75460  Biso   1.000  H
  H48      1.0000 0.84530  0.74220  0.25460  Biso   1.000  H
  H49      1.0000 0.04800  0.06120  0.25290  Biso   1.000  H
  H50      1.0000 0.45200  0.93880  0.75290  Biso   1.000  H
  H51      1.0000 0.54800  0.43880  0.74710  Biso   1.000  H
  H52      1.0000 0.95200  0.56120  0.24710  Biso   1.000  H
  H53      1.0000 0.27420  0.06610  0.24200  Biso   1.000  H
  H54      1.0000 0.22580  0.93390  0.74200  Biso   1.000  H
  H55      1.0000 0.77420  0.43390  0.75800  Biso   1.000  H
  H56      1.0000 0.72580  0.56610  0.25800  Biso   1.000  H
  O5       1.0000 0.71620  0.03260  0.21262  Biso   1.000  O
  O6       1.0000 0.78380  0.96740  0.71262  Biso   1.000  O
  O7       1.0000 0.21620  0.46740  0.78738  Biso   1.000  O
  O8       1.0000 0.28380  0.53260  0.28738  Biso   1.000  O
  C57      1.0000 0.65380  0.10980  0.24723  Biso   1.000  C
  C58      1.0000 0.84620  0.89020  0.74723  Biso   1.000  C
  C59      1.0000 0.15380  0.39020  0.75277  Biso   1.000  C
  C60      1.0000 0.34620  0.60980  0.25277  Biso   1.000  C
  C61      1.0000 0.24750  0.95640  0.32912  Biso   1.000  C
  C62      1.0000 0.25250  0.04360  0.82912  Biso   1.000  C
  C63      1.0000 0.74750  0.54360  0.67088  Biso   1.000  C
  C64      1.0000 0.75250  0.45640  0.17088  Biso   1.000  C
  H57      1.0000 0.36020  0.90950  0.31230  Biso   1.000  H
  H58      1.0000 0.13980  0.09050  0.81230  Biso   1.000  H
  H59      1.0000 0.86020  0.59050  0.68770  Biso   1.000  H
  H60      1.0000 0.63980  0.40950  0.18770  Biso   1.000  H
  H61      1.0000 0.13560  0.88270  0.32290  Biso   1.000  H
  H62      1.0000 0.36440  0.11730  0.82290  Biso   1.000  H
  H63      1.0000 0.63560  0.61730  0.67710  Biso   1.000  H
  H64      1.0000 0.86440  0.38270  0.17710  Biso   1.000  H
  H65      1.0000 0.27290  0.96020  0.36410  Biso   1.000  H
  H66      1.0000 0.22710  0.03980  0.86410  Biso   1.000  H
  H67      1.0000 0.77290  0.53980  0.63590  Biso   1.000  H
  H68      1.0000 0.72710  0.46020  0.13590  Biso   1.000  H
