data_image0
_cell_length_a       7.032
_cell_length_b       7.827
_cell_length_c       27.76
_cell_angle_alpha    90
_cell_angle_beta     90
_cell_angle_gamma    90

_symmetry_space_group_name_H-M    "P 1"
_symmetry_int_tables_number       1

loop_
  _symmetry_equiv_pos_as_xyz
  'x, y, z'

loop_
  _atom_site_label
  _atom_site_occupancy
  _atom_site_fract_x
  _atom_site_fract_y
  _atom_site_fract_z
  _atom_site_thermal_displace_type
  _atom_site_B_iso_or_equiv
  _atom_site_type_symbol
  Cu1      1.0000 0.43801  0.20595  0.17064  Biso   1.000  Cu
  Cu2      1.0000 0.93801  0.29405  0.82936  Biso   1.000  Cu
  Cu3      1.0000 0.56199  0.70595  0.32936  Biso   1.000  Cu
  Cu4      1.0000 0.06199  0.79405  0.67064  Biso   1.000  Cu
  O1       1.0000 0.64300  0.06380  0.14744  Biso   1.000  O
  O2       1.0000 0.14300  0.43620  0.85256  Biso   1.000  O
  O3       1.0000 0.35700  0.56380  0.35256  Biso   1.000  O
  O4       1.0000 0.85700  0.93620  0.64744  Biso   1.000  O
  O5       1.0000 0.71710  0.46020  0.28564  Biso   1.000  O
  O6       1.0000 0.21710  0.03980  0.71436  Biso   1.000  O
  O7       1.0000 0.28290  0.96020  0.21436  Biso   1.000  O
  O8       1.0000 0.78290  0.53980  0.78564  Biso   1.000  O
  N1       1.0000 0.20900  0.35980  0.18878  Biso   1.000  N
  N2       1.0000 0.70900  0.14020  0.81122  Biso   1.000  N
  N3       1.0000 0.79100  0.85980  0.31122  Biso   1.000  N
  N4       1.0000 0.29100  0.64020  0.68878  Biso   1.000  N
  C1       1.0000 0.17170  0.36860  0.24191  Biso   1.000  C
  C2       1.0000 0.67170  0.13140  0.75809  Biso   1.000  C
  C3       1.0000 0.82830  0.86860  0.25809  Biso   1.000  C
  C4       1.0000 0.32830  0.63140  0.74191  Biso   1.000  C
  H1       1.0000 0.14620  0.25360  0.25420  Biso   1.000  H
  H2       1.0000 0.64620  0.24640  0.74580  Biso   1.000  H
  H3       1.0000 0.85380  0.75360  0.24580  Biso   1.000  H
  H4       1.0000 0.35380  0.74640  0.75420  Biso   1.000  H
  H5       1.0000 0.06120  0.44190  0.24790  Biso   1.000  H
  H6       1.0000 0.56120  0.05810  0.75210  Biso   1.000  H
  H7       1.0000 0.93880  0.94190  0.25210  Biso   1.000  H
  H8       1.0000 0.43880  0.55810  0.74790  Biso   1.000  H
  H9       1.0000 0.28330  0.41610  0.25830  Biso   1.000  H
  H10      1.0000 0.78330  0.08390  0.74170  Biso   1.000  H
  H11      1.0000 0.71670  0.91610  0.24170  Biso   1.000  H
  H12      1.0000 0.21670  0.58390  0.75830  Biso   1.000  H
  N5       1.0000 0.27720  0.13130  0.11737  Biso   1.000  N
  N6       1.0000 0.77720  0.36870  0.88263  Biso   1.000  N
  N7       1.0000 0.72280  0.63130  0.38263  Biso   1.000  N
  N8       1.0000 0.22280  0.86870  0.61737  Biso   1.000  N
  N9       1.0000 0.60080  0.30860  0.21839  Biso   1.000  N
  N10      1.0000 0.10080  0.19140  0.78161  Biso   1.000  N
  N11      1.0000 0.39920  0.80860  0.28161  Biso   1.000  N
  N12      1.0000 0.89920  0.69140  0.71839  Biso   1.000  N
  C5       1.0000 0.65590  0.38490  0.25152  Biso   1.000  C
  C6       1.0000 0.15590  0.11510  0.74848  Biso   1.000  C
  C7       1.0000 0.34410  0.88490  0.24848  Biso   1.000  C
  C8       1.0000 0.84410  0.61510  0.75152  Biso   1.000  C
  C9       1.0000 0.24710  0.53470  0.17028  Biso   1.000  C
  C10      1.0000 0.74710  0.96530  0.82972  Biso   1.000  C
  C11      1.0000 0.75290  0.03470  0.32972  Biso   1.000  C
  C12      1.0000 0.25290  0.46530  0.67028  Biso   1.000  C
  H13      1.0000 0.35820  0.58240  0.18680  Biso   1.000  H
  H14      1.0000 0.85820  0.91760  0.81320  Biso   1.000  H
  H15      1.0000 0.64180  0.08240  0.31320  Biso   1.000  H
  H16      1.0000 0.14180  0.41760  0.68680  Biso   1.000  H
  H17      1.0000 0.13620  0.60750  0.17630  Biso   1.000  H
  H18      1.0000 0.63620  0.89250  0.82370  Biso   1.000  H
  H19      1.0000 0.86380  0.10750  0.32370  Biso   1.000  H
  H20      1.0000 0.36380  0.39250  0.67630  Biso   1.000  H
  H21      1.0000 0.27190  0.52950  0.13560  Biso   1.000  H
  H22      1.0000 0.77190  0.97050  0.86440  Biso   1.000  H
  H23      1.0000 0.72810  0.02950  0.36440  Biso   1.000  H
  H24      1.0000 0.22810  0.47050  0.63560  Biso   1.000  H
  C13      1.0000 0.04290  0.28390  0.16405  Biso   1.000  C
  C14      1.0000 0.54290  0.21610  0.83595  Biso   1.000  C
  C15      1.0000 0.95710  0.78390  0.33595  Biso   1.000  C
  C16      1.0000 0.45710  0.71610  0.66405  Biso   1.000  C
  H25      1.0000 0.93880  0.36880  0.16220  Biso   1.000  H
  H26      1.0000 0.43880  0.13120  0.83780  Biso   1.000  H
  H27      1.0000 0.06120  0.86880  0.33780  Biso   1.000  H
  H28      1.0000 0.56120  0.63120  0.66220  Biso   1.000  H
  H29      1.0000 0.99640  0.18410  0.18250  Biso   1.000  H
  H30      1.0000 0.49640  0.31590  0.81750  Biso   1.000  H
  H31      1.0000 0.00360  0.68410  0.31750  Biso   1.000  H
  H32      1.0000 0.50360  0.81590  0.68250  Biso   1.000  H
  C17      1.0000 0.09850  0.22830  0.11375  Biso   1.000  C
  C18      1.0000 0.59850  0.27170  0.88625  Biso   1.000  C
  C19      1.0000 0.90150  0.72830  0.38625  Biso   1.000  C
  C20      1.0000 0.40150  0.77170  0.61375  Biso   1.000  C
  H33      1.0000 0.99750  0.15590  0.09960  Biso   1.000  H
  H34      1.0000 0.49750  0.34410  0.90040  Biso   1.000  H
  H35      1.0000 0.00250  0.65590  0.40040  Biso   1.000  H
  H36      1.0000 0.50250  0.84410  0.59960  Biso   1.000  H
  H37      1.0000 0.11640  0.32950  0.09280  Biso   1.000  H
  H38      1.0000 0.61640  0.17050  0.90720  Biso   1.000  H
  H39      1.0000 0.88360  0.82950  0.40720  Biso   1.000  H
  H40      1.0000 0.38360  0.67050  0.59280  Biso   1.000  H
  C21      1.0000 0.30090  0.99610  0.09147  Biso   1.000  C
  C22      1.0000 0.80090  0.50390  0.90853  Biso   1.000  C
  C23      1.0000 0.69910  0.49610  0.40853  Biso   1.000  C
  C24      1.0000 0.19910  0.00390  0.59147  Biso   1.000  C
  H41      1.0000 0.20200  0.96690  0.06960  Biso   1.000  H
  H42      1.0000 0.70200  0.53310  0.93040  Biso   1.000  H
  H43      1.0000 0.79800  0.46690  0.43040  Biso   1.000  H
  H44      1.0000 0.29800  0.03310  0.56960  Biso   1.000  H
  C25      1.0000 0.46470  0.88550  0.09288  Biso   1.000  C
  C26      1.0000 0.96470  0.61450  0.90712  Biso   1.000  C
  C27      1.0000 0.53530  0.38550  0.40712  Biso   1.000  C
  C28      1.0000 0.03530  0.11450  0.59288  Biso   1.000  C
  C29      1.0000 0.62630  0.92820  0.12115  Biso   1.000  C
  C30      1.0000 0.12630  0.57180  0.87885  Biso   1.000  C
  C31      1.0000 0.37370  0.42820  0.37885  Biso   1.000  C
  C32      1.0000 0.87370  0.07180  0.62115  Biso   1.000  C
  C33      1.0000 0.78570  0.81160  0.12115  Biso   1.000  C
  C34      1.0000 0.28570  0.68840  0.87885  Biso   1.000  C
  C35      1.0000 0.21430  0.31160  0.37885  Biso   1.000  C
  C36      1.0000 0.71430  0.18840  0.62115  Biso   1.000  C
  H45      1.0000 0.89690  0.84100  0.13870  Biso   1.000  H
  H46      1.0000 0.39690  0.65900  0.86130  Biso   1.000  H
  H47      1.0000 0.10310  0.34100  0.36130  Biso   1.000  H
  H48      1.0000 0.60310  0.15900  0.63870  Biso   1.000  H
  C37      1.0000 0.78100  0.66160  0.09689  Biso   1.000  C
  C38      1.0000 0.28100  0.83840  0.90311  Biso   1.000  C
  C39      1.0000 0.21900  0.16160  0.40311  Biso   1.000  C
  C40      1.0000 0.71900  0.33840  0.59689  Biso   1.000  C
  H49      1.0000 0.88800  0.58770  0.09830  Biso   1.000  H
  H50      1.0000 0.38800  0.91230  0.90170  Biso   1.000  H
  H51      1.0000 0.11200  0.08770  0.40170  Biso   1.000  H
  H52      1.0000 0.61200  0.41230  0.59830  Biso   1.000  H
  C41      1.0000 0.61880  0.61180  0.06909  Biso   1.000  C
  C42      1.0000 0.11880  0.88820  0.93091  Biso   1.000  C
  C43      1.0000 0.38120  0.11180  0.43091  Biso   1.000  C
  C44      1.0000 0.88120  0.38820  0.56909  Biso   1.000  C
  C45      1.0000 0.61480  0.45210  0.04524  Biso   1.000  C
  C46      1.0000 0.11480  0.04790  0.95476  Biso   1.000  C
  C47      1.0000 0.38520  0.95210  0.45476  Biso   1.000  C
  C48      1.0000 0.88520  0.54790  0.54524  Biso   1.000  C
  H53      1.0000 0.71940  0.37620  0.04850  Biso   1.000  H
  H54      1.0000 0.21940  0.12380  0.95150  Biso   1.000  H
  H55      1.0000 0.28060  0.87620  0.45150  Biso   1.000  H
  H56      1.0000 0.78060  0.62380  0.54850  Biso   1.000  H
  C49      1.0000 0.46190  0.40520  0.01744  Biso   1.000  C
  C50      1.0000 0.96190  0.09480  0.98256  Biso   1.000  C
  C51      1.0000 0.53810  0.90520  0.48256  Biso   1.000  C
  C52      1.0000 0.03810  0.59480  0.51744  Biso   1.000  C
  H57      1.0000 0.45970  0.29680  0.00200  Biso   1.000  H
  H58      1.0000 0.95970  0.20320  0.99800  Biso   1.000  H
  H59      1.0000 0.54030  0.79680  0.49800  Biso   1.000  H
  H60      1.0000 0.04030  0.70320  0.50200  Biso   1.000  H
  C53      1.0000 0.31040  0.51800  0.01211  Biso   1.000  C
  C54      1.0000 0.81040  0.98200  0.98789  Biso   1.000  C
  C55      1.0000 0.68960  0.01800  0.48789  Biso   1.000  C
  C56      1.0000 0.18960  0.48200  0.51211  Biso   1.000  C
  H61      1.0000 0.20670  0.48770  0.99190  Biso   1.000  H
  H62      1.0000 0.70670  0.01230  0.00810  Biso   1.000  H
  H63      1.0000 0.79330  0.98770  0.50810  Biso   1.000  H
  H64      1.0000 0.29330  0.51230  0.49190  Biso   1.000  H
  C57      1.0000 0.30840  0.67280  0.03562  Biso   1.000  C
  C58      1.0000 0.80840  0.82720  0.96438  Biso   1.000  C
  C59      1.0000 0.69160  0.17280  0.46438  Biso   1.000  C
  C60      1.0000 0.19160  0.32720  0.53562  Biso   1.000  C
  H65      1.0000 0.20180  0.74610  0.03180  Biso   1.000  H
  H66      1.0000 0.70180  0.75390  0.96820  Biso   1.000  H
  H67      1.0000 0.79820  0.24610  0.46820  Biso   1.000  H
  H68      1.0000 0.29820  0.25390  0.53180  Biso   1.000  H
  C61      1.0000 0.46230  0.72630  0.06562  Biso   1.000  C
  C62      1.0000 0.96230  0.77370  0.93438  Biso   1.000  C
  C63      1.0000 0.53770  0.22630  0.43438  Biso   1.000  C
  C64      1.0000 0.03770  0.27370  0.56562  Biso   1.000  C
