data_image0
_cell_length_a       20.216
_cell_length_b       9.5146
_cell_length_c       11.4262
_cell_angle_alpha    90
_cell_angle_beta     117.046
_cell_angle_gamma    90

_symmetry_space_group_name_H-M    "P 1"
_symmetry_int_tables_number       1

loop_
  _symmetry_equiv_pos_as_xyz
  'x, y, z'

loop_
  _atom_site_label
  _atom_site_occupancy
  _atom_site_fract_x
  _atom_site_fract_y
  _atom_site_fract_z
  _atom_site_thermal_displace_type
  _atom_site_B_iso_or_equiv
  _atom_site_type_symbol
  Cu1      1.0000 0.00000  0.50000  0.00000  Biso   1.000  Cu
  Cu2      1.0000 0.00000  0.50000  0.50000  Biso   1.000  Cu
  Cu3      1.0000 0.50000  0.00000  0.00000  Biso   1.000  Cu
  Cu4      1.0000 0.50000  0.00000  0.50000  Biso   1.000  Cu
  N1       1.0000 0.08545  0.39550  0.98960  Biso   1.000  N
  N2       1.0000 0.91455  0.39550  0.51040  Biso   1.000  N
  N3       1.0000 0.58545  0.89550  0.98960  Biso   1.000  N
  N4       1.0000 0.41455  0.89550  0.51040  Biso   1.000  N
  N5       1.0000 0.91455  0.60450  0.01040  Biso   1.000  N
  N6       1.0000 0.08545  0.60450  0.48960  Biso   1.000  N
  N7       1.0000 0.41455  0.10450  0.01040  Biso   1.000  N
  N8       1.0000 0.58545  0.10450  0.48960  Biso   1.000  N
  N9       1.0000 0.93069  0.01670  0.29110  Biso   1.000  N
  N10      1.0000 0.06931  0.01670  0.20890  Biso   1.000  N
  N11      1.0000 0.43069  0.51670  0.29110  Biso   1.000  N
  N12      1.0000 0.56931  0.51670  0.20890  Biso   1.000  N
  N13      1.0000 0.06931  0.98330  0.70890  Biso   1.000  N
  N14      1.0000 0.93069  0.98330  0.79110  Biso   1.000  N
  N15      1.0000 0.56931  0.48330  0.70890  Biso   1.000  N
  N16      1.0000 0.43069  0.48330  0.79110  Biso   1.000  N
  O1       1.0000 0.99240  0.35010  0.10700  Biso   1.000  O
  O2       1.0000 0.00760  0.35010  0.39300  Biso   1.000  O
  O3       1.0000 0.49240  0.85010  0.10700  Biso   1.000  O
  O4       1.0000 0.50760  0.85010  0.39300  Biso   1.000  O
  O5       1.0000 0.00760  0.64990  0.89300  Biso   1.000  O
  O6       1.0000 0.99240  0.64990  0.60700  Biso   1.000  O
  O7       1.0000 0.50760  0.14990  0.89300  Biso   1.000  O
  O8       1.0000 0.49240  0.14990  0.60700  Biso   1.000  O
  O9       1.0000 0.89301  0.30070  0.91990  Biso   1.000  O
  O10      1.0000 0.10699  0.30070  0.58010  Biso   1.000  O
  O11      1.0000 0.39301  0.80070  0.91990  Biso   1.000  O
  O12      1.0000 0.60699  0.80070  0.58010  Biso   1.000  O
  O13      1.0000 0.10699  0.69930  0.08010  Biso   1.000  O
  O14      1.0000 0.89301  0.69930  0.41990  Biso   1.000  O
  O15      1.0000 0.60699  0.19930  0.08010  Biso   1.000  O
  O16      1.0000 0.39301  0.19930  0.41990  Biso   1.000  O
  C1       1.0000 0.93291  0.27980  0.03920  Biso   1.000  C
  C2       1.0000 0.06709  0.27980  0.46080  Biso   1.000  C
  C3       1.0000 0.43291  0.77980  0.03920  Biso   1.000  C
  C4       1.0000 0.56709  0.77980  0.46080  Biso   1.000  C
  C5       1.0000 0.06709  0.72020  0.96080  Biso   1.000  C
  C6       1.0000 0.93291  0.72020  0.53920  Biso   1.000  C
  C7       1.0000 0.56709  0.22020  0.96080  Biso   1.000  C
  C8       1.0000 0.43291  0.22020  0.53920  Biso   1.000  C
  C9       1.0000 0.90946  0.17590  0.11200  Biso   1.000  C
  C10      1.0000 0.09054  0.17590  0.38800  Biso   1.000  C
  C11      1.0000 0.40946  0.67590  0.11200  Biso   1.000  C
  C12      1.0000 0.59054  0.67590  0.38800  Biso   1.000  C
  C13      1.0000 0.09054  0.82410  0.88800  Biso   1.000  C
  C14      1.0000 0.90946  0.82410  0.61200  Biso   1.000  C
  C15      1.0000 0.59054  0.32410  0.88800  Biso   1.000  C
  C16      1.0000 0.40946  0.32410  0.61200  Biso   1.000  C
  C17      1.0000 0.83352  0.15600  0.06690  Biso   1.000  C
  C18      1.0000 0.16648  0.15600  0.43310  Biso   1.000  C
  C19      1.0000 0.33352  0.65600  0.06690  Biso   1.000  C
  C20      1.0000 0.66648  0.65600  0.43310  Biso   1.000  C
  C21      1.0000 0.16648  0.84400  0.93310  Biso   1.000  C
  C22      1.0000 0.83352  0.84400  0.56690  Biso   1.000  C
  C23      1.0000 0.66648  0.34400  0.93310  Biso   1.000  C
  C24      1.0000 0.33352  0.34400  0.56690  Biso   1.000  C
  H1       1.0000 0.80050  0.20030  0.98980  Biso   1.000  H
  H2       1.0000 0.19950  0.20030  0.51020  Biso   1.000  H
  H3       1.0000 0.30050  0.70030  0.98980  Biso   1.000  H
  H4       1.0000 0.69950  0.70030  0.51020  Biso   1.000  H
  H5       1.0000 0.19950  0.79970  0.01020  Biso   1.000  H
  H6       1.0000 0.80050  0.79970  0.48980  Biso   1.000  H
  H7       1.0000 0.69950  0.29970  0.01020  Biso   1.000  H
  H8       1.0000 0.30050  0.29970  0.48980  Biso   1.000  H
  C25      1.0000 0.80577  0.07240  0.13310  Biso   1.000  C
  C26      1.0000 0.19423  0.07240  0.36690  Biso   1.000  C
  C27      1.0000 0.30577  0.57240  0.13310  Biso   1.000  C
  C28      1.0000 0.69423  0.57240  0.36690  Biso   1.000  C
  C29      1.0000 0.19423  0.92760  0.86690  Biso   1.000  C
  C30      1.0000 0.80577  0.92760  0.63310  Biso   1.000  C
  C31      1.0000 0.69423  0.42760  0.86690  Biso   1.000  C
  C32      1.0000 0.30577  0.42760  0.63310  Biso   1.000  C
  H9       1.0000 0.75480  0.06280  0.10240  Biso   1.000  H
  H10      1.0000 0.24520  0.06280  0.39760  Biso   1.000  H
  H11      1.0000 0.25480  0.56280  0.10240  Biso   1.000  H
  H12      1.0000 0.74520  0.56280  0.39760  Biso   1.000  H
  H13      1.0000 0.24520  0.93720  0.89760  Biso   1.000  H
  H14      1.0000 0.75480  0.93720  0.60240  Biso   1.000  H
  H15      1.0000 0.74520  0.43720  0.89760  Biso   1.000  H
  H16      1.0000 0.25480  0.43720  0.60240  Biso   1.000  H
  C33      1.0000 0.85460  0.00310  0.24550  Biso   1.000  C
  C34      1.0000 0.14540  0.00310  0.25450  Biso   1.000  C
  C35      1.0000 0.35460  0.50310  0.24550  Biso   1.000  C
  C36      1.0000 0.64540  0.50310  0.25450  Biso   1.000  C
  C37      1.0000 0.14540  0.99690  0.75450  Biso   1.000  C
  C38      1.0000 0.85460  0.99690  0.74550  Biso   1.000  C
  C39      1.0000 0.64540  0.49690  0.75450  Biso   1.000  C
  C40      1.0000 0.35460  0.49690  0.74550  Biso   1.000  C
  H17      1.0000 0.83640  0.94690  0.29100  Biso   1.000  H
  H18      1.0000 0.16360  0.94690  0.20900  Biso   1.000  H
  H19      1.0000 0.33640  0.44690  0.29100  Biso   1.000  H
  H20      1.0000 0.66360  0.44690  0.20900  Biso   1.000  H
  H21      1.0000 0.16360  0.05310  0.70900  Biso   1.000  H
  H22      1.0000 0.83640  0.05310  0.79100  Biso   1.000  H
  H23      1.0000 0.66360  0.55310  0.70900  Biso   1.000  H
  H24      1.0000 0.33640  0.55310  0.79100  Biso   1.000  H
  C41      1.0000 0.95871  0.10600  0.22540  Biso   1.000  C
  C42      1.0000 0.04129  0.10600  0.27460  Biso   1.000  C
  C43      1.0000 0.45871  0.60600  0.22540  Biso   1.000  C
  C44      1.0000 0.54129  0.60600  0.27460  Biso   1.000  C
  C45      1.0000 0.04129  0.89400  0.77460  Biso   1.000  C
  C46      1.0000 0.95871  0.89400  0.72540  Biso   1.000  C
  C47      1.0000 0.54129  0.39400  0.77460  Biso   1.000  C
  C48      1.0000 0.45871  0.39400  0.72540  Biso   1.000  C
  C49      1.0000 0.10131  0.40810  0.88890  Biso   1.000  C
  C50      1.0000 0.89869  0.40810  0.61110  Biso   1.000  C
  C51      1.0000 0.60131  0.90810  0.88890  Biso   1.000  C
  C52      1.0000 0.39869  0.90810  0.61110  Biso   1.000  C
  C53      1.0000 0.89869  0.59190  0.11110  Biso   1.000  C
  C54      1.0000 0.10131  0.59190  0.38890  Biso   1.000  C
  C55      1.0000 0.39869  0.09190  0.11110  Biso   1.000  C
  C56      1.0000 0.60131  0.09190  0.38890  Biso   1.000  C
  H25      1.0000 0.06850  0.45820  0.81540  Biso   1.000  H
  H26      1.0000 0.93150  0.45820  0.68460  Biso   1.000  H
  H27      1.0000 0.56850  0.95820  0.81540  Biso   1.000  H
  H28      1.0000 0.43150  0.95820  0.68460  Biso   1.000  H
  H29      1.0000 0.93150  0.54180  0.18460  Biso   1.000  H
  H30      1.0000 0.06850  0.54180  0.31540  Biso   1.000  H
  H31      1.0000 0.43150  0.04180  0.18460  Biso   1.000  H
  H32      1.0000 0.56850  0.04180  0.31540  Biso   1.000  H
  C57      1.0000 0.16362  0.35100  0.88780  Biso   1.000  C
  C58      1.0000 0.83638  0.35100  0.61220  Biso   1.000  C
  C59      1.0000 0.66362  0.85100  0.88780  Biso   1.000  C
  C60      1.0000 0.33638  0.85100  0.61220  Biso   1.000  C
  C61      1.0000 0.83638  0.64900  0.11220  Biso   1.000  C
  C62      1.0000 0.16362  0.64900  0.38780  Biso   1.000  C
  C63      1.0000 0.33638  0.14900  0.11220  Biso   1.000  C
  C64      1.0000 0.66362  0.14900  0.38780  Biso   1.000  C
  H33      1.0000 0.17140  0.36100  0.81400  Biso   1.000  H
  H34      1.0000 0.82860  0.36100  0.68600  Biso   1.000  H
  H35      1.0000 0.67140  0.86100  0.81400  Biso   1.000  H
  H36      1.0000 0.32860  0.86100  0.68600  Biso   1.000  H
  H37      1.0000 0.82860  0.63900  0.18600  Biso   1.000  H
  H38      1.0000 0.17140  0.63900  0.31400  Biso   1.000  H
  H39      1.0000 0.32860  0.13900  0.18600  Biso   1.000  H
  H40      1.0000 0.67140  0.13900  0.31400  Biso   1.000  H
  C65      1.0000 0.21504  0.27830  0.99730  Biso   1.000  C
  C66      1.0000 0.78496  0.27830  0.50270  Biso   1.000  C
  C67      1.0000 0.71504  0.77830  0.99730  Biso   1.000  C
  C68      1.0000 0.28496  0.77830  0.50270  Biso   1.000  C
  C69      1.0000 0.78496  0.72170  0.00270  Biso   1.000  C
  C70      1.0000 0.21504  0.72170  0.49730  Biso   1.000  C
  C71      1.0000 0.28496  0.22170  0.00270  Biso   1.000  C
  C72      1.0000 0.71504  0.22170  0.49730  Biso   1.000  C
  C73      1.0000 0.19839  0.26630  0.10160  Biso   1.000  C
  C74      1.0000 0.80161  0.26630  0.39840  Biso   1.000  C
  C75      1.0000 0.69839  0.76630  0.10160  Biso   1.000  C
  C76      1.0000 0.30161  0.76630  0.39840  Biso   1.000  C
  C77      1.0000 0.80161  0.73370  0.89840  Biso   1.000  C
  C78      1.0000 0.19839  0.73370  0.60160  Biso   1.000  C
  C79      1.0000 0.30161  0.23370  0.89840  Biso   1.000  C
  C80      1.0000 0.69839  0.23370  0.60160  Biso   1.000  C
  H41      1.0000 0.23090  0.21910  0.17720  Biso   1.000  H
  H42      1.0000 0.76910  0.21910  0.32280  Biso   1.000  H
  H43      1.0000 0.73090  0.71910  0.17720  Biso   1.000  H
  H44      1.0000 0.26910  0.71910  0.32280  Biso   1.000  H
  H45      1.0000 0.76910  0.78090  0.82280  Biso   1.000  H
  H46      1.0000 0.23090  0.78090  0.67720  Biso   1.000  H
  H47      1.0000 0.26910  0.28090  0.82280  Biso   1.000  H
  H48      1.0000 0.73090  0.28090  0.67720  Biso   1.000  H
  C81      1.0000 0.13380  0.32380  0.09450  Biso   1.000  C
  C82      1.0000 0.86620  0.32380  0.40550  Biso   1.000  C
  C83      1.0000 0.63380  0.82380  0.09450  Biso   1.000  C
  C84      1.0000 0.36620  0.82380  0.40550  Biso   1.000  C
  C85      1.0000 0.86620  0.67620  0.90550  Biso   1.000  C
  C86      1.0000 0.13380  0.67620  0.59450  Biso   1.000  C
  C87      1.0000 0.36620  0.17620  0.90550  Biso   1.000  C
  C88      1.0000 0.63380  0.17620  0.59450  Biso   1.000  C
  H49      1.0000 0.12360  0.31210  0.16550  Biso   1.000  H
  H50      1.0000 0.87640  0.31210  0.33450  Biso   1.000  H
  H51      1.0000 0.62360  0.81210  0.16550  Biso   1.000  H
  H52      1.0000 0.37640  0.81210  0.33450  Biso   1.000  H
  H53      1.0000 0.87640  0.68790  0.83450  Biso   1.000  H
  H54      1.0000 0.12360  0.68790  0.66550  Biso   1.000  H
  H55      1.0000 0.37640  0.18790  0.83450  Biso   1.000  H
  H56      1.0000 0.62360  0.18790  0.66550  Biso   1.000  H
