data_image0
_cell_length_a       12.82
_cell_length_b       14.062
_cell_length_c       14.942
_cell_angle_alpha    90
_cell_angle_beta     112.76
_cell_angle_gamma    90

_symmetry_space_group_name_H-M    "P 1"
_symmetry_int_tables_number       1

loop_
  _symmetry_equiv_pos_as_xyz
  'x, y, z'

loop_
  _atom_site_label
  _atom_site_occupancy
  _atom_site_fract_x
  _atom_site_fract_y
  _atom_site_fract_z
  _atom_site_thermal_displace_type
  _atom_site_B_iso_or_equiv
  _atom_site_type_symbol
  Cu1      1.0000 0.80063  0.88768  0.22089  Biso   1.000  Cu
  Cu2      1.0000 0.69937  0.38768  0.27911  Biso   1.000  Cu
  Cu3      1.0000 0.19937  0.11232  0.77911  Biso   1.000  Cu
  Cu4      1.0000 0.30063  0.61232  0.72089  Biso   1.000  Cu
  N1       1.0000 0.43280  0.12960  0.28440  Biso   1.000  N
  N2       1.0000 0.06720  0.62960  0.21560  Biso   1.000  N
  N3       1.0000 0.56720  0.87040  0.71560  Biso   1.000  N
  N4       1.0000 0.93280  0.37040  0.78440  Biso   1.000  N
  N5       1.0000 0.61630  0.99620  0.45190  Biso   1.000  N
  N6       1.0000 0.88370  0.49620  0.04810  Biso   1.000  N
  N7       1.0000 0.38370  0.00380  0.54810  Biso   1.000  N
  N8       1.0000 0.11630  0.50380  0.95190  Biso   1.000  N
  N9       1.0000 0.87220  0.99350  0.16840  Biso   1.000  N
  N10      1.0000 0.62780  0.49350  0.33160  Biso   1.000  N
  N11      1.0000 0.12780  0.00650  0.83160  Biso   1.000  N
  N12      1.0000 0.37220  0.50650  0.66840  Biso   1.000  N
  N13      1.0000 0.94170  0.13570  0.16840  Biso   1.000  N
  N14      1.0000 0.55830  0.63570  0.33160  Biso   1.000  N
  N15      1.0000 0.05830  0.86430  0.83160  Biso   1.000  N
  N16      1.0000 0.44170  0.36430  0.66840  Biso   1.000  N
  N17      1.0000 0.06560  0.18910  0.49050  Biso   1.000  N
  N18      1.0000 0.43440  0.68910  0.00950  Biso   1.000  N
  N19      1.0000 0.93440  0.81090  0.50950  Biso   1.000  N
  N20      1.0000 0.56560  0.31090  0.99050  Biso   1.000  N
  N21      1.0000 0.12310  0.16880  0.64800  Biso   1.000  N
  N22      1.0000 0.37690  0.66880  0.85200  Biso   1.000  N
  N23      1.0000 0.87690  0.83120  0.35200  Biso   1.000  N
  N24      1.0000 0.62310  0.33120  0.14800  Biso   1.000  N
  O1       1.0000 0.60810  0.91750  0.13350  Biso   1.000  O
  O2       1.0000 0.89190  0.41750  0.36650  Biso   1.000  O
  O3       1.0000 0.39190  0.08250  0.86650  Biso   1.000  O
  O4       1.0000 0.10810  0.58250  0.63350  Biso   1.000  O
  O5       1.0000 0.71760  0.97610  0.27180  Biso   1.000  O
  O6       1.0000 0.78240  0.47610  0.22820  Biso   1.000  O
  O7       1.0000 0.28240  0.02390  0.72820  Biso   1.000  O
  O8       1.0000 0.21760  0.52390  0.77180  Biso   1.000  O
  O9       1.0000 0.78570  0.20840  0.31840  Biso   1.000  O
  O10      1.0000 0.71430  0.70840  0.18160  Biso   1.000  O
  O11      1.0000 0.21430  0.79160  0.68160  Biso   1.000  O
  O12      1.0000 0.28570  0.29160  0.81840  Biso   1.000  O
  O13      1.0000 0.65850  0.28890  0.35130  Biso   1.000  O
  O14      1.0000 0.84150  0.78890  0.14870  Biso   1.000  O
  O15      1.0000 0.34150  0.71110  0.64870  Biso   1.000  O
  O16      1.0000 0.15850  0.21110  0.85130  Biso   1.000  O
  O17      1.0000 0.92320  0.77780  0.99810  Biso   1.000  O
  O18      1.0000 0.57680  0.27780  0.50190  Biso   1.000  O
  O19      1.0000 0.07680  0.22220  0.00190  Biso   1.000  O
  O20      1.0000 0.42320  0.72220  0.49810  Biso   1.000  O
  C1       1.0000 0.62040  0.96880  0.20390  Biso   1.000  C
  C2       1.0000 0.87960  0.46880  0.29610  Biso   1.000  C
  C3       1.0000 0.37960  0.03120  0.79610  Biso   1.000  C
  C4       1.0000 0.12040  0.53120  0.70390  Biso   1.000  C
  C5       1.0000 0.52280  0.02540  0.20770  Biso   1.000  C
  C6       1.0000 0.97720  0.52540  0.29230  Biso   1.000  C
  C7       1.0000 0.47720  0.97460  0.79230  Biso   1.000  C
  C8       1.0000 0.02280  0.47460  0.70770  Biso   1.000  C
  C9       1.0000 0.42800  0.03240  0.12130  Biso   1.000  C
  C10      1.0000 0.07200  0.53240  0.37870  Biso   1.000  C
  C11      1.0000 0.57200  0.96760  0.87870  Biso   1.000  C
  C12      1.0000 0.92800  0.46760  0.62130  Biso   1.000  C
  H1       1.0000 0.42600  0.99870  0.06720  Biso   1.000  H
  H2       1.0000 0.07400  0.49870  0.43280  Biso   1.000  H
  H3       1.0000 0.57400  0.00130  0.93280  Biso   1.000  H
  H4       1.0000 0.92600  0.50130  0.56720  Biso   1.000  H
  C13      1.0000 0.33700  0.08830  0.11440  Biso   1.000  C
  C14      1.0000 0.16300  0.58830  0.38560  Biso   1.000  C
  C15      1.0000 0.66300  0.91170  0.88560  Biso   1.000  C
  C16      1.0000 0.83700  0.41170  0.61440  Biso   1.000  C
  H5       1.0000 0.27490  0.09340  0.05580  Biso   1.000  H
  H6       1.0000 0.22510  0.59340  0.44420  Biso   1.000  H
  H7       1.0000 0.72510  0.90660  0.94420  Biso   1.000  H
  H8       1.0000 0.77490  0.40660  0.55580  Biso   1.000  H
  C17      1.0000 0.33910  0.13650  0.19500  Biso   1.000  C
  C18      1.0000 0.16090  0.63650  0.30500  Biso   1.000  C
  C19      1.0000 0.66090  0.86350  0.80500  Biso   1.000  C
  C20      1.0000 0.83910  0.36350  0.69500  Biso   1.000  C
  H9       1.0000 0.27780  0.17430  0.19060  Biso   1.000  H
  H10      1.0000 0.22220  0.67430  0.30940  Biso   1.000  H
  H11      1.0000 0.72220  0.82570  0.80940  Biso   1.000  H
  H12      1.0000 0.77780  0.32570  0.69060  Biso   1.000  H
  C21      1.0000 0.52560  0.07310  0.29050  Biso   1.000  C
  C22      1.0000 0.97440  0.57310  0.20950  Biso   1.000  C
  C23      1.0000 0.47440  0.92690  0.70950  Biso   1.000  C
  C24      1.0000 0.02560  0.42690  0.79050  Biso   1.000  C
  C25      1.0000 0.61980  0.06900  0.38860  Biso   1.000  C
  C26      1.0000 0.88020  0.56900  0.11140  Biso   1.000  C
  C27      1.0000 0.38020  0.93100  0.61140  Biso   1.000  C
  C28      1.0000 0.11980  0.43100  0.88860  Biso   1.000  C
  C29      1.0000 0.70050  0.99160  0.54500  Biso   1.000  C
  C30      1.0000 0.79950  0.49160  0.95500  Biso   1.000  C
  C31      1.0000 0.29950  0.00840  0.45500  Biso   1.000  C
  C32      1.0000 0.20050  0.50840  0.04500  Biso   1.000  C
  H13      1.0000 0.69800  0.94360  0.58700  Biso   1.000  H
  H14      1.0000 0.80200  0.44360  0.91300  Biso   1.000  H
  H15      1.0000 0.30200  0.05640  0.41300  Biso   1.000  H
  H16      1.0000 0.19800  0.55640  0.08700  Biso   1.000  H
  C33      1.0000 0.78670  0.05640  0.57560  Biso   1.000  C
  C34      1.0000 0.71330  0.55640  0.92440  Biso   1.000  C
  C35      1.0000 0.21330  0.94360  0.42440  Biso   1.000  C
  C36      1.0000 0.28670  0.44360  0.07560  Biso   1.000  C
  H17      1.0000 0.84240  0.05230  0.63790  Biso   1.000  H
  H18      1.0000 0.65760  0.55230  0.86210  Biso   1.000  H
  H19      1.0000 0.15760  0.94770  0.36210  Biso   1.000  H
  H20      1.0000 0.34240  0.44770  0.13790  Biso   1.000  H
  C37      1.0000 0.79060  0.12780  0.51380  Biso   1.000  C
  C38      1.0000 0.70940  0.62780  0.98620  Biso   1.000  C
  C39      1.0000 0.20940  0.87220  0.48620  Biso   1.000  C
  C40      1.0000 0.29060  0.37220  0.01380  Biso   1.000  C
  H21      1.0000 0.84970  0.17150  0.53440  Biso   1.000  H
  H22      1.0000 0.65030  0.67150  0.96560  Biso   1.000  H
  H23      1.0000 0.15030  0.82850  0.46560  Biso   1.000  H
  H24      1.0000 0.34970  0.32850  0.03440  Biso   1.000  H
  C41      1.0000 0.70760  0.13530  0.42130  Biso   1.000  C
  C42      1.0000 0.79240  0.63530  0.07870  Biso   1.000  C
  C43      1.0000 0.29240  0.86470  0.57870  Biso   1.000  C
  C44      1.0000 0.20760  0.36470  0.92130  Biso   1.000  C
  C45      1.0000 0.71880  0.21520  0.35700  Biso   1.000  C
  C46      1.0000 0.78120  0.71520  0.14300  Biso   1.000  C
  C47      1.0000 0.28120  0.78480  0.64300  Biso   1.000  C
  C48      1.0000 0.21880  0.28480  0.85700  Biso   1.000  C
  C49      1.0000 0.86280  0.08460  0.18370  Biso   1.000  C
  C50      1.0000 0.63720  0.58460  0.31630  Biso   1.000  C
  C51      1.0000 0.13720  0.91540  0.81630  Biso   1.000  C
  C52      1.0000 0.36280  0.41540  0.68370  Biso   1.000  C
  H25      1.0000 0.80770  0.11010  0.20290  Biso   1.000  H
  H26      1.0000 0.69230  0.61010  0.29710  Biso   1.000  H
  H27      1.0000 0.19230  0.88990  0.79710  Biso   1.000  H
  H28      1.0000 0.30770  0.38990  0.70290  Biso   1.000  H
  C53      1.0000 0.96190  0.98790  0.14020  Biso   1.000  C
  C54      1.0000 0.53810  0.48790  0.35980  Biso   1.000  C
  C55      1.0000 0.03810  0.01210  0.85980  Biso   1.000  C
  C56      1.0000 0.46190  0.51210  0.64020  Biso   1.000  C
  H29      1.0000 0.98900  0.93210  0.12350  Biso   1.000  H
  H30      1.0000 0.51100  0.43210  0.37650  Biso   1.000  H
  H31      1.0000 0.01100  0.06790  0.87650  Biso   1.000  H
  H32      1.0000 0.48900  0.56790  0.62350  Biso   1.000  H
  C57      1.0000 0.00470  0.07490  0.14020  Biso   1.000  C
  C58      1.0000 0.49530  0.57490  0.35980  Biso   1.000  C
  C59      1.0000 0.99530  0.92510  0.85980  Biso   1.000  C
  C60      1.0000 0.50470  0.42510  0.64020  Biso   1.000  C
  H33      1.0000 0.06580  0.09030  0.12400  Biso   1.000  H
  H34      1.0000 0.43420  0.59030  0.37600  Biso   1.000  H
  H35      1.0000 0.93420  0.90970  0.87600  Biso   1.000  H
  H36      1.0000 0.56580  0.40970  0.62400  Biso   1.000  H
  C61      1.0000 0.95680  0.23960  0.18220  Biso   1.000  C
  C62      1.0000 0.54320  0.73960  0.31780  Biso   1.000  C
  C63      1.0000 0.04320  0.76040  0.81780  Biso   1.000  C
  C64      1.0000 0.45680  0.26040  0.68220  Biso   1.000  C
  H37      1.0000 0.89950  0.26410  0.20350  Biso   1.000  H
  H38      1.0000 0.60050  0.76410  0.29650  Biso   1.000  H
  H39      1.0000 0.10050  0.73590  0.79650  Biso   1.000  H
  H40      1.0000 0.39950  0.23590  0.70350  Biso   1.000  H
  H41      1.0000 0.94490  0.26890  0.12030  Biso   1.000  H
  H42      1.0000 0.55510  0.76890  0.37970  Biso   1.000  H
  H43      1.0000 0.05510  0.73110  0.87970  Biso   1.000  H
  H44      1.0000 0.44490  0.23110  0.62030  Biso   1.000  H
  C65      1.0000 0.07300  0.26870  0.25570  Biso   1.000  C
  C66      1.0000 0.42700  0.76870  0.24430  Biso   1.000  C
  C67      1.0000 0.92700  0.73130  0.74430  Biso   1.000  C
  C68      1.0000 0.57300  0.23130  0.75570  Biso   1.000  C
  C69      1.0000 0.13930  0.33010  0.22570  Biso   1.000  C
  C70      1.0000 0.36070  0.83010  0.27430  Biso   1.000  C
  C71      1.0000 0.86070  0.66990  0.77430  Biso   1.000  C
  C72      1.0000 0.63930  0.16990  0.72570  Biso   1.000  C
  H45      1.0000 0.11360  0.34860  0.16100  Biso   1.000  H
  H46      1.0000 0.38640  0.84860  0.33900  Biso   1.000  H
  H47      1.0000 0.88640  0.65140  0.83900  Biso   1.000  H
  H48      1.0000 0.61360  0.15140  0.66100  Biso   1.000  H
  C73      1.0000 0.24110  0.36320  0.28970  Biso   1.000  C
  C74      1.0000 0.25890  0.86320  0.21030  Biso   1.000  C
  C75      1.0000 0.75890  0.63680  0.71030  Biso   1.000  C
  C76      1.0000 0.74110  0.13680  0.78970  Biso   1.000  C
  H49      1.0000 0.28300  0.40540  0.26890  Biso   1.000  H
  H50      1.0000 0.21700  0.90540  0.23110  Biso   1.000  H
  H51      1.0000 0.71700  0.59460  0.73110  Biso   1.000  H
  H52      1.0000 0.78300  0.09460  0.76890  Biso   1.000  H
  C77      1.0000 0.28120  0.33400  0.38470  Biso   1.000  C
  C78      1.0000 0.21880  0.83400  0.11530  Biso   1.000  C
  C79      1.0000 0.71880  0.66600  0.61530  Biso   1.000  C
  C80      1.0000 0.78120  0.16600  0.88470  Biso   1.000  C
  H53      1.0000 0.35080  0.35600  0.42820  Biso   1.000  H
  H54      1.0000 0.14920  0.85600  0.07180  Biso   1.000  H
  H55      1.0000 0.64920  0.64400  0.57180  Biso   1.000  H
  H56      1.0000 0.85080  0.14400  0.92820  Biso   1.000  H
  C81      1.0000 0.21850  0.27200  0.41600  Biso   1.000  C
  C82      1.0000 0.28150  0.77200  0.08400  Biso   1.000  C
  C83      1.0000 0.78150  0.72800  0.58400  Biso   1.000  C
  C84      1.0000 0.71850  0.22800  0.91600  Biso   1.000  C
  H57      1.0000 0.24710  0.25200  0.48030  Biso   1.000  H
  H58      1.0000 0.25290  0.75200  0.01970  Biso   1.000  H
  H59      1.0000 0.75290  0.74800  0.51970  Biso   1.000  H
  H60      1.0000 0.74710  0.24800  0.98030  Biso   1.000  H
  C85      1.0000 0.11450  0.23930  0.35340  Biso   1.000  C
  C86      1.0000 0.38550  0.73930  0.14660  Biso   1.000  C
  C87      1.0000 0.88550  0.76070  0.64660  Biso   1.000  C
  C88      1.0000 0.61450  0.26070  0.85340  Biso   1.000  C
  C89      1.0000 0.04540  0.17330  0.38890  Biso   1.000  C
  C90      1.0000 0.45460  0.67330  0.11110  Biso   1.000  C
  C91      1.0000 0.95460  0.82670  0.61110  Biso   1.000  C
  C92      1.0000 0.54540  0.32670  0.88890  Biso   1.000  C
  H61      1.0000 0.96570  0.18280  0.34980  Biso   1.000  H
  H62      1.0000 0.53430  0.68280  0.15020  Biso   1.000  H
  H63      1.0000 0.03430  0.81720  0.65020  Biso   1.000  H
  H64      1.0000 0.46570  0.31720  0.84980  Biso   1.000  H
  H65      1.0000 0.06400  0.10790  0.38040  Biso   1.000  H
  H66      1.0000 0.43600  0.60790  0.11960  Biso   1.000  H
  H67      1.0000 0.93600  0.89210  0.61960  Biso   1.000  H
  H68      1.0000 0.56400  0.39210  0.88040  Biso   1.000  H
  C93      1.0000 0.12050  0.13230  0.56610  Biso   1.000  C
  C94      1.0000 0.37950  0.63230  0.93390  Biso   1.000  C
  C95      1.0000 0.87950  0.86770  0.43390  Biso   1.000  C
  C96      1.0000 0.62050  0.36770  0.06610  Biso   1.000  C
  H69      1.0000 0.15280  0.07430  0.56130  Biso   1.000  H
  H70      1.0000 0.34720  0.57430  0.93870  Biso   1.000  H
  H71      1.0000 0.84720  0.92570  0.43870  Biso   1.000  H
  H72      1.0000 0.65280  0.42570  0.06130  Biso   1.000  H
  C97      1.0000 0.06880  0.25450  0.62290  Biso   1.000  C
  C98      1.0000 0.43120  0.75450  0.87710  Biso   1.000  C
  C99      1.0000 0.93120  0.74550  0.37710  Biso   1.000  C
  C100     1.0000 0.56880  0.24550  0.12290  Biso   1.000  C
  H73      1.0000 0.05800  0.29690  0.66630  Biso   1.000  H
  H74      1.0000 0.44200  0.79690  0.83370  Biso   1.000  H
  H75      1.0000 0.94200  0.70310  0.33370  Biso   1.000  H
  H76      1.0000 0.55800  0.20310  0.16630  Biso   1.000  H
  C101     1.0000 0.03370  0.26840  0.52760  Biso   1.000  C
  C102     1.0000 0.46630  0.76840  0.97240  Biso   1.000  C
  C103     1.0000 0.96630  0.73160  0.47240  Biso   1.000  C
  C104     1.0000 0.53370  0.23160  0.02760  Biso   1.000  C
  H77      1.0000 0.99530  0.32120  0.49300  Biso   1.000  H
  H78      1.0000 0.50470  0.82120  0.00700  Biso   1.000  H
  H79      1.0000 0.00470  0.67880  0.50700  Biso   1.000  H
  H80      1.0000 0.49530  0.17880  0.99300  Biso   1.000  H
