data_image0
_cell_length_a       9.6644
_cell_length_b       9.6644
_cell_length_c       10.6841
_cell_angle_alpha    90
_cell_angle_beta     90
_cell_angle_gamma    120

_symmetry_space_group_name_H-M    "P 1"
_symmetry_int_tables_number       1

loop_
  _symmetry_equiv_pos_as_xyz
  'x, y, z'

loop_
  _atom_site_label
  _atom_site_occupancy
  _atom_site_fract_x
  _atom_site_fract_y
  _atom_site_fract_z
  _atom_site_thermal_displace_type
  _atom_site_B_iso_or_equiv
  _atom_site_type_symbol
  Cu1      1.0000 0.35157  0.25837  0.18410  Biso   1.000  Cu
  Cu2      1.0000 0.74163  0.09320  0.51743  Biso   1.000  Cu
  Cu3      1.0000 0.90680  0.64843  0.51743  Biso   1.000  Cu
  P1       1.0000 0.59422  0.20190  0.07092  Biso   1.000  P
  P2       1.0000 0.79810  0.39232  0.40425  Biso   1.000  P
  P3       1.0000 0.60768  0.40578  0.40425  Biso   1.000  P
  N1       1.0000 0.28882  0.41200  0.12467  Biso   1.000  N
  N2       1.0000 0.58800  0.87682  0.45800  Biso   1.000  N
  N3       1.0000 0.12318  0.71118  0.45800  Biso   1.000  N
  C1       1.0000 0.41150  0.55870  0.09290  Biso   1.000  C
  C2       1.0000 0.44130  0.85280  0.42623  Biso   1.000  C
  C3       1.0000 0.14720  0.58850  0.42623  Biso   1.000  C
  O1       1.0000 0.59080  0.35180  0.01356  Biso   1.000  O
  O2       1.0000 0.64820  0.23900  0.34689  Biso   1.000  O
  O3       1.0000 0.76100  0.40920  0.34689  Biso   1.000  O
  O4       1.0000 0.58460  0.09174  0.96563  Biso   1.000  O
  O5       1.0000 0.90826  0.49286  0.29896  Biso   1.000  O
  O6       1.0000 0.50714  0.41540  0.29896  Biso   1.000  O
  C4       1.0000 0.84250  0.96250  0.18540  Biso   1.000  C
  C5       1.0000 0.03750  0.88000  0.51873  Biso   1.000  C
  C6       1.0000 0.12000  0.15750  0.51873  Biso   1.000  C
  O7       1.0000 0.44286  0.12545  0.15143  Biso   1.000  O
  O8       1.0000 0.87455  0.31741  0.48476  Biso   1.000  O
  O9       1.0000 0.68259  0.55714  0.48476  Biso   1.000  O
  N4       1.0000 0.00987  0.24090  0.14996  Biso   1.000  N
  N5       1.0000 0.75910  0.76897  0.48329  Biso   1.000  N
  N6       1.0000 0.23103  0.99013  0.48329  Biso   1.000  N
  N7       1.0000 0.12740  0.07734  0.17409  Biso   1.000  N
  N8       1.0000 0.92266  0.05006  0.50742  Biso   1.000  N
  N9       1.0000 0.94994  0.87260  0.50742  Biso   1.000  N
  C7       1.0000 0.95640  0.79380  0.20050  Biso   1.000  C
  C8       1.0000 0.20620  0.16260  0.53383  Biso   1.000  C
  C9       1.0000 0.83740  0.04360  0.53383  Biso   1.000  C
  C10      1.0000 0.23420  0.65640  0.05170  Biso   1.000  C
  C11      1.0000 0.34360  0.57780  0.38503  Biso   1.000  C
  C12      1.0000 0.42220  0.76580  0.38503  Biso   1.000  C
  C13      1.0000 0.99830  0.09480  0.16994  Biso   1.000  C
  C14      1.0000 0.90520  0.90350  0.50327  Biso   1.000  C
  C15      1.0000 0.09650  0.00170  0.50327  Biso   1.000  C
  C16      1.0000 0.39100  0.68300  0.05821  Biso   1.000  C
  C17      1.0000 0.31700  0.70800  0.39154  Biso   1.000  C
  C18      1.0000 0.29200  0.60900  0.39154  Biso   1.000  C
  C19      1.0000 0.10420  0.92680  0.18772  Biso   1.000  C
  C20      1.0000 0.07320  0.17740  0.52105  Biso   1.000  C
  C21      1.0000 0.82260  0.89580  0.52105  Biso   1.000  C
  C22      1.0000 0.13920  0.38660  0.11858  Biso   1.000  C
  C23      1.0000 0.61340  0.75260  0.45191  Biso   1.000  C
  C24      1.0000 0.24740  0.86080  0.45191  Biso   1.000  C
  O10      1.0000 0.74160  0.25490  0.15023  Biso   1.000  O
  O11      1.0000 0.74510  0.48670  0.48356  Biso   1.000  O
  O12      1.0000 0.51330  0.25840  0.48356  Biso   1.000  O
  C25      1.0000 0.10830  0.50900  0.08080  Biso   1.000  C
  C26      1.0000 0.49100  0.59930  0.41413  Biso   1.000  C
  C27      1.0000 0.40070  0.89170  0.41413  Biso   1.000  C
  C28      1.0000 0.82330  0.81410  0.20170  Biso   1.000  C
  C29      1.0000 0.18590  0.00920  0.53503  Biso   1.000  C
  C30      1.0000 0.99080  0.17670  0.53503  Biso   1.000  C
  H1       1.0000 0.92700  0.24700  0.15300  Biso   1.000  H
  H2       1.0000 0.75300  0.68000  0.48633  Biso   1.000  H
  H3       1.0000 0.32000  0.07300  0.48633  Biso   1.000  H
  H4       1.0000 0.72200  0.73400  0.22100  Biso   1.000  H
  H5       1.0000 0.26600  0.98800  0.55433  Biso   1.000  H
  H6       1.0000 0.01200  0.27800  0.55433  Biso   1.000  H
  H7       1.0000 0.21300  0.74200  0.03600  Biso   1.000  H
  H8       1.0000 0.25800  0.47100  0.36933  Biso   1.000  H
  H9       1.0000 0.52900  0.78700  0.36933  Biso   1.000  H
  H10      1.0000 0.99900  0.47600  0.07600  Biso   1.000  H
  H11      1.0000 0.52400  0.52300  0.40933  Biso   1.000  H
  H12      1.0000 0.47700  0.00100  0.40933  Biso   1.000  H
  H13      1.0000 0.66500  0.37900  0.04070  Biso   1.000  H
  H14      1.0000 0.62100  0.28600  0.37403  Biso   1.000  H
  H15      1.0000 0.71400  0.33500  0.37403  Biso   1.000  H
  H16      1.0000 0.75400  0.98200  0.18000  Biso   1.000  H
  H17      1.0000 0.01800  0.77200  0.51333  Biso   1.000  H
  H18      1.0000 0.22800  0.24600  0.51333  Biso   1.000  H
  H19      1.0000 0.19200  0.92300  0.19400  Biso   1.000  H
  H20      1.0000 0.07700  0.26900  0.52733  Biso   1.000  H
  H21      1.0000 0.73100  0.80800  0.52733  Biso   1.000  H
  H22      1.0000 0.51400  0.58200  0.09400  Biso   1.000  H
  H23      1.0000 0.41800  0.93200  0.42733  Biso   1.000  H
  H24      1.0000 0.06800  0.48600  0.42733  Biso   1.000  H
  H25      1.0000 0.94400  0.71000  0.21000  Biso   1.000  H
  H26      1.0000 0.29000  0.23400  0.54333  Biso   1.000  H
  H27      1.0000 0.76600  0.05600  0.54333  Biso   1.000  H
  H28      1.0000 0.48800  0.78400  0.04100  Biso   1.000  H
  H29      1.0000 0.21600  0.70400  0.37433  Biso   1.000  H
  H30      1.0000 0.29600  0.51200  0.37433  Biso   1.000  H
  O13      1.0000 0.58460  0.09174  0.63230  Biso   1.000  O
  O14      1.0000 0.90826  0.49286  0.63230  Biso   1.000  O
  Cu4      1.0000 0.74163  0.09320  0.85077  Biso   1.000  Cu
  Cu5      1.0000 0.90680  0.64843  0.18410  Biso   1.000  Cu
