data_image0
_cell_length_a       7.063
_cell_length_b       7.4273
_cell_length_c       8.8247
_cell_angle_alpha    114.066
_cell_angle_beta     109.481
_cell_angle_gamma    93.904

_symmetry_space_group_name_H-M    "P 1"
_symmetry_int_tables_number       1

loop_
  _symmetry_equiv_pos_as_xyz
  'x, y, z'

loop_
  _atom_site_label
  _atom_site_occupancy
  _atom_site_fract_x
  _atom_site_fract_y
  _atom_site_fract_z
  _atom_site_thermal_displace_type
  _atom_site_B_iso_or_equiv
  _atom_site_type_symbol
  C1       1.0000 0.30480  0.24930  0.09590  Biso   1.000  C
  C2       1.0000 0.69520  0.75070  0.90410  Biso   1.000  C
  H1       1.0000 0.17370  0.22140  0.09440  Biso   1.000  H
  H2       1.0000 0.82630  0.77860  0.90560  Biso   1.000  H
  C3       1.0000 0.35070  0.18740  0.94990  Biso   1.000  C
  C4       1.0000 0.64930  0.81260  0.05010  Biso   1.000  C
  H3       1.0000 0.25860  0.10930  0.83030  Biso   1.000  H
  H4       1.0000 0.74140  0.89070  0.16970  Biso   1.000  H
  C5       1.0000 0.62860  0.36230  0.18860  Biso   1.000  C
  C6       1.0000 0.37140  0.63770  0.81140  Biso   1.000  C
  H5       1.0000 0.76650  0.42750  0.26330  Biso   1.000  H
  H6       1.0000 0.23350  0.57250  0.73670  Biso   1.000  H
  C7       1.0000 0.67560  0.23650  0.89730  Biso   1.000  C
  C8       1.0000 0.32440  0.76350  0.10270  Biso   1.000  C
  H7       1.0000 0.62140  0.29420  0.81700  Biso   1.000  H
  H8       1.0000 0.37860  0.70580  0.18300  Biso   1.000  H
  H9       1.0000 0.66570  0.09490  0.82800  Biso   1.000  H
  H10      1.0000 0.33430  0.90510  0.17200  Biso   1.000  H
  H11      1.0000 0.81780  0.30510  0.97370  Biso   1.000  H
  H12      1.0000 0.18220  0.69490  0.02630  Biso   1.000  H
  C9       1.0000 0.81590  0.84360  0.53370  Biso   1.000  C
  C10      1.0000 0.18410  0.15640  0.46630  Biso   1.000  C
  C11      1.0000 0.12550  0.78250  0.43600  Biso   1.000  C
  C12      1.0000 0.87450  0.21750  0.56400  Biso   1.000  C
  N1       1.0000 0.47990  0.35930  0.24640  Biso   1.000  N
  N2       1.0000 0.52010  0.64070  0.75360  Biso   1.000  N
  N3       1.0000 0.55630  0.25990  0.00920  Biso   1.000  N
  N4       1.0000 0.44370  0.74010  0.99080  Biso   1.000  N
  N5       1.0000 0.70180  0.73730  0.54380  Biso   1.000  N
  N6       1.0000 0.29820  0.26270  0.45620  Biso   1.000  N
  N7       1.0000 0.20190  0.65020  0.40190  Biso   1.000  N
  N8       1.0000 0.79810  0.34980  0.59810  Biso   1.000  N
  Ni1      1.0000 0.00000  0.00000  0.50000  Biso   1.000  Ni
  Cu1      1.0000 0.50000  0.50000  0.50000  Biso   1.000  Cu
