data_image0
_cell_length_a       10.1443
_cell_length_b       8.2889
_cell_length_c       11.1596
_cell_angle_alpha    90
_cell_angle_beta     90
_cell_angle_gamma    90

_symmetry_space_group_name_H-M    "P 1"
_symmetry_int_tables_number       1

loop_
  _symmetry_equiv_pos_as_xyz
  'x, y, z'

loop_
  _atom_site_label
  _atom_site_occupancy
  _atom_site_fract_x
  _atom_site_fract_y
  _atom_site_fract_z
  _atom_site_thermal_displace_type
  _atom_site_B_iso_or_equiv
  _atom_site_type_symbol
  Cu1      1.0000 0.20469  0.00061  0.26613  Biso   1.000  Cu
  Cu2      1.0000 0.29531  0.99939  0.76613  Biso   1.000  Cu
  Cu3      1.0000 0.79531  0.50061  0.23387  Biso   1.000  Cu
  Cu4      1.0000 0.70469  0.49939  0.73387  Biso   1.000  Cu
  O1       1.0000 0.46160  0.05420  0.32800  Biso   1.000  O
  O2       1.0000 0.03840  0.94580  0.82800  Biso   1.000  O
  O3       1.0000 0.53840  0.55420  0.17200  Biso   1.000  O
  O4       1.0000 0.96160  0.44580  0.67200  Biso   1.000  O
  O5       1.0000 0.31250  0.18710  0.22220  Biso   1.000  O
  O6       1.0000 0.18750  0.81290  0.72220  Biso   1.000  O
  O7       1.0000 0.68750  0.68710  0.27780  Biso   1.000  O
  O8       1.0000 0.81250  0.31290  0.77780  Biso   1.000  O
  O9       1.0000 0.01440  0.10050  0.18590  Biso   1.000  O
  O10      1.0000 0.48560  0.89950  0.68590  Biso   1.000  O
  O11      1.0000 0.98560  0.60050  0.31410  Biso   1.000  O
  O12      1.0000 0.51440  0.39950  0.81410  Biso   1.000  O
  O13      1.0000 0.87110  0.30020  0.17260  Biso   1.000  O
  O14      1.0000 0.62890  0.69980  0.67260  Biso   1.000  O
  O15      1.0000 0.12890  0.80020  0.32740  Biso   1.000  O
  O16      1.0000 0.37110  0.19980  0.82740  Biso   1.000  O
  O17      1.0000 0.18340  0.10460  0.42690  Biso   1.000  O
  O18      1.0000 0.31660  0.89540  0.92690  Biso   1.000  O
  O19      1.0000 0.81660  0.60460  0.07310  Biso   1.000  O
  O20      1.0000 0.68340  0.39540  0.57310  Biso   1.000  O
  O21      1.0000 0.24380  0.11240  0.61630  Biso   1.000  O
  O22      1.0000 0.25620  0.88760  0.11630  Biso   1.000  O
  O23      1.0000 0.75620  0.61240  0.88370  Biso   1.000  O
  O24      1.0000 0.74380  0.38760  0.38370  Biso   1.000  O
  C1       1.0000 0.42450  0.17160  0.26750  Biso   1.000  C
  C2       1.0000 0.07550  0.82840  0.76750  Biso   1.000  C
  C3       1.0000 0.57550  0.67160  0.23250  Biso   1.000  C
  C4       1.0000 0.92450  0.32840  0.73250  Biso   1.000  C
  H1       1.0000 0.48480  0.25440  0.25490  Biso   1.000  H
  H2       1.0000 0.01520  0.74560  0.75490  Biso   1.000  H
  H3       1.0000 0.51520  0.75440  0.24510  Biso   1.000  H
  H4       1.0000 0.98480  0.24560  0.74510  Biso   1.000  H
  C5       1.0000 0.96900  0.23230  0.21720  Biso   1.000  C
  C6       1.0000 0.53100  0.76770  0.71720  Biso   1.000  C
  C7       1.0000 0.03100  0.73230  0.28280  Biso   1.000  C
  C8       1.0000 0.46900  0.26770  0.78280  Biso   1.000  C
  H5       1.0000 0.01170  0.28540  0.27940  Biso   1.000  H
  H6       1.0000 0.48830  0.71460  0.77940  Biso   1.000  H
  H7       1.0000 0.98830  0.78540  0.22060  Biso   1.000  H
  H8       1.0000 0.51170  0.21460  0.72060  Biso   1.000  H
  C9       1.0000 0.23130  0.04070  0.51850  Biso   1.000  C
  C10      1.0000 0.26870  0.95930  0.01850  Biso   1.000  C
  C11      1.0000 0.76870  0.54070  0.98150  Biso   1.000  C
  C12      1.0000 0.73130  0.45930  0.48150  Biso   1.000  C
  H9       1.0000 0.25910  0.93400  0.51370  Biso   1.000  H
  H10      1.0000 0.24090  0.06600  0.01370  Biso   1.000  H
  H11      1.0000 0.74090  0.43400  0.98630  Biso   1.000  H
  H12      1.0000 0.75910  0.56600  0.48630  Biso   1.000  H
  C13      1.0000 0.77250  0.98380  0.45640  Biso   1.000  C
  C14      1.0000 0.72750  0.01620  0.95640  Biso   1.000  C
  C15      1.0000 0.22750  0.48380  0.04360  Biso   1.000  C
  C16      1.0000 0.27250  0.51620  0.54360  Biso   1.000  C
  H13      1.0000 0.75290  0.88060  0.41950  Biso   1.000  H
  H14      1.0000 0.74710  0.11940  0.91950  Biso   1.000  H
  H15      1.0000 0.24710  0.38060  0.08050  Biso   1.000  H
  H16      1.0000 0.25290  0.61940  0.58050  Biso   1.000  H
  H17      1.0000 0.80830  0.05400  0.39490  Biso   1.000  H
  H18      1.0000 0.69170  0.94600  0.89490  Biso   1.000  H
  H19      1.0000 0.19170  0.55400  0.10510  Biso   1.000  H
  H20      1.0000 0.30830  0.44600  0.60510  Biso   1.000  H
  C17      1.0000 0.87230  0.96010  0.54980  Biso   1.000  C
  C18      1.0000 0.62770  0.03990  0.04980  Biso   1.000  C
  C19      1.0000 0.12770  0.46010  0.95020  Biso   1.000  C
  C20      1.0000 0.37230  0.53990  0.45020  Biso   1.000  C
  H21      1.0000 0.90260  0.06320  0.57790  Biso   1.000  H
  H22      1.0000 0.59740  0.93680  0.07790  Biso   1.000  H
  H23      1.0000 0.09740  0.56320  0.92210  Biso   1.000  H
  H24      1.0000 0.40260  0.43680  0.42210  Biso   1.000  H
  H25      1.0000 0.94520  0.90060  0.51750  Biso   1.000  H
  H26      1.0000 0.55480  0.09940  0.01750  Biso   1.000  H
  H27      1.0000 0.05480  0.40060  0.98250  Biso   1.000  H
  H28      1.0000 0.44520  0.59940  0.48250  Biso   1.000  H
  H29      1.0000 0.83440  0.90110  0.61540  Biso   1.000  H
  H30      1.0000 0.66560  0.09890  0.11540  Biso   1.000  H
  H31      1.0000 0.16560  0.40110  0.88460  Biso   1.000  H
  H32      1.0000 0.33440  0.59890  0.38460  Biso   1.000  H
  N1       1.0000 0.64940  0.05460  0.50220  Biso   1.000  N
  N2       1.0000 0.85060  0.94540  0.00220  Biso   1.000  N
  N3       1.0000 0.35060  0.55460  0.99780  Biso   1.000  N
  N4       1.0000 0.14940  0.44540  0.49780  Biso   1.000  N
  H33      1.0000 0.61810  0.99340  0.56130  Biso   1.000  H
  H34      1.0000 0.88190  0.00660  0.06130  Biso   1.000  H
  H35      1.0000 0.38190  0.49340  0.93870  Biso   1.000  H
  H36      1.0000 0.11810  0.50660  0.43870  Biso   1.000  H
  H37      1.0000 0.59040  0.05960  0.44330  Biso   1.000  H
  H38      1.0000 0.90960  0.94040  0.94330  Biso   1.000  H
  H39      1.0000 0.40960  0.55960  0.05670  Biso   1.000  H
  H40      1.0000 0.09040  0.44040  0.55670  Biso   1.000  H
  H41      1.0000 0.66530  0.15350  0.52970  Biso   1.000  H
  H42      1.0000 0.83470  0.84650  0.02970  Biso   1.000  H
  H43      1.0000 0.33470  0.65350  0.97030  Biso   1.000  H
  H44      1.0000 0.16530  0.34650  0.47030  Biso   1.000  H
