data_image0
_cell_length_a       10.141
_cell_length_b       8.2329
_cell_length_c       11.099
_cell_angle_alpha    90
_cell_angle_beta     90
_cell_angle_gamma    90

_symmetry_space_group_name_H-M    "P 1"
_symmetry_int_tables_number       1

loop_
  _symmetry_equiv_pos_as_xyz
  'x, y, z'

loop_
  _atom_site_label
  _atom_site_occupancy
  _atom_site_fract_x
  _atom_site_fract_y
  _atom_site_fract_z
  _atom_site_thermal_displace_type
  _atom_site_B_iso_or_equiv
  _atom_site_type_symbol
  Cu1      1.0000 0.20497  0.00106  0.26598  Biso   1.000  Cu
  Cu2      1.0000 0.29503  0.99894  0.76598  Biso   1.000  Cu
  Cu3      1.0000 0.79503  0.50106  0.23402  Biso   1.000  Cu
  Cu4      1.0000 0.70497  0.49894  0.73402  Biso   1.000  Cu
  O1       1.0000 0.46330  0.05530  0.32780  Biso   1.000  O
  O2       1.0000 0.03670  0.94470  0.82780  Biso   1.000  O
  O3       1.0000 0.53670  0.55530  0.17220  Biso   1.000  O
  O4       1.0000 0.96330  0.44470  0.67220  Biso   1.000  O
  O5       1.0000 0.31210  0.18790  0.22300  Biso   1.000  O
  O6       1.0000 0.18790  0.81210  0.72300  Biso   1.000  O
  O7       1.0000 0.68790  0.68790  0.27700  Biso   1.000  O
  O8       1.0000 0.81210  0.31210  0.77700  Biso   1.000  O
  O9       1.0000 0.01460  0.10250  0.18450  Biso   1.000  O
  O10      1.0000 0.48540  0.89750  0.68450  Biso   1.000  O
  O11      1.0000 0.98540  0.60250  0.31550  Biso   1.000  O
  O12      1.0000 0.51460  0.39750  0.81550  Biso   1.000  O
  O13      1.0000 0.87210  0.30200  0.17520  Biso   1.000  O
  O14      1.0000 0.62790  0.69800  0.67520  Biso   1.000  O
  O15      1.0000 0.12790  0.80200  0.32480  Biso   1.000  O
  O16      1.0000 0.37210  0.19800  0.82480  Biso   1.000  O
  O17      1.0000 0.18330  0.10350  0.42760  Biso   1.000  O
  O18      1.0000 0.31670  0.89650  0.92760  Biso   1.000  O
  O19      1.0000 0.81670  0.60350  0.07240  Biso   1.000  O
  O20      1.0000 0.68330  0.39650  0.57240  Biso   1.000  O
  O21      1.0000 0.24360  0.11130  0.61610  Biso   1.000  O
  O22      1.0000 0.25640  0.88870  0.11610  Biso   1.000  O
  O23      1.0000 0.75640  0.61130  0.88390  Biso   1.000  O
  O24      1.0000 0.74360  0.38870  0.38390  Biso   1.000  O
  C1       1.0000 0.42480  0.17320  0.26830  Biso   1.000  C
  C2       1.0000 0.07520  0.82680  0.76830  Biso   1.000  C
  C3       1.0000 0.57520  0.67320  0.23170  Biso   1.000  C
  C4       1.0000 0.92480  0.32680  0.73170  Biso   1.000  C
  H1       1.0000 0.48410  0.25780  0.25630  Biso   1.000  H
  H2       1.0000 0.01590  0.74220  0.75630  Biso   1.000  H
  H3       1.0000 0.51590  0.75780  0.24370  Biso   1.000  H
  H4       1.0000 0.98410  0.24220  0.74370  Biso   1.000  H
  C5       1.0000 0.96830  0.23280  0.21770  Biso   1.000  C
  C6       1.0000 0.53170  0.76720  0.71770  Biso   1.000  C
  C7       1.0000 0.03170  0.73280  0.28230  Biso   1.000  C
  C8       1.0000 0.46830  0.26720  0.78230  Biso   1.000  C
  H5       1.0000 0.01050  0.28410  0.28170  Biso   1.000  H
  H6       1.0000 0.48950  0.71590  0.78170  Biso   1.000  H
  H7       1.0000 0.98950  0.78410  0.21830  Biso   1.000  H
  H8       1.0000 0.51050  0.21590  0.71830  Biso   1.000  H
  C9       1.0000 0.22990  0.04000  0.51850  Biso   1.000  C
  C10      1.0000 0.27010  0.96000  0.01850  Biso   1.000  C
  C11      1.0000 0.77010  0.54000  0.98150  Biso   1.000  C
  C12      1.0000 0.72990  0.46000  0.48150  Biso   1.000  C
  H9       1.0000 0.25650  0.93200  0.51370  Biso   1.000  H
  H10      1.0000 0.24350  0.06800  0.01370  Biso   1.000  H
  H11      1.0000 0.74350  0.43200  0.98630  Biso   1.000  H
  H12      1.0000 0.75650  0.56800  0.48630  Biso   1.000  H
  C13      1.0000 0.76510  0.98360  0.45710  Biso   1.000  C
  C14      1.0000 0.73490  0.01640  0.95710  Biso   1.000  C
  C15      1.0000 0.23490  0.48360  0.04290  Biso   1.000  C
  C16      1.0000 0.26510  0.51640  0.54290  Biso   1.000  C
  H13      1.0000 0.79830  0.05090  0.39210  Biso   1.000  H
  H14      1.0000 0.70170  0.94910  0.89210  Biso   1.000  H
  H15      1.0000 0.20170  0.55090  0.10790  Biso   1.000  H
  H16      1.0000 0.29830  0.44910  0.60790  Biso   1.000  H
  H17      1.0000 0.74450  0.87760  0.42390  Biso   1.000  H
  H18      1.0000 0.75550  0.12240  0.92390  Biso   1.000  H
  H19      1.0000 0.25550  0.37760  0.07610  Biso   1.000  H
  H20      1.0000 0.24450  0.62240  0.57610  Biso   1.000  H
  C17      1.0000 0.86960  0.96500  0.54950  Biso   1.000  C
  C18      1.0000 0.63040  0.03500  0.04950  Biso   1.000  C
  C19      1.0000 0.13040  0.46500  0.95050  Biso   1.000  C
  C20      1.0000 0.36960  0.53500  0.45050  Biso   1.000  C
  H21      1.0000 0.90190  0.07070  0.57210  Biso   1.000  H
  H22      1.0000 0.59810  0.92930  0.07210  Biso   1.000  H
  H23      1.0000 0.09810  0.57070  0.92790  Biso   1.000  H
  H24      1.0000 0.40190  0.42930  0.42790  Biso   1.000  H
  H25      1.0000 0.94070  0.90190  0.51720  Biso   1.000  H
  H26      1.0000 0.55930  0.09810  0.01720  Biso   1.000  H
  H27      1.0000 0.05930  0.40190  0.98280  Biso   1.000  H
  H28      1.0000 0.44070  0.59810  0.48280  Biso   1.000  H
  H29      1.0000 0.83390  0.91180  0.61910  Biso   1.000  H
  H30      1.0000 0.66610  0.08820  0.11910  Biso   1.000  H
  H31      1.0000 0.16610  0.41180  0.88090  Biso   1.000  H
  H32      1.0000 0.33390  0.58820  0.38090  Biso   1.000  H
  N1       1.0000 0.64990  0.05300  0.50250  Biso   1.000  N
  N2       1.0000 0.85010  0.94700  0.00250  Biso   1.000  N
  N3       1.0000 0.35010  0.55300  0.99750  Biso   1.000  N
  N4       1.0000 0.14990  0.44700  0.49750  Biso   1.000  N
  H33      1.0000 0.61850  0.99140  0.56180  Biso   1.000  H
  H34      1.0000 0.88150  0.00860  0.06180  Biso   1.000  H
  H35      1.0000 0.38150  0.49140  0.93820  Biso   1.000  H
  H36      1.0000 0.11850  0.50860  0.43820  Biso   1.000  H
  H37      1.0000 0.59020  0.06020  0.44400  Biso   1.000  H
  H38      1.0000 0.90980  0.93980  0.94400  Biso   1.000  H
  H39      1.0000 0.40980  0.56020  0.05600  Biso   1.000  H
  H40      1.0000 0.09020  0.43980  0.55600  Biso   1.000  H
  H41      1.0000 0.66760  0.15190  0.53080  Biso   1.000  H
  H42      1.0000 0.83240  0.84810  0.03080  Biso   1.000  H
  H43      1.0000 0.33240  0.65190  0.96920  Biso   1.000  H
  H44      1.0000 0.16760  0.34810  0.46920  Biso   1.000  H
