data_image0
_cell_length_a       10.0338
_cell_length_b       8.2827
_cell_length_c       11.1583
_cell_angle_alpha    90
_cell_angle_beta     90
_cell_angle_gamma    90

_symmetry_space_group_name_H-M    "P 1"
_symmetry_int_tables_number       1

loop_
  _symmetry_equiv_pos_as_xyz
  'x, y, z'

loop_
  _atom_site_label
  _atom_site_occupancy
  _atom_site_fract_x
  _atom_site_fract_y
  _atom_site_fract_z
  _atom_site_thermal_displace_type
  _atom_site_B_iso_or_equiv
  _atom_site_type_symbol
  Cu1      1.0000 0.20437  0.00118  0.26844  Biso   1.000  Cu
  Cu2      1.0000 0.29563  0.99882  0.76844  Biso   1.000  Cu
  Cu3      1.0000 0.79563  0.50118  0.23156  Biso   1.000  Cu
  Cu4      1.0000 0.70437  0.49882  0.73156  Biso   1.000  Cu
  O1       1.0000 0.46230  0.05230  0.33070  Biso   1.000  O
  O2       1.0000 0.03770  0.94770  0.83070  Biso   1.000  O
  O3       1.0000 0.53770  0.55230  0.16930  Biso   1.000  O
  O4       1.0000 0.96230  0.44770  0.66930  Biso   1.000  O
  O5       1.0000 0.31290  0.18820  0.22340  Biso   1.000  O
  O6       1.0000 0.18710  0.81180  0.72340  Biso   1.000  O
  O7       1.0000 0.68710  0.68820  0.27660  Biso   1.000  O
  O8       1.0000 0.81290  0.31180  0.77660  Biso   1.000  O
  O9       1.0000 0.01490  0.09830  0.18570  Biso   1.000  O
  O10      1.0000 0.48510  0.90170  0.68570  Biso   1.000  O
  O11      1.0000 0.98510  0.59830  0.31430  Biso   1.000  O
  O12      1.0000 0.51490  0.40170  0.81430  Biso   1.000  O
  O13      1.0000 0.87190  0.30150  0.16840  Biso   1.000  O
  O14      1.0000 0.62810  0.69850  0.66840  Biso   1.000  O
  O15      1.0000 0.12810  0.80150  0.33160  Biso   1.000  O
  O16      1.0000 0.37190  0.19850  0.83160  Biso   1.000  O
  O17      1.0000 0.18280  0.10790  0.42870  Biso   1.000  O
  O18      1.0000 0.31720  0.89210  0.92870  Biso   1.000  O
  O19      1.0000 0.81720  0.60790  0.07130  Biso   1.000  O
  O20      1.0000 0.68280  0.39210  0.57130  Biso   1.000  O
  O21      1.0000 0.24280  0.11510  0.61960  Biso   1.000  O
  O22      1.0000 0.25720  0.88490  0.11960  Biso   1.000  O
  O23      1.0000 0.75720  0.61510  0.88040  Biso   1.000  O
  O24      1.0000 0.74280  0.38490  0.38040  Biso   1.000  O
  C1       1.0000 0.42650  0.17180  0.27020  Biso   1.000  C
  C2       1.0000 0.07350  0.82820  0.77020  Biso   1.000  C
  C3       1.0000 0.57350  0.67180  0.22980  Biso   1.000  C
  C4       1.0000 0.92650  0.32820  0.72980  Biso   1.000  C
  H1       1.0000 0.48940  0.25610  0.25870  Biso   1.000  H
  H2       1.0000 0.01060  0.74390  0.75870  Biso   1.000  H
  H3       1.0000 0.51060  0.75610  0.24130  Biso   1.000  H
  H4       1.0000 0.98940  0.24390  0.74130  Biso   1.000  H
  C5       1.0000 0.96950  0.23210  0.21720  Biso   1.000  C
  C6       1.0000 0.53050  0.76790  0.71720  Biso   1.000  C
  C7       1.0000 0.03050  0.73210  0.28280  Biso   1.000  C
  C8       1.0000 0.46950  0.26790  0.78280  Biso   1.000  C
  H5       1.0000 0.01150  0.28520  0.28260  Biso   1.000  H
  H6       1.0000 0.48850  0.71480  0.78260  Biso   1.000  H
  H7       1.0000 0.98850  0.78520  0.21740  Biso   1.000  H
  H8       1.0000 0.51150  0.21480  0.71740  Biso   1.000  H
  C9       1.0000 0.23050  0.04160  0.52140  Biso   1.000  C
  C10      1.0000 0.26950  0.95840  0.02140  Biso   1.000  C
  C11      1.0000 0.76950  0.54160  0.97860  Biso   1.000  C
  C12      1.0000 0.73050  0.45840  0.47860  Biso   1.000  C
  H9       1.0000 0.25810  0.93200  0.51670  Biso   1.000  H
  H10      1.0000 0.24190  0.06800  0.01670  Biso   1.000  H
  H11      1.0000 0.74190  0.43200  0.98330  Biso   1.000  H
  H12      1.0000 0.75810  0.56800  0.48330  Biso   1.000  H
  C13      1.0000 0.77950  0.98160  0.45550  Biso   1.000  C
  C14      1.0000 0.72050  0.01840  0.95550  Biso   1.000  C
  C15      1.0000 0.22050  0.48160  0.04450  Biso   1.000  C
  C16      1.0000 0.27950  0.51840  0.54450  Biso   1.000  C
  H13      1.0000 0.82040  0.05730  0.39750  Biso   1.000  H
  H14      1.0000 0.67960  0.94270  0.89750  Biso   1.000  H
  H15      1.0000 0.17960  0.55730  0.10250  Biso   1.000  H
  H16      1.0000 0.32040  0.44270  0.60250  Biso   1.000  H
  H17      1.0000 0.75900  0.88000  0.41250  Biso   1.000  H
  H18      1.0000 0.74100  0.12000  0.91250  Biso   1.000  H
  H19      1.0000 0.24100  0.38000  0.08750  Biso   1.000  H
  H20      1.0000 0.25900  0.62000  0.58750  Biso   1.000  H
  C17      1.0000 0.87700  0.94730  0.55470  Biso   1.000  C
  C18      1.0000 0.62300  0.05270  0.05470  Biso   1.000  C
  C19      1.0000 0.12300  0.44730  0.94530  Biso   1.000  C
  C20      1.0000 0.37700  0.55270  0.44530  Biso   1.000  C
  H21      1.0000 0.90660  0.04920  0.59040  Biso   1.000  H
  H22      1.0000 0.59340  0.95080  0.09040  Biso   1.000  H
  H23      1.0000 0.09340  0.54920  0.90960  Biso   1.000  H
  H24      1.0000 0.40660  0.45080  0.40960  Biso   1.000  H
  H25      1.0000 0.95410  0.88930  0.52220  Biso   1.000  H
  H26      1.0000 0.54590  0.11070  0.02220  Biso   1.000  H
  H27      1.0000 0.04590  0.38930  0.97780  Biso   1.000  H
  H28      1.0000 0.45410  0.61070  0.47780  Biso   1.000  H
  H29      1.0000 0.83380  0.88090  0.61620  Biso   1.000  H
  H30      1.0000 0.66620  0.11910  0.11620  Biso   1.000  H
  H31      1.0000 0.16620  0.38090  0.88380  Biso   1.000  H
  H32      1.0000 0.33380  0.61910  0.38380  Biso   1.000  H
  N1       1.0000 0.65400  0.05260  0.50240  Biso   1.000  N
  N2       1.0000 0.84600  0.94740  0.00240  Biso   1.000  N
  N3       1.0000 0.34600  0.55260  0.99760  Biso   1.000  N
  N4       1.0000 0.15400  0.44740  0.49760  Biso   1.000  N
  H33      1.0000 0.62190  0.98950  0.56270  Biso   1.000  H
  H34      1.0000 0.87810  0.01050  0.06270  Biso   1.000  H
  H35      1.0000 0.37810  0.48950  0.93730  Biso   1.000  H
  H36      1.0000 0.12190  0.51050  0.43730  Biso   1.000  H
  H37      1.0000 0.59280  0.05820  0.44250  Biso   1.000  H
  H38      1.0000 0.90720  0.94180  0.94250  Biso   1.000  H
  H39      1.0000 0.40720  0.55820  0.05750  Biso   1.000  H
  H40      1.0000 0.09280  0.44180  0.55750  Biso   1.000  H
  H41      1.0000 0.67050  0.15360  0.53100  Biso   1.000  H
  H42      1.0000 0.82950  0.84640  0.03100  Biso   1.000  H
  H43      1.0000 0.32950  0.65360  0.96900  Biso   1.000  H
  H44      1.0000 0.17050  0.34640  0.46900  Biso   1.000  H
