data_image0
_cell_length_a       10.165
_cell_length_b       8.2955
_cell_length_c       11.1811
_cell_angle_alpha    90
_cell_angle_beta     90
_cell_angle_gamma    90

_symmetry_space_group_name_H-M    "P 1"
_symmetry_int_tables_number       1

loop_
  _symmetry_equiv_pos_as_xyz
  'x, y, z'

loop_
  _atom_site_label
  _atom_site_occupancy
  _atom_site_fract_x
  _atom_site_fract_y
  _atom_site_fract_z
  _atom_site_thermal_displace_type
  _atom_site_B_iso_or_equiv
  _atom_site_type_symbol
  Cu1      1.0000 0.20486  0.00078  0.26590  Biso   1.000  Cu
  Cu2      1.0000 0.29514  0.99922  0.76590  Biso   1.000  Cu
  Cu3      1.0000 0.79514  0.50078  0.23410  Biso   1.000  Cu
  Cu4      1.0000 0.70486  0.49922  0.73410  Biso   1.000  Cu
  O1       1.0000 0.46180  0.05440  0.32770  Biso   1.000  O
  O2       1.0000 0.03820  0.94560  0.82770  Biso   1.000  O
  O3       1.0000 0.53820  0.55440  0.17230  Biso   1.000  O
  O4       1.0000 0.96180  0.44560  0.67230  Biso   1.000  O
  O5       1.0000 0.31250  0.18730  0.22230  Biso   1.000  O
  O6       1.0000 0.18750  0.81270  0.72230  Biso   1.000  O
  O7       1.0000 0.68750  0.68730  0.27770  Biso   1.000  O
  O8       1.0000 0.81250  0.31270  0.77770  Biso   1.000  O
  O9       1.0000 0.01480  0.10150  0.18600  Biso   1.000  O
  O10      1.0000 0.48520  0.89850  0.68600  Biso   1.000  O
  O11      1.0000 0.98520  0.60150  0.31400  Biso   1.000  O
  O12      1.0000 0.51480  0.39850  0.81400  Biso   1.000  O
  O13      1.0000 0.87110  0.30040  0.17340  Biso   1.000  O
  O14      1.0000 0.62890  0.69960  0.67340  Biso   1.000  O
  O15      1.0000 0.12890  0.80040  0.32660  Biso   1.000  O
  O16      1.0000 0.37110  0.19960  0.82660  Biso   1.000  O
  O17      1.0000 0.18380  0.10440  0.42670  Biso   1.000  O
  O18      1.0000 0.31620  0.89560  0.92670  Biso   1.000  O
  O19      1.0000 0.81620  0.60440  0.07330  Biso   1.000  O
  O20      1.0000 0.68380  0.39560  0.57330  Biso   1.000  O
  O21      1.0000 0.24350  0.11200  0.61590  Biso   1.000  O
  O22      1.0000 0.25650  0.88800  0.11590  Biso   1.000  O
  O23      1.0000 0.75650  0.61200  0.88410  Biso   1.000  O
  O24      1.0000 0.74350  0.38800  0.38410  Biso   1.000  O
  C1       1.0000 0.42410  0.17210  0.26760  Biso   1.000  C
  C2       1.0000 0.07590  0.82790  0.76760  Biso   1.000  C
  C3       1.0000 0.57590  0.67210  0.23240  Biso   1.000  C
  C4       1.0000 0.92410  0.32790  0.73240  Biso   1.000  C
  H1       1.0000 0.48390  0.25540  0.25550  Biso   1.000  H
  H2       1.0000 0.01610  0.74460  0.75550  Biso   1.000  H
  H3       1.0000 0.51610  0.75540  0.24450  Biso   1.000  H
  H4       1.0000 0.98390  0.24460  0.74450  Biso   1.000  H
  C5       1.0000 0.96880  0.23250  0.21720  Biso   1.000  C
  C6       1.0000 0.53120  0.76750  0.71720  Biso   1.000  C
  C7       1.0000 0.03120  0.73250  0.28280  Biso   1.000  C
  C8       1.0000 0.46880  0.26750  0.78280  Biso   1.000  C
  H5       1.0000 0.01130  0.28550  0.27950  Biso   1.000  H
  H6       1.0000 0.48870  0.71450  0.77950  Biso   1.000  H
  H7       1.0000 0.98870  0.78550  0.22050  Biso   1.000  H
  H8       1.0000 0.51130  0.21450  0.72050  Biso   1.000  H
  C9       1.0000 0.23090  0.04050  0.51860  Biso   1.000  C
  C10      1.0000 0.26910  0.95950  0.01860  Biso   1.000  C
  C11      1.0000 0.76910  0.54050  0.98140  Biso   1.000  C
  C12      1.0000 0.73090  0.45950  0.48140  Biso   1.000  C
  H9       1.0000 0.25810  0.93360  0.51390  Biso   1.000  H
  H10      1.0000 0.24190  0.06640  0.01390  Biso   1.000  H
  H11      1.0000 0.74190  0.43360  0.98610  Biso   1.000  H
  H12      1.0000 0.75810  0.56640  0.48610  Biso   1.000  H
  C13      1.0000 0.77210  0.98360  0.45720  Biso   1.000  C
  C14      1.0000 0.72790  0.01640  0.95720  Biso   1.000  C
  C15      1.0000 0.22790  0.48360  0.04280  Biso   1.000  C
  C16      1.0000 0.27210  0.51640  0.54280  Biso   1.000  C
  H13      1.0000 0.75290  0.87970  0.42140  Biso   1.000  H
  H14      1.0000 0.74710  0.12030  0.92140  Biso   1.000  H
  H15      1.0000 0.24710  0.37970  0.07860  Biso   1.000  H
  H16      1.0000 0.25290  0.62030  0.57860  Biso   1.000  H
  H17      1.0000 0.80720  0.05280  0.39500  Biso   1.000  H
  H18      1.0000 0.69280  0.94720  0.89500  Biso   1.000  H
  H19      1.0000 0.19280  0.55280  0.10500  Biso   1.000  H
  H20      1.0000 0.30720  0.44720  0.60500  Biso   1.000  H
  C17      1.0000 0.87150  0.96220  0.54910  Biso   1.000  C
  C18      1.0000 0.62850  0.03780  0.04910  Biso   1.000  C
  C19      1.0000 0.12850  0.46220  0.95090  Biso   1.000  C
  C20      1.0000 0.37150  0.53780  0.45090  Biso   1.000  C
  H21      1.0000 0.90510  0.06560  0.57270  Biso   1.000  H
  H22      1.0000 0.59490  0.93440  0.07270  Biso   1.000  H
  H23      1.0000 0.09490  0.56560  0.92730  Biso   1.000  H
  H24      1.0000 0.40510  0.43440  0.42730  Biso   1.000  H
  H25      1.0000 0.94200  0.89740  0.51830  Biso   1.000  H
  H26      1.0000 0.55800  0.10260  0.01830  Biso   1.000  H
  H27      1.0000 0.05800  0.39740  0.98170  Biso   1.000  H
  H28      1.0000 0.44200  0.60260  0.48170  Biso   1.000  H
  H29      1.0000 0.83300  0.90960  0.61720  Biso   1.000  H
  H30      1.0000 0.66700  0.09040  0.11720  Biso   1.000  H
  H31      1.0000 0.16700  0.40960  0.88280  Biso   1.000  H
  H32      1.0000 0.33300  0.59040  0.38280  Biso   1.000  H
  N1       1.0000 0.64900  0.05400  0.50220  Biso   1.000  N
  N2       1.0000 0.85100  0.94600  0.00220  Biso   1.000  N
  N3       1.0000 0.35100  0.55400  0.99780  Biso   1.000  N
  N4       1.0000 0.14900  0.44600  0.49780  Biso   1.000  N
  H33      1.0000 0.61850  0.99420  0.56220  Biso   1.000  H
  H34      1.0000 0.88150  0.00580  0.06220  Biso   1.000  H
  H35      1.0000 0.38150  0.49420  0.93780  Biso   1.000  H
  H36      1.0000 0.11850  0.50580  0.43780  Biso   1.000  H
  H37      1.0000 0.58980  0.05680  0.44360  Biso   1.000  H
  H38      1.0000 0.91020  0.94320  0.94360  Biso   1.000  H
  H39      1.0000 0.41020  0.55680  0.05640  Biso   1.000  H
  H40      1.0000 0.08980  0.44320  0.55640  Biso   1.000  H
  H41      1.0000 0.66420  0.15370  0.52810  Biso   1.000  H
  H42      1.0000 0.83580  0.84630  0.02810  Biso   1.000  H
  H43      1.0000 0.33580  0.65370  0.97190  Biso   1.000  H
  H44      1.0000 0.16420  0.34630  0.47190  Biso   1.000  H
