data_image0
_cell_length_a       10.0729
_cell_length_b       8.2789
_cell_length_c       11.1535
_cell_angle_alpha    90
_cell_angle_beta     90
_cell_angle_gamma    90

_symmetry_space_group_name_H-M    "P 1"
_symmetry_int_tables_number       1

loop_
  _symmetry_equiv_pos_as_xyz
  'x, y, z'

loop_
  _atom_site_label
  _atom_site_occupancy
  _atom_site_fract_x
  _atom_site_fract_y
  _atom_site_fract_z
  _atom_site_thermal_displace_type
  _atom_site_B_iso_or_equiv
  _atom_site_type_symbol
  Cu1      1.0000 0.20435  0.00050  0.26715  Biso   1.000  Cu
  Cu2      1.0000 0.29565  0.99950  0.76715  Biso   1.000  Cu
  Cu3      1.0000 0.79565  0.50050  0.23285  Biso   1.000  Cu
  Cu4      1.0000 0.70435  0.49950  0.73285  Biso   1.000  Cu
  O1       1.0000 0.46170  0.05300  0.32900  Biso   1.000  O
  O2       1.0000 0.03830  0.94700  0.82900  Biso   1.000  O
  O3       1.0000 0.53830  0.55300  0.17100  Biso   1.000  O
  O4       1.0000 0.96170  0.44700  0.67100  Biso   1.000  O
  O5       1.0000 0.31240  0.18740  0.22230  Biso   1.000  O
  O6       1.0000 0.18760  0.81260  0.72230  Biso   1.000  O
  O7       1.0000 0.68760  0.68740  0.27770  Biso   1.000  O
  O8       1.0000 0.81240  0.31260  0.77770  Biso   1.000  O
  O9       1.0000 0.01440  0.09860  0.18580  Biso   1.000  O
  O10      1.0000 0.48560  0.90140  0.68580  Biso   1.000  O
  O11      1.0000 0.98560  0.59860  0.31420  Biso   1.000  O
  O12      1.0000 0.51440  0.40140  0.81420  Biso   1.000  O
  O13      1.0000 0.87140  0.30030  0.17030  Biso   1.000  O
  O14      1.0000 0.62860  0.69970  0.67030  Biso   1.000  O
  O15      1.0000 0.12860  0.80030  0.32970  Biso   1.000  O
  O16      1.0000 0.37140  0.19970  0.82970  Biso   1.000  O
  O17      1.0000 0.18320  0.10610  0.42762  Biso   1.000  O
  O18      1.0000 0.31680  0.89390  0.92762  Biso   1.000  O
  O19      1.0000 0.81680  0.60610  0.07238  Biso   1.000  O
  O20      1.0000 0.68320  0.39390  0.57238  Biso   1.000  O
  O21      1.0000 0.24380  0.11400  0.61780  Biso   1.000  O
  O22      1.0000 0.25620  0.88600  0.11780  Biso   1.000  O
  O23      1.0000 0.75620  0.61400  0.88220  Biso   1.000  O
  O24      1.0000 0.74380  0.38600  0.38220  Biso   1.000  O
  C1       1.0000 0.42530  0.17170  0.26860  Biso   1.000  C
  C2       1.0000 0.07470  0.82830  0.76860  Biso   1.000  C
  C3       1.0000 0.57470  0.67170  0.23140  Biso   1.000  C
  C4       1.0000 0.92530  0.32830  0.73140  Biso   1.000  C
  H1       1.0000 0.48750  0.25650  0.25660  Biso   1.000  H
  H2       1.0000 0.01250  0.74350  0.75660  Biso   1.000  H
  H3       1.0000 0.51250  0.75650  0.24340  Biso   1.000  H
  H4       1.0000 0.98750  0.24350  0.74340  Biso   1.000  H
  C5       1.0000 0.96920  0.23140  0.21740  Biso   1.000  C
  C6       1.0000 0.53080  0.76860  0.71740  Biso   1.000  C
  C7       1.0000 0.03080  0.73140  0.28260  Biso   1.000  C
  C8       1.0000 0.46920  0.26860  0.78260  Biso   1.000  C
  H5       1.0000 0.01200  0.28490  0.28210  Biso   1.000  H
  H6       1.0000 0.48800  0.71510  0.78210  Biso   1.000  H
  H7       1.0000 0.98800  0.78490  0.21790  Biso   1.000  H
  H8       1.0000 0.51200  0.21510  0.71790  Biso   1.000  H
  C9       1.0000 0.23130  0.04090  0.51980  Biso   1.000  C
  C10      1.0000 0.26870  0.95910  0.01980  Biso   1.000  C
  C11      1.0000 0.76870  0.54090  0.98020  Biso   1.000  C
  C12      1.0000 0.73130  0.45910  0.48020  Biso   1.000  C
  H9       1.0000 0.25930  0.93150  0.51510  Biso   1.000  H
  H10      1.0000 0.24070  0.06850  0.01510  Biso   1.000  H
  H11      1.0000 0.74070  0.43150  0.98490  Biso   1.000  H
  H12      1.0000 0.75930  0.56850  0.48490  Biso   1.000  H
  C13      1.0000 0.77600  0.98330  0.45570  Biso   1.000  C
  C14      1.0000 0.72400  0.01670  0.95570  Biso   1.000  C
  C15      1.0000 0.22400  0.48330  0.04430  Biso   1.000  C
  C16      1.0000 0.27600  0.51670  0.54430  Biso   1.000  C
  H13      1.0000 0.81490  0.05730  0.39540  Biso   1.000  H
  H14      1.0000 0.68510  0.94270  0.89540  Biso   1.000  H
  H15      1.0000 0.18510  0.55730  0.10460  Biso   1.000  H
  H16      1.0000 0.31490  0.44270  0.60460  Biso   1.000  H
  H17      1.0000 0.75560  0.87990  0.41510  Biso   1.000  H
  H18      1.0000 0.74440  0.12010  0.91510  Biso   1.000  H
  H19      1.0000 0.24440  0.37990  0.08490  Biso   1.000  H
  H20      1.0000 0.25560  0.62010  0.58490  Biso   1.000  H
  C17      1.0000 0.87500  0.95380  0.55220  Biso   1.000  C
  C18      1.0000 0.62500  0.04620  0.05220  Biso   1.000  C
  C19      1.0000 0.12500  0.45380  0.94780  Biso   1.000  C
  C20      1.0000 0.37500  0.54620  0.44780  Biso   1.000  C
  H21      1.0000 0.90620  0.05740  0.58410  Biso   1.000  H
  H22      1.0000 0.59380  0.94260  0.08410  Biso   1.000  H
  H23      1.0000 0.09380  0.55740  0.91590  Biso   1.000  H
  H24      1.0000 0.40620  0.44260  0.41590  Biso   1.000  H
  H25      1.0000 0.95050  0.89340  0.51950  Biso   1.000  H
  H26      1.0000 0.54950  0.10660  0.01950  Biso   1.000  H
  H27      1.0000 0.04950  0.39340  0.98050  Biso   1.000  H
  H28      1.0000 0.45050  0.60660  0.48050  Biso   1.000  H
  H29      1.0000 0.83370  0.89110  0.61670  Biso   1.000  H
  H30      1.0000 0.66630  0.10890  0.11670  Biso   1.000  H
  H31      1.0000 0.16630  0.39110  0.88330  Biso   1.000  H
  H32      1.0000 0.33370  0.60890  0.38330  Biso   1.000  H
  N1       1.0000 0.65180  0.05420  0.50250  Biso   1.000  N
  N2       1.0000 0.84820  0.94580  0.00250  Biso   1.000  N
  N3       1.0000 0.34820  0.55420  0.99750  Biso   1.000  N
  N4       1.0000 0.15180  0.44580  0.49750  Biso   1.000  N
  H33      1.0000 0.62050  0.99190  0.56350  Biso   1.000  H
  H34      1.0000 0.87950  0.00810  0.06350  Biso   1.000  H
  H35      1.0000 0.37950  0.49190  0.93650  Biso   1.000  H
  H36      1.0000 0.12050  0.50810  0.43650  Biso   1.000  H
  H37      1.0000 0.59040  0.05850  0.44280  Biso   1.000  H
  H38      1.0000 0.90960  0.94150  0.94280  Biso   1.000  H
  H39      1.0000 0.40960  0.55850  0.05720  Biso   1.000  H
  H40      1.0000 0.09040  0.44150  0.55720  Biso   1.000  H
  H41      1.0000 0.66810  0.15570  0.53000  Biso   1.000  H
  H42      1.0000 0.83190  0.84430  0.03000  Biso   1.000  H
  H43      1.0000 0.33190  0.65570  0.97000  Biso   1.000  H
  H44      1.0000 0.16810  0.34430  0.47000  Biso   1.000  H
