data_image0
_cell_length_a       9.038
_cell_length_b       16.481
_cell_length_c       15.132
_cell_angle_alpha    90
_cell_angle_beta     94.585
_cell_angle_gamma    90

_symmetry_space_group_name_H-M    "P 1"
_symmetry_int_tables_number       1

loop_
  _symmetry_equiv_pos_as_xyz
  'x, y, z'

loop_
  _atom_site_label
  _atom_site_occupancy
  _atom_site_fract_x
  _atom_site_fract_y
  _atom_site_fract_z
  _atom_site_thermal_displace_type
  _atom_site_B_iso_or_equiv
  _atom_site_type_symbol
  O1       1.0000 0.24840  0.31752  0.09743  Biso   1.000  O
  O2       1.0000 0.25160  0.81752  0.40257  Biso   1.000  O
  O3       1.0000 0.75160  0.68248  0.90257  Biso   1.000  O
  O4       1.0000 0.74840  0.18248  0.59743  Biso   1.000  O
  C1       1.0000 0.24640  0.39340  0.11290  Biso   1.000  C
  C2       1.0000 0.25360  0.89340  0.38710  Biso   1.000  C
  C3       1.0000 0.75360  0.60660  0.88710  Biso   1.000  C
  C4       1.0000 0.74640  0.10660  0.61290  Biso   1.000  C
  N1       1.0000 0.71270  0.70576  0.08540  Biso   1.000  N
  N2       1.0000 0.78730  0.20576  0.41460  Biso   1.000  N
  N3       1.0000 0.28730  0.29424  0.91460  Biso   1.000  N
  N4       1.0000 0.21270  0.79424  0.58540  Biso   1.000  N
  C5       1.0000 0.73340  0.66500  0.16160  Biso   1.000  C
  C6       1.0000 0.76660  0.16500  0.33840  Biso   1.000  C
  C7       1.0000 0.26660  0.33500  0.83840  Biso   1.000  C
  C8       1.0000 0.23340  0.83500  0.66160  Biso   1.000  C
  H1       1.0000 0.82710  0.64390  0.17760  Biso   1.000  H
  H2       1.0000 0.67290  0.14390  0.32240  Biso   1.000  H
  H3       1.0000 0.17290  0.35610  0.82240  Biso   1.000  H
  H4       1.0000 0.32710  0.85610  0.67760  Biso   1.000  H
  C9       1.0000 0.57690  0.73670  0.06600  Biso   1.000  C
  C10      1.0000 0.92310  0.23670  0.43400  Biso   1.000  C
  C11      1.0000 0.42310  0.26330  0.93400  Biso   1.000  C
  C12      1.0000 0.07690  0.76330  0.56600  Biso   1.000  C
  H5       1.0000 0.55850  0.76480  0.01290  Biso   1.000  H
  H6       1.0000 0.94150  0.26480  0.48710  Biso   1.000  H
  H7       1.0000 0.44150  0.23520  0.98710  Biso   1.000  H
  H8       1.0000 0.05850  0.73520  0.51290  Biso   1.000  H
  Cu1      1.0000 0.62068  0.21242  0.49369  Biso   1.000  Cu
  Cu2      1.0000 0.87932  0.71242  0.00631  Biso   1.000  Cu
  Cu3      1.0000 0.37932  0.78758  0.50631  Biso   1.000  Cu
  Cu4      1.0000 0.12068  0.28758  0.99369  Biso   1.000  Cu
  O5       1.0000 0.57400  0.35948  0.48187  Biso   1.000  O
  O6       1.0000 0.92600  0.85948  0.01813  Biso   1.000  O
  O7       1.0000 0.42600  0.64052  0.51813  Biso   1.000  O
  O8       1.0000 0.07400  0.14052  0.98187  Biso   1.000  O
  O9       1.0000 0.49010  0.25857  0.39648  Biso   1.000  O
  O10      1.0000 0.00990  0.75857  0.10352  Biso   1.000  O
  O11      1.0000 0.50990  0.74143  0.60352  Biso   1.000  O
  O12      1.0000 0.99010  0.24143  0.89648  Biso   1.000  O
  O13      1.0000 0.19200  0.44400  0.06027  Biso   1.000  O
  O14      1.0000 0.30800  0.94400  0.43973  Biso   1.000  O
  O15      1.0000 0.80800  0.55600  0.93973  Biso   1.000  O
  O16      1.0000 0.69200  0.05600  0.56027  Biso   1.000  O
  O17      1.0000 0.44890  0.19657  0.56516  Biso   1.000  O
  O18      1.0000 0.05110  0.69657  0.93484  Biso   1.000  O
  O19      1.0000 0.55110  0.80343  0.43484  Biso   1.000  O
  O20      1.0000 0.94890  0.30343  0.06516  Biso   1.000  O
  C13      1.0000 0.31530  0.42080  0.20210  Biso   1.000  C
  C14      1.0000 0.18470  0.92080  0.29790  Biso   1.000  C
  C15      1.0000 0.68470  0.57920  0.79790  Biso   1.000  C
  C16      1.0000 0.81530  0.07920  0.70210  Biso   1.000  C
  C17      1.0000 0.32340  0.50340  0.22050  Biso   1.000  C
  C18      1.0000 0.17660  0.00340  0.27950  Biso   1.000  C
  C19      1.0000 0.67660  0.49660  0.77950  Biso   1.000  C
  C20      1.0000 0.82340  0.99660  0.72050  Biso   1.000  C
  H9       1.0000 0.28930  0.54040  0.17710  Biso   1.000  H
  H10      1.0000 0.21070  0.04040  0.32290  Biso   1.000  H
  H11      1.0000 0.71070  0.45960  0.82290  Biso   1.000  H
  H12      1.0000 0.78930  0.95960  0.67710  Biso   1.000  H
  C21      1.0000 0.37010  0.36480  0.26510  Biso   1.000  C
  C22      1.0000 0.12990  0.86480  0.23490  Biso   1.000  C
  C23      1.0000 0.62990  0.63520  0.73490  Biso   1.000  C
  C24      1.0000 0.87010  0.13520  0.76510  Biso   1.000  C
  H13      1.0000 0.36610  0.30960  0.25260  Biso   1.000  H
  H14      1.0000 0.13390  0.80960  0.24740  Biso   1.000  H
  H15      1.0000 0.63390  0.69040  0.74740  Biso   1.000  H
  H16      1.0000 0.86610  0.19040  0.75260  Biso   1.000  H
  C25      1.0000 0.50200  0.33390  0.41390  Biso   1.000  C
  C26      1.0000 0.99800  0.83390  0.08610  Biso   1.000  C
  C27      1.0000 0.49800  0.66610  0.58610  Biso   1.000  C
  C28      1.0000 0.00200  0.16610  0.91390  Biso   1.000  C
  N5       1.0000 0.38740  0.61271  0.32431  Biso   1.000  N
  N6       1.0000 0.11260  0.11271  0.17569  Biso   1.000  N
  N7       1.0000 0.61260  0.38729  0.67569  Biso   1.000  N
  N8       1.0000 0.88740  0.88729  0.82431  Biso   1.000  N
  C29      1.0000 0.43590  0.47430  0.36580  Biso   1.000  C
  C30      1.0000 0.06410  0.97430  0.13420  Biso   1.000  C
  C31      1.0000 0.56410  0.52570  0.63420  Biso   1.000  C
  C32      1.0000 0.93590  0.02570  0.86580  Biso   1.000  C
  H17      1.0000 0.47570  0.49180  0.42110  Biso   1.000  H
  H18      1.0000 0.02430  0.99180  0.07890  Biso   1.000  H
  H19      1.0000 0.52430  0.50820  0.57890  Biso   1.000  H
  H20      1.0000 0.97570  0.00820  0.92110  Biso   1.000  H
  C33      1.0000 0.38190  0.53160  0.30280  Biso   1.000  C
  C34      1.0000 0.11810  0.03160  0.19720  Biso   1.000  C
  C35      1.0000 0.61810  0.46840  0.69720  Biso   1.000  C
  C36      1.0000 0.88190  0.96840  0.80280  Biso   1.000  C
  C37      1.0000 0.43100  0.39230  0.34710  Biso   1.000  C
  C38      1.0000 0.06900  0.89230  0.15290  Biso   1.000  C
  C39      1.0000 0.56900  0.60770  0.65290  Biso   1.000  C
  C40      1.0000 0.93100  0.10770  0.84710  Biso   1.000  C
  C41      1.0000 0.48480  0.68600  0.19760  Biso   1.000  C
  C42      1.0000 0.01520  0.18600  0.30240  Biso   1.000  C
  C43      1.0000 0.51520  0.31400  0.80240  Biso   1.000  C
  C44      1.0000 0.98480  0.81400  0.69760  Biso   1.000  C
  C45      1.0000 0.36350  0.67700  0.25990  Biso   1.000  C
  C46      1.0000 0.13650  0.17700  0.24010  Biso   1.000  C
  C47      1.0000 0.63650  0.32300  0.74010  Biso   1.000  C
  C48      1.0000 0.86350  0.82300  0.75990  Biso   1.000  C
  H21      1.0000 0.35370  0.72790  0.29120  Biso   1.000  H
  H22      1.0000 0.14630  0.22790  0.20880  Biso   1.000  H
  H23      1.0000 0.64630  0.27210  0.70880  Biso   1.000  H
  H24      1.0000 0.85370  0.77210  0.79120  Biso   1.000  H
  H25      1.0000 0.27050  0.66710  0.22510  Biso   1.000  H
  H26      1.0000 0.22950  0.16710  0.27490  Biso   1.000  H
  H27      1.0000 0.72950  0.33290  0.77490  Biso   1.000  H
  H28      1.0000 0.77050  0.83290  0.72510  Biso   1.000  H
  C49      1.0000 0.46460  0.72890  0.12030  Biso   1.000  C
  C50      1.0000 0.03540  0.22890  0.37970  Biso   1.000  C
  C51      1.0000 0.53540  0.27110  0.87970  Biso   1.000  C
  C52      1.0000 0.96460  0.77110  0.62030  Biso   1.000  C
  H29      1.0000 0.37320  0.75300  0.10460  Biso   1.000  H
  H30      1.0000 0.12680  0.25300  0.39540  Biso   1.000  H
  H31      1.0000 0.62680  0.24700  0.89540  Biso   1.000  H
  H32      1.0000 0.87320  0.74700  0.60460  Biso   1.000  H
  C53      1.0000 0.62400  0.65290  0.21720  Biso   1.000  C
  C54      1.0000 0.87600  0.15290  0.28280  Biso   1.000  C
  C55      1.0000 0.37600  0.34710  0.78280  Biso   1.000  C
  C56      1.0000 0.12400  0.84710  0.71720  Biso   1.000  C
  H33      1.0000 0.64310  0.62230  0.26840  Biso   1.000  H
  H34      1.0000 0.85690  0.12230  0.23160  Biso   1.000  H
  H35      1.0000 0.35690  0.37770  0.73160  Biso   1.000  H
  H36      1.0000 0.14310  0.87770  0.76840  Biso   1.000  H
  N9       1.0000 0.23630  0.13300  0.58790  Biso   1.000  N
  N10      1.0000 0.26370  0.63300  0.91210  Biso   1.000  N
  N11      1.0000 0.76370  0.86700  0.41210  Biso   1.000  N
  N12      1.0000 0.73630  0.36700  0.08790  Biso   1.000  N
  C57      1.0000 0.34760  0.15040  0.54280  Biso   1.000  C
  C58      1.0000 0.15240  0.65040  0.95720  Biso   1.000  C
  C59      1.0000 0.65240  0.84960  0.45720  Biso   1.000  C
  C60      1.0000 0.84760  0.34960  0.04280  Biso   1.000  C
  H37      1.0000 0.35060  0.12520  0.48800  Biso   1.000  H
  H38      1.0000 0.14940  0.62520  0.01200  Biso   1.000  H
  H39      1.0000 0.64940  0.87480  0.51200  Biso   1.000  H
  H40      1.0000 0.85060  0.37480  0.98800  Biso   1.000  H
  C61      1.0000 0.21590  0.17630  0.66920  Biso   1.000  C
  C62      1.0000 0.28410  0.67630  0.83080  Biso   1.000  C
  C63      1.0000 0.78410  0.82370  0.33080  Biso   1.000  C
  C64      1.0000 0.71590  0.32370  0.16920  Biso   1.000  C
  H41      1.0000 0.28860  0.21870  0.67710  Biso   1.000  H
  H42      1.0000 0.21140  0.71870  0.82290  Biso   1.000  H
  H43      1.0000 0.71140  0.78130  0.32290  Biso   1.000  H
  H44      1.0000 0.78860  0.28130  0.17710  Biso   1.000  H
  H45      1.0000 0.22740  0.13940  0.71830  Biso   1.000  H
  H46      1.0000 0.27260  0.63940  0.78170  Biso   1.000  H
  H47      1.0000 0.77260  0.86060  0.28170  Biso   1.000  H
  H48      1.0000 0.72740  0.36060  0.21830  Biso   1.000  H
  H49      1.0000 0.11820  0.19950  0.66600  Biso   1.000  H
  H50      1.0000 0.38180  0.69950  0.83400  Biso   1.000  H
  H51      1.0000 0.88180  0.80050  0.33400  Biso   1.000  H
  H52      1.0000 0.61820  0.30050  0.16600  Biso   1.000  H
  C65      1.0000 0.12070  0.07500  0.55780  Biso   1.000  C
  C66      1.0000 0.37930  0.57500  0.94220  Biso   1.000  C
  C67      1.0000 0.87930  0.92500  0.44220  Biso   1.000  C
  C68      1.0000 0.62070  0.42500  0.05780  Biso   1.000  C
  H53      1.0000 0.13930  0.05520  0.50010  Biso   1.000  H
  H54      1.0000 0.36070  0.55520  0.99990  Biso   1.000  H
  H55      1.0000 0.86070  0.94480  0.49990  Biso   1.000  H
  H56      1.0000 0.63930  0.44480  0.00010  Biso   1.000  H
  H57      1.0000 0.02570  0.10130  0.55490  Biso   1.000  H
  H58      1.0000 0.47430  0.60130  0.94510  Biso   1.000  H
  H59      1.0000 0.97430  0.89870  0.44510  Biso   1.000  H
  H60      1.0000 0.52570  0.39870  0.05490  Biso   1.000  H
  H61      1.0000 0.12130  0.03040  0.59870  Biso   1.000  H
  H62      1.0000 0.37870  0.53040  0.90130  Biso   1.000  H
  H63      1.0000 0.87870  0.96960  0.40130  Biso   1.000  H
  H64      1.0000 0.62130  0.46960  0.09870  Biso   1.000  H
  O21      1.0000 0.03350  0.45330  0.89530  Biso   1.000  O
  O22      1.0000 0.46650  0.95330  0.60470  Biso   1.000  O
  O23      1.0000 0.96650  0.54670  0.10470  Biso   1.000  O
  O24      1.0000 0.53350  0.04670  0.39530  Biso   1.000  O
  H65      1.0000 0.97130  0.49360  0.86550  Biso   1.000  H
  H66      1.0000 0.52870  0.99360  0.63450  Biso   1.000  H
  H67      1.0000 0.02870  0.50640  0.13450  Biso   1.000  H
  H68      1.0000 0.47130  0.00640  0.36550  Biso   1.000  H
  H69      1.0000 0.09580  0.47840  0.94190  Biso   1.000  H
  H70      1.0000 0.40420  0.97840  0.55810  Biso   1.000  H
  H71      1.0000 0.90420  0.52160  0.05810  Biso   1.000  H
  H72      1.0000 0.59580  0.02160  0.44190  Biso   1.000  H
  N13      1.0000 0.90460  0.53960  0.38660  Biso   1.000  N
  N14      1.0000 0.59540  0.03960  0.11340  Biso   1.000  N
  N15      1.0000 0.09540  0.46040  0.61340  Biso   1.000  N
  N16      1.0000 0.40460  0.96040  0.88660  Biso   1.000  N
  C69      1.0000 0.81480  0.57280  0.44280  Biso   1.000  C
  C70      1.0000 0.68520  0.07280  0.05720  Biso   1.000  C
  C71      1.0000 0.18520  0.42720  0.55720  Biso   1.000  C
  C72      1.0000 0.31480  0.92720  0.94280  Biso   1.000  C
  H73      1.0000 0.73640  0.54300  0.46230  Biso   1.000  H
  H74      1.0000 0.76360  0.04300  0.03770  Biso   1.000  H
  H75      1.0000 0.26360  0.45700  0.53770  Biso   1.000  H
  H76      1.0000 0.23640  0.95700  0.96230  Biso   1.000  H
  C73      1.0000 0.01380  0.59170  0.35720  Biso   1.000  C
  C74      1.0000 0.48620  0.09170  0.14280  Biso   1.000  C
  C75      1.0000 0.98620  0.40830  0.64280  Biso   1.000  C
  C76      1.0000 0.51380  0.90830  0.85720  Biso   1.000  C
  H77      1.0000 0.10780  0.57950  0.38840  Biso   1.000  H
  H78      1.0000 0.39220  0.07950  0.11160  Biso   1.000  H
  H79      1.0000 0.89220  0.42050  0.61160  Biso   1.000  H
  H80      1.0000 0.60780  0.92050  0.88840  Biso   1.000  H
  H81      1.0000 0.98740  0.64700  0.36840  Biso   1.000  H
  H82      1.0000 0.51260  0.14700  0.13160  Biso   1.000  H
  H83      1.0000 0.01260  0.35300  0.63160  Biso   1.000  H
  H84      1.0000 0.48740  0.85300  0.86840  Biso   1.000  H
  H85      1.0000 0.02060  0.58410  0.29480  Biso   1.000  H
  H86      1.0000 0.47940  0.08410  0.20520  Biso   1.000  H
  H87      1.0000 0.97940  0.41590  0.70520  Biso   1.000  H
  H88      1.0000 0.52060  0.91590  0.79480  Biso   1.000  H
  O25      1.0000 0.83690  0.64460  0.46910  Biso   1.000  O
  O26      1.0000 0.66310  0.14460  0.03090  Biso   1.000  O
  O27      1.0000 0.16310  0.35540  0.53090  Biso   1.000  O
  O28      1.0000 0.33690  0.85540  0.96910  Biso   1.000  O
  C77      1.0000 0.89170  0.46110  0.36070  Biso   1.000  C
  C78      1.0000 0.60830  0.96110  0.13930  Biso   1.000  C
  C79      1.0000 0.10830  0.53890  0.63930  Biso   1.000  C
  C80      1.0000 0.39170  0.03890  0.86070  Biso   1.000  C
  H89      1.0000 0.83290  0.43210  0.40040  Biso   1.000  H
  H90      1.0000 0.66710  0.93210  0.09960  Biso   1.000  H
  H91      1.0000 0.16710  0.56790  0.59960  Biso   1.000  H
  H92      1.0000 0.33290  0.06790  0.90040  Biso   1.000  H
  H93      1.0000 0.98850  0.43700  0.36170  Biso   1.000  H
  H94      1.0000 0.51150  0.93700  0.13830  Biso   1.000  H
  H95      1.0000 0.01150  0.56300  0.63830  Biso   1.000  H
  H96      1.0000 0.48850  0.06300  0.86170  Biso   1.000  H
  H97      1.0000 0.84440  0.45850  0.30170  Biso   1.000  H
  H98      1.0000 0.65560  0.95850  0.19830  Biso   1.000  H
  H99      1.0000 0.15560  0.54150  0.69830  Biso   1.000  H
  H100     1.0000 0.34440  0.04150  0.80170  Biso   1.000  H
  H101     1.0000 0.47650  0.62140  0.35220  Biso   1.000  H
  H102     1.0000 0.02350  0.12140  0.14780  Biso   1.000  H
  H103     1.0000 0.52350  0.37860  0.64780  Biso   1.000  H
  H104     1.0000 0.97650  0.87860  0.85220  Biso   1.000  H
  H105     1.0000 0.32160  0.62030  0.36420  Biso   1.000  H
  H106     1.0000 0.17840  0.12030  0.13580  Biso   1.000  H
  H107     1.0000 0.67840  0.37970  0.63580  Biso   1.000  H
  H108     1.0000 0.82160  0.87970  0.86420  Biso   1.000  H
