data_image0
_cell_length_a       9.046
_cell_length_b       14.626
_cell_length_c       17.588
_cell_angle_alpha    104.4
_cell_angle_beta     100.2
_cell_angle_gamma    92.47

_symmetry_space_group_name_H-M    "P 1"
_symmetry_int_tables_number       1

loop_
  _symmetry_equiv_pos_as_xyz
  'x, y, z'

loop_
  _atom_site_label
  _atom_site_occupancy
  _atom_site_fract_x
  _atom_site_fract_y
  _atom_site_fract_z
  _atom_site_thermal_displace_type
  _atom_site_B_iso_or_equiv
  _atom_site_type_symbol
  Cu1      1.0000 0.03590  0.03097  0.02012  Biso   1.000  Cu
  Cu2      1.0000 0.96410  0.96903  0.97988  Biso   1.000  Cu
  Cu3      1.0000 0.00000  0.00000  0.00000  Biso   1.000  Cu
  Cu4      1.0000 0.73956  0.76487  0.50556  Biso   1.000  Cu
  Cu5      1.0000 0.26044  0.23513  0.49444  Biso   1.000  Cu
  Cu6      1.0000 0.53460  0.52950  0.01660  Biso   1.000  Cu
  Cu7      1.0000 0.46540  0.47050  0.98340  Biso   1.000  Cu
  Cu8      1.0000 0.50000  0.50000  0.00000  Biso   1.000  Cu
  O1       1.0000 0.97840  0.98950  0.10598  Biso   1.000  O
  O2       1.0000 0.02160  0.01050  0.89402  Biso   1.000  O
  O3       1.0000 0.88960  0.83760  0.06199  Biso   1.000  O
  O4       1.0000 0.11040  0.16240  0.93801  Biso   1.000  O
  O5       1.0000 0.87960  0.82960  0.21538  Biso   1.000  O
  O6       1.0000 0.12040  0.17040  0.78462  Biso   1.000  O
  O7       1.0000 0.40610  0.79625  0.23361  Biso   1.000  O
  O8       1.0000 0.59390  0.20375  0.76639  Biso   1.000  O
  O9       1.0000 0.68800  0.75538  0.38923  Biso   1.000  O
  O10      1.0000 0.31200  0.24462  0.61077  Biso   1.000  O
  O11      1.0000 0.51020  0.85690  0.39188  Biso   1.000  O
  O12      1.0000 0.48980  0.14310  0.60812  Biso   1.000  O
  O13      1.0000 0.80200  0.75248  0.61678  Biso   1.000  O
  O14      1.0000 0.19800  0.24752  0.38322  Biso   1.000  O
  O15      1.0000 0.94090  0.63632  0.57204  Biso   1.000  O
  O16      1.0000 0.05910  0.36368  0.42796  Biso   1.000  O
  O17      1.0000 0.05980  0.63179  0.72620  Biso   1.000  O
  O18      1.0000 0.94020  0.36821  0.27380  Biso   1.000  O
  O19      1.0000 0.59500  0.64209  0.76289  Biso   1.000  O
  O20      1.0000 0.40500  0.35791  0.23711  Biso   1.000  O
  O21      1.0000 0.52820  0.50230  0.89303  Biso   1.000  O
  O22      1.0000 0.47180  0.49770  0.10697  Biso   1.000  O
  O23      1.0000 0.59980  0.65750  0.91951  Biso   1.000  O
  O24      1.0000 0.40020  0.34250  0.08049  Biso   1.000  O
  O25      1.0000 0.17000  0.18700  0.10350  Biso   1.000  O
  O26      1.0000 0.83000  0.81300  0.89650  Biso   1.000  O
  H1       1.0000 0.24600  0.15800  0.11200  Biso   1.000  H
  H2       1.0000 0.75400  0.84200  0.88800  Biso   1.000  H
  H3       1.0000 0.16300  0.20100  0.05910  Biso   1.000  H
  H4       1.0000 0.83700  0.79900  0.94090  Biso   1.000  H
  O27      1.0000 0.62760  0.89770  0.54763  Biso   1.000  O
  O28      1.0000 0.37240  0.10230  0.45237  Biso   1.000  O
  H5       1.0000 0.59700  0.92100  0.59070  Biso   1.000  H
  H6       1.0000 0.40300  0.07900  0.40930  Biso   1.000  H
  H7       1.0000 0.56400  0.90500  0.50810  Biso   1.000  H
  H8       1.0000 0.43600  0.09500  0.49190  Biso   1.000  H
  O29      1.0000 0.64540  0.67940  0.08050  Biso   1.000  O
  O30      1.0000 0.35460  0.32060  0.91950  Biso   1.000  O
  H9       1.0000 0.64700  0.70400  0.04130  Biso   1.000  H
  H10      1.0000 0.35300  0.29600  0.95870  Biso   1.000  H
  H11      1.0000 0.73600  0.67800  0.10400  Biso   1.000  H
  H12      1.0000 0.26400  0.32200  0.89600  Biso   1.000  H
  O31      1.0000 0.53830  0.98920  0.68570  Biso   1.000  O
  O32      1.0000 0.46170  0.01080  0.31430  Biso   1.000  O
  H13      1.0000 0.61500  0.97800  0.71700  Biso   1.000  H
  H14      1.0000 0.38500  0.02200  0.28300  Biso   1.000  H
  H15      1.0000 0.55500  0.04500  0.68000  Biso   1.000  H
  H16      1.0000 0.44500  0.95500  0.32000  Biso   1.000  H
  O33      1.0000 0.80190  0.91380  0.74496  Biso   1.000  O
  O34      1.0000 0.19810  0.08620  0.25504  Biso   1.000  O
  H17      1.0000 0.84700  0.90800  0.79040  Biso   1.000  H
  H18      1.0000 0.15300  0.09200  0.20960  Biso   1.000  H
  H19      1.0000 0.82000  0.86700  0.70880  Biso   1.000  H
  H20      1.0000 0.18000  0.13300  0.29120  Biso   1.000  H
  O35      1.0000 0.89370  0.55220  0.40163  Biso   1.000  O
  O36      1.0000 0.10630  0.44780  0.59837  Biso   1.000  O
  H21      1.0000 0.92200  0.58200  0.45110  Biso   1.000  H
  H22      1.0000 0.07800  0.41800  0.54890  Biso   1.000  H
  H23      1.0000 0.91800  0.49540  0.39600  Biso   1.000  H
  H24      1.0000 0.08200  0.50460  0.60400  Biso   1.000  H
  N1       1.0000 0.19650  0.94130  0.00960  Biso   1.000  N
  N2       1.0000 0.80350  0.05870  0.99040  Biso   1.000  N
  N3       1.0000 0.93790  0.83740  0.51565  Biso   1.000  N
  N4       1.0000 0.06210  0.16260  0.48435  Biso   1.000  N
  N5       1.0000 0.55570  0.67560  0.49020  Biso   1.000  N
  N6       1.0000 0.44430  0.32440  0.50980  Biso   1.000  N
  N7       1.0000 0.70050  0.44720  0.01872  Biso   1.000  N
  N8       1.0000 0.29950  0.55280  0.98128  Biso   1.000  N
  C1       1.0000 0.22370  0.87240  0.94990  Biso   1.000  C
  C2       1.0000 0.77630  0.12760  0.05010  Biso   1.000  C
  H25      1.0000 0.14870  0.85050  0.90440  Biso   1.000  H
  H26      1.0000 0.85130  0.14950  0.09560  Biso   1.000  H
  C3       1.0000 0.35860  0.83240  0.95280  Biso   1.000  C
  C4       1.0000 0.64140  0.16760  0.04720  Biso   1.000  C
  H27      1.0000 0.37470  0.78470  0.90970  Biso   1.000  H
  H28      1.0000 0.62530  0.21530  0.09030  Biso   1.000  H
  C5       1.0000 0.46710  0.86290  0.01870  Biso   1.000  C
  C6       1.0000 0.53290  0.13710  0.98130  Biso   1.000  C
  H29      1.0000 0.56000  0.83770  0.02150  Biso   1.000  H
  H30      1.0000 0.44000  0.16230  0.97850  Biso   1.000  H
  C7       1.0000 0.43840  0.93150  0.08140  Biso   1.000  C
  C8       1.0000 0.56160  0.06850  0.91860  Biso   1.000  C
  H31      1.0000 0.51020  0.95260  0.12840  Biso   1.000  H
  H32      1.0000 0.48980  0.04740  0.87160  Biso   1.000  H
  C9       1.0000 0.30180  0.96850  0.07380  Biso   1.000  C
  C10      1.0000 0.69820  0.03150  0.92620  Biso   1.000  C
  H33      1.0000 0.28300  0.01550  0.11660  Biso   1.000  H
  H34      1.0000 0.71700  0.98450  0.88340  Biso   1.000  H
  C11      1.0000 0.92490  0.91220  0.11370  Biso   1.000  C
  C12      1.0000 0.07510  0.08780  0.88630  Biso   1.000  C
  C13      1.0000 0.89910  0.91810  0.19792  Biso   1.000  C
  C14      1.0000 0.10090  0.08190  0.80208  Biso   1.000  C
  H35      1.0000 0.98450  0.95540  0.23600  Biso   1.000  H
  H36      1.0000 0.01550  0.04460  0.76400  Biso   1.000  H
  H37      1.0000 0.81040  0.95150  0.20560  Biso   1.000  H
  H38      1.0000 0.18960  0.04850  0.79440  Biso   1.000  H
  C15      1.0000 0.00730  0.78310  0.23268  Biso   1.000  C
  C16      1.0000 0.99270  0.21690  0.76732  Biso   1.000  C
  C17      1.0000 0.98320  0.70350  0.25940  Biso   1.000  C
  C18      1.0000 0.01680  0.29650  0.74060  Biso   1.000  C
  H39      1.0000 0.88680  0.68280  0.26310  Biso   1.000  H
  H40      1.0000 0.11320  0.31720  0.73690  Biso   1.000  H
  C19      1.0000 0.10550  0.65540  0.28040  Biso   1.000  C
  C20      1.0000 0.89450  0.34460  0.71960  Biso   1.000  C
  H41      1.0000 0.09050  0.60230  0.29910  Biso   1.000  H
  H42      1.0000 0.90950  0.39770  0.70090  Biso   1.000  H
  C21      1.0000 0.25000  0.68420  0.27430  Biso   1.000  C
  C22      1.0000 0.75000  0.31580  0.72570  Biso   1.000  C
  H43      1.0000 0.33130  0.65140  0.28920  Biso   1.000  H
  H44      1.0000 0.66870  0.34860  0.71080  Biso   1.000  H
  C23      1.0000 0.27040  0.76200  0.24592  Biso   1.000  C
  C24      1.0000 0.72960  0.23800  0.75408  Biso   1.000  C
  C25      1.0000 0.14920  0.81270  0.22524  Biso   1.000  C
  C26      1.0000 0.85080  0.18730  0.77476  Biso   1.000  C
  H45      1.0000 0.16420  0.86600  0.20660  Biso   1.000  H
  H46      1.0000 0.83580  0.13400  0.79340  Biso   1.000  H
  C27      1.0000 0.54030  0.75990  0.26649  Biso   1.000  C
  C28      1.0000 0.45970  0.24010  0.73351  Biso   1.000  C
  H47      1.0000 0.62340  0.77900  0.24410  Biso   1.000  H
  H48      1.0000 0.37660  0.22100  0.75590  Biso   1.000  H
  H49      1.0000 0.52630  0.69120  0.25110  Biso   1.000  H
  H50      1.0000 0.47370  0.30880  0.74890  Biso   1.000  H
  C29      1.0000 0.58050  0.79440  0.35696  Biso   1.000  C
  C30      1.0000 0.41950  0.20560  0.64304  Biso   1.000  C
  C31      1.0000 0.02820  0.80670  0.46430  Biso   1.000  C
  C32      1.0000 0.97180  0.19330  0.53570  Biso   1.000  C
  H51      1.0000 0.99640  0.75200  0.42310  Biso   1.000  H
  H52      1.0000 0.00360  0.24800  0.57690  Biso   1.000  H
  C33      1.0000 0.16740  0.85330  0.47010  Biso   1.000  C
  C34      1.0000 0.83260  0.14670  0.52990  Biso   1.000  C
  H53      1.0000 0.22820  0.83000  0.43350  Biso   1.000  H
  H54      1.0000 0.77180  0.17000  0.56650  Biso   1.000  H
  C35      1.0000 0.21470  0.93360  0.52990  Biso   1.000  C
  C36      1.0000 0.78530  0.06640  0.47010  Biso   1.000  C
  H55      1.0000 0.30800  0.96610  0.53470  Biso   1.000  H
  H56      1.0000 0.69200  0.03390  0.46530  Biso   1.000  H
  C37      1.0000 0.12230  0.96570  0.58290  Biso   1.000  C
  C38      1.0000 0.87770  0.03430  0.41710  Biso   1.000  C
  H57      1.0000 0.15220  0.02040  0.62440  Biso   1.000  H
  H58      1.0000 0.84780  0.97960  0.37560  Biso   1.000  H
  C39      1.0000 0.98500  0.91610  0.57410  Biso   1.000  C
  C40      1.0000 0.01500  0.08390  0.42590  Biso   1.000  C
  H59      1.0000 0.92270  0.93830  0.61010  Biso   1.000  H
  H60      1.0000 0.07730  0.06170  0.38990  Biso   1.000  H
  C41      1.0000 0.45180  0.69840  0.53530  Biso   1.000  C
  C42      1.0000 0.54820  0.30160  0.46470  Biso   1.000  C
  H61      1.0000 0.46980  0.75420  0.57620  Biso   1.000  H
  H62      1.0000 0.53020  0.24580  0.42380  Biso   1.000  H
  C43      1.0000 0.31990  0.64290  0.52370  Biso   1.000  C
  C44      1.0000 0.68010  0.35710  0.47630  Biso   1.000  C
  H63      1.0000 0.24870  0.66170  0.55530  Biso   1.000  H
  H64      1.0000 0.75130  0.33830  0.44470  Biso   1.000  H
  C45      1.0000 0.29380  0.55990  0.46540  Biso   1.000  C
  C46      1.0000 0.70620  0.44010  0.53460  Biso   1.000  C
  H65      1.0000 0.20490  0.52110  0.45640  Biso   1.000  H
  H66      1.0000 0.79510  0.47890  0.54360  Biso   1.000  H
  C47      1.0000 0.40200  0.53490  0.42020  Biso   1.000  C
  C48      1.0000 0.59800  0.46510  0.57980  Biso   1.000  C
  H67      1.0000 0.38780  0.47800  0.38060  Biso   1.000  H
  H68      1.0000 0.61220  0.52200  0.61940  Biso   1.000  H
  C49      1.0000 0.53060  0.59380  0.43369  Biso   1.000  C
  C50      1.0000 0.46940  0.40620  0.56631  Biso   1.000  C
  H69      1.0000 0.60270  0.57630  0.40250  Biso   1.000  H
  H70      1.0000 0.39730  0.42370  0.59750  Biso   1.000  H
  C51      1.0000 0.88970  0.68770  0.62555  Biso   1.000  C
  C52      1.0000 0.11030  0.31230  0.37445  Biso   1.000  C
  C53      1.0000 0.92460  0.67590  0.70985  Biso   1.000  C
  C54      1.0000 0.07540  0.32410  0.29015  Biso   1.000  C
  H71      1.0000 0.93350  0.73780  0.74750  Biso   1.000  H
  H72      1.0000 0.06650  0.26220  0.25250  Biso   1.000  H
  H73      1.0000 0.84110  0.63820  0.71820  Biso   1.000  H
  H74      1.0000 0.15890  0.36180  0.28180  Biso   1.000  H
  C55      1.0000 0.19270  0.68440  0.73252  Biso   1.000  C
  C56      1.0000 0.80730  0.31560  0.26748  Biso   1.000  C
  C57      1.0000 0.20320  0.77640  0.72400  Biso   1.000  C
  C58      1.0000 0.79680  0.22360  0.27600  Biso   1.000  C
  H75      1.0000 0.11720  0.80780  0.71490  Biso   1.000  H
  H76      1.0000 0.88280  0.19220  0.28510  Biso   1.000  H
  C59      1.0000 0.34400  0.81980  0.72950  Biso   1.000  C
  C60      1.0000 0.65600  0.18020  0.27050  Biso   1.000  C
  H77      1.0000 0.35260  0.88110  0.72360  Biso   1.000  H
  H78      1.0000 0.64740  0.11890  0.27640  Biso   1.000  H
  C61      1.0000 0.47270  0.77460  0.74360  Biso   1.000  C
  C62      1.0000 0.52730  0.22540  0.25640  Biso   1.000  C
  H79      1.0000 0.56700  0.80540  0.74760  Biso   1.000  H
  H80      1.0000 0.43300  0.19460  0.25240  Biso   1.000  H
  C63      1.0000 0.46060  0.68290  0.75173  Biso   1.000  C
  C64      1.0000 0.53940  0.31710  0.24827  Biso   1.000  C
  C65      1.0000 0.32150  0.63770  0.74692  Biso   1.000  C
  C66      1.0000 0.67850  0.36230  0.25308  Biso   1.000  C
  H81      1.0000 0.31360  0.57650  0.75320  Biso   1.000  H
  H82      1.0000 0.68640  0.42350  0.24680  Biso   1.000  H
  C67      1.0000 0.59260  0.55830  0.79006  Biso   1.000  C
  C68      1.0000 0.40740  0.44170  0.20994  Biso   1.000  C
  H83      1.0000 0.68660  0.52980  0.78530  Biso   1.000  H
  H84      1.0000 0.31340  0.47020  0.21470  Biso   1.000  H
  H85      1.0000 0.51130  0.51330  0.75580  Biso   1.000  H
  H86      1.0000 0.48870  0.48670  0.24420  Biso   1.000  H
  C69      1.0000 0.57170  0.57600  0.87600  Biso   1.000  C
  C70      1.0000 0.42830  0.42400  0.12400  Biso   1.000  C
  C71      1.0000 0.73690  0.37680  0.96370  Biso   1.000  C
  C72      1.0000 0.26310  0.62320  0.03630  Biso   1.000  C
  H87      1.0000 0.66690  0.35010  0.91690  Biso   1.000  H
  H88      1.0000 0.33310  0.64990  0.08310  Biso   1.000  H
  C73      1.0000 0.87700  0.34210  0.97410  Biso   1.000  C
  C74      1.0000 0.12300  0.65790  0.02590  Biso   1.000  C
  H89      1.0000 0.90020  0.29280  0.93450  Biso   1.000  H
  H90      1.0000 0.09980  0.70720  0.06550  Biso   1.000  H
  C75      1.0000 0.97940  0.37930  0.04130  Biso   1.000  C
  C76      1.0000 0.02060  0.62070  0.95870  Biso   1.000  C
  H91      1.0000 0.07440  0.35720  0.04860  Biso   1.000  H
  H92      1.0000 0.92560  0.64280  0.95140  Biso   1.000  H
  C77      1.0000 0.94040  0.45080  0.09890  Biso   1.000  C
  C78      1.0000 0.05960  0.54920  0.90110  Biso   1.000  C
  H93      1.0000 0.00820  0.47800  0.14640  Biso   1.000  H
  H94      1.0000 0.99180  0.52200  0.85360  Biso   1.000  H
  C79      1.0000 0.79930  0.48160  0.08510  Biso   1.000  C
  C80      1.0000 0.20070  0.51840  0.91490  Biso   1.000  C
  H95      1.0000 0.77260  0.52930  0.12490  Biso   1.000  H
  H96      1.0000 0.22740  0.47070  0.87510  Biso   1.000  H
