data_image0
_cell_length_a       13.472
_cell_length_b       6.695
_cell_length_c       18.247
_cell_angle_alpha    90
_cell_angle_beta     97.14
_cell_angle_gamma    90

_symmetry_space_group_name_H-M    "P 1"
_symmetry_int_tables_number       1

loop_
  _symmetry_equiv_pos_as_xyz
  'x, y, z'

loop_
  _atom_site_label
  _atom_site_occupancy
  _atom_site_fract_x
  _atom_site_fract_y
  _atom_site_fract_z
  _atom_site_thermal_displace_type
  _atom_site_B_iso_or_equiv
  _atom_site_type_symbol
  Cu1      1.0000 0.02700  0.03920  0.11370  Biso   1.000  Cu
  Cu2      1.0000 0.47300  0.03920  0.88630  Biso   1.000  Cu
  Cu3      1.0000 0.52700  0.53920  0.61370  Biso   1.000  Cu
  Cu4      1.0000 0.97300  0.53920  0.38630  Biso   1.000  Cu
  Cu5      1.0000 0.97300  0.96080  0.88630  Biso   1.000  Cu
  Cu6      1.0000 0.52700  0.96080  0.11370  Biso   1.000  Cu
  Cu7      1.0000 0.47300  0.46080  0.38630  Biso   1.000  Cu
  Cu8      1.0000 0.02700  0.46080  0.61370  Biso   1.000  Cu
  N1       1.0000 0.00400  0.22190  0.03070  Biso   1.000  N
  N2       1.0000 0.49600  0.22190  0.96930  Biso   1.000  N
  N3       1.0000 0.50400  0.72190  0.53070  Biso   1.000  N
  N4       1.0000 0.99600  0.72190  0.46930  Biso   1.000  N
  N5       1.0000 0.99600  0.77810  0.96930  Biso   1.000  N
  N6       1.0000 0.50400  0.77810  0.03070  Biso   1.000  N
  N7       1.0000 0.49600  0.27810  0.46930  Biso   1.000  N
  N8       1.0000 0.00400  0.27810  0.53070  Biso   1.000  N
  N9       1.0000 0.93340  0.31660  0.01720  Biso   1.000  N
  N10      1.0000 0.56660  0.31660  0.98280  Biso   1.000  N
  N11      1.0000 0.43340  0.81660  0.51720  Biso   1.000  N
  N12      1.0000 0.06660  0.81660  0.48280  Biso   1.000  N
  N13      1.0000 0.06660  0.68340  0.98280  Biso   1.000  N
  N14      1.0000 0.43340  0.68340  0.01720  Biso   1.000  N
  N15      1.0000 0.56660  0.18340  0.48280  Biso   1.000  N
  N16      1.0000 0.93340  0.18340  0.51720  Biso   1.000  N
  N17      1.0000 0.86160  0.40400  0.00080  Biso   1.000  N
  N18      1.0000 0.63840  0.40400  0.99920  Biso   1.000  N
  N19      1.0000 0.36160  0.90400  0.50080  Biso   1.000  N
  N20      1.0000 0.13840  0.90400  0.49920  Biso   1.000  N
  N21      1.0000 0.13840  0.59600  0.99920  Biso   1.000  N
  N22      1.0000 0.36160  0.59600  0.00080  Biso   1.000  N
  N23      1.0000 0.63840  0.09600  0.49920  Biso   1.000  N
  N24      1.0000 0.86160  0.09600  0.50080  Biso   1.000  N
  O1       1.0000 0.04740  0.24670  0.21100  Biso   1.000  O
  O2       1.0000 0.45260  0.24670  0.78900  Biso   1.000  O
  O3       1.0000 0.54740  0.74670  0.71100  Biso   1.000  O
  O4       1.0000 0.95260  0.74670  0.28900  Biso   1.000  O
  O5       1.0000 0.95260  0.75330  0.78900  Biso   1.000  O
  O6       1.0000 0.54740  0.75330  0.21100  Biso   1.000  O
  O7       1.0000 0.45260  0.25330  0.28900  Biso   1.000  O
  O8       1.0000 0.04740  0.25330  0.71100  Biso   1.000  O
  N25      1.0000 0.17600  0.04370  0.11300  Biso   1.000  N
  N26      1.0000 0.32400  0.04370  0.88700  Biso   1.000  N
  N27      1.0000 0.67600  0.54370  0.61300  Biso   1.000  N
  N28      1.0000 0.82400  0.54370  0.38700  Biso   1.000  N
  N29      1.0000 0.82400  0.95630  0.88700  Biso   1.000  N
  N30      1.0000 0.67600  0.95630  0.11300  Biso   1.000  N
  N31      1.0000 0.32400  0.45630  0.38700  Biso   1.000  N
  N32      1.0000 0.17600  0.45630  0.61300  Biso   1.000  N
  C1       1.0000 0.21960  0.87520  0.14010  Biso   1.000  C
  C2       1.0000 0.28040  0.87520  0.85990  Biso   1.000  C
  C3       1.0000 0.71960  0.37520  0.64010  Biso   1.000  C
  C4       1.0000 0.78040  0.37520  0.35990  Biso   1.000  C
  C5       1.0000 0.78040  0.12480  0.85990  Biso   1.000  C
  C6       1.0000 0.71960  0.12480  0.14010  Biso   1.000  C
  C7       1.0000 0.28040  0.62480  0.35990  Biso   1.000  C
  C8       1.0000 0.21960  0.62480  0.64010  Biso   1.000  C
  C9       1.0000 0.32240  0.85050  0.14150  Biso   1.000  C
  C10      1.0000 0.17760  0.85050  0.85850  Biso   1.000  C
  C11      1.0000 0.82240  0.35050  0.64150  Biso   1.000  C
  C12      1.0000 0.67760  0.35050  0.35850  Biso   1.000  C
  C13      1.0000 0.67760  0.14950  0.85850  Biso   1.000  C
  C14      1.0000 0.82240  0.14950  0.14150  Biso   1.000  C
  C15      1.0000 0.17760  0.64950  0.35850  Biso   1.000  C
  C16      1.0000 0.32240  0.64950  0.64150  Biso   1.000  C
  N33      1.0000 0.37910  0.99640  0.12000  Biso   1.000  N
  N34      1.0000 0.12090  0.99640  0.88000  Biso   1.000  N
  N35      1.0000 0.87910  0.49640  0.62000  Biso   1.000  N
  N36      1.0000 0.62090  0.49640  0.38000  Biso   1.000  N
  N37      1.0000 0.62090  0.00360  0.88000  Biso   1.000  N
  N38      1.0000 0.87910  0.00360  0.12000  Biso   1.000  N
  N39      1.0000 0.12090  0.50360  0.38000  Biso   1.000  N
  N40      1.0000 0.37910  0.50360  0.62000  Biso   1.000  N
  C17      1.0000 0.33550  0.16720  0.09610  Biso   1.000  C
  C18      1.0000 0.16450  0.16720  0.90390  Biso   1.000  C
  C19      1.0000 0.83550  0.66720  0.59610  Biso   1.000  C
  C20      1.0000 0.66450  0.66720  0.40390  Biso   1.000  C
  C21      1.0000 0.66450  0.83280  0.90390  Biso   1.000  C
  C22      1.0000 0.83550  0.83280  0.09610  Biso   1.000  C
  C23      1.0000 0.16450  0.33280  0.40390  Biso   1.000  C
  C24      1.0000 0.33550  0.33280  0.59610  Biso   1.000  C
  C25      1.0000 0.23250  0.18890  0.09100  Biso   1.000  C
  C26      1.0000 0.26750  0.18890  0.90900  Biso   1.000  C
  C27      1.0000 0.73250  0.68890  0.59100  Biso   1.000  C
  C28      1.0000 0.76750  0.68890  0.40900  Biso   1.000  C
  C29      1.0000 0.76750  0.81110  0.90900  Biso   1.000  C
  C30      1.0000 0.73250  0.81110  0.09100  Biso   1.000  C
  C31      1.0000 0.26750  0.31110  0.40900  Biso   1.000  C
  C32      1.0000 0.23250  0.31110  0.59100  Biso   1.000  C
  C33      1.0000 0.14980  0.72360  0.16920  Biso   1.000  C
  C34      1.0000 0.35020  0.72360  0.83080  Biso   1.000  C
  C35      1.0000 0.64980  0.22360  0.66920  Biso   1.000  C
  C36      1.0000 0.85020  0.22360  0.33080  Biso   1.000  C
  C37      1.0000 0.85020  0.27640  0.83080  Biso   1.000  C
  C38      1.0000 0.64980  0.27640  0.16920  Biso   1.000  C
  C39      1.0000 0.35020  0.77640  0.33080  Biso   1.000  C
  C40      1.0000 0.14980  0.77640  0.66920  Biso   1.000  C
  O9       1.0000 0.05900  0.78230  0.16420  Biso   1.000  O
  O10      1.0000 0.44100  0.78230  0.83580  Biso   1.000  O
  O11      1.0000 0.55900  0.28230  0.66420  Biso   1.000  O
  O12      1.0000 0.94100  0.28230  0.33580  Biso   1.000  O
  O13      1.0000 0.94100  0.21770  0.83580  Biso   1.000  O
  O14      1.0000 0.55900  0.21770  0.16420  Biso   1.000  O
  O15      1.0000 0.44100  0.71770  0.33580  Biso   1.000  O
  O16      1.0000 0.05900  0.71770  0.66420  Biso   1.000  O
  O17      1.0000 0.18380  0.56570  0.19450  Biso   1.000  O
  O18      1.0000 0.31620  0.56570  0.80550  Biso   1.000  O
  O19      1.0000 0.68380  0.06570  0.69450  Biso   1.000  O
  O20      1.0000 0.81620  0.06570  0.30550  Biso   1.000  O
  O21      1.0000 0.81620  0.43430  0.80550  Biso   1.000  O
  O22      1.0000 0.68380  0.43430  0.19450  Biso   1.000  O
  O23      1.0000 0.31620  0.93430  0.30550  Biso   1.000  O
  O24      1.0000 0.18380  0.93430  0.69450  Biso   1.000  O
  H1       1.0000 0.01050  0.25100  0.24420  Biso   1.000  H
  H2       1.0000 0.48950  0.25100  0.75580  Biso   1.000  H
  H3       1.0000 0.51050  0.75100  0.74420  Biso   1.000  H
  H4       1.0000 0.98950  0.75100  0.25580  Biso   1.000  H
  H5       1.0000 0.98950  0.74900  0.75580  Biso   1.000  H
  H6       1.0000 0.51050  0.74900  0.24420  Biso   1.000  H
  H7       1.0000 0.48950  0.24900  0.25580  Biso   1.000  H
  H8       1.0000 0.01050  0.24900  0.74420  Biso   1.000  H
  H9       1.0000 0.08260  0.34700  0.21060  Biso   1.000  H
  H10      1.0000 0.41740  0.34700  0.78940  Biso   1.000  H
  H11      1.0000 0.58260  0.84700  0.71060  Biso   1.000  H
  H12      1.0000 0.91740  0.84700  0.28940  Biso   1.000  H
  H13      1.0000 0.91740  0.65300  0.78940  Biso   1.000  H
  H14      1.0000 0.58260  0.65300  0.21060  Biso   1.000  H
  H15      1.0000 0.41740  0.15300  0.28940  Biso   1.000  H
  H16      1.0000 0.08260  0.15300  0.71060  Biso   1.000  H
  H17      1.0000 0.35190  0.73020  0.15780  Biso   1.000  H
  H18      1.0000 0.14810  0.73020  0.84220  Biso   1.000  H
  H19      1.0000 0.85190  0.23020  0.65780  Biso   1.000  H
  H20      1.0000 0.64810  0.23020  0.34220  Biso   1.000  H
  H21      1.0000 0.64810  0.26980  0.84220  Biso   1.000  H
  H22      1.0000 0.85190  0.26980  0.15780  Biso   1.000  H
  H23      1.0000 0.14810  0.76980  0.34220  Biso   1.000  H
  H24      1.0000 0.35190  0.76980  0.65780  Biso   1.000  H
  H25      1.0000 0.37450  0.27260  0.08280  Biso   1.000  H
  H26      1.0000 0.12550  0.27260  0.91720  Biso   1.000  H
  H27      1.0000 0.87450  0.77260  0.58280  Biso   1.000  H
  H28      1.0000 0.62550  0.77260  0.41720  Biso   1.000  H
  H29      1.0000 0.62550  0.72740  0.91720  Biso   1.000  H
  H30      1.0000 0.87450  0.72740  0.08280  Biso   1.000  H
  H31      1.0000 0.12550  0.22740  0.41720  Biso   1.000  H
  H32      1.0000 0.37450  0.22740  0.58280  Biso   1.000  H
  H33      1.0000 0.20270  0.30640  0.07200  Biso   1.000  H
  H34      1.0000 0.29730  0.30640  0.92800  Biso   1.000  H
  H35      1.0000 0.70270  0.80640  0.57200  Biso   1.000  H
  H36      1.0000 0.79730  0.80640  0.42800  Biso   1.000  H
  H37      1.0000 0.79730  0.69360  0.92800  Biso   1.000  H
  H38      1.0000 0.70270  0.69360  0.07200  Biso   1.000  H
  H39      1.0000 0.29730  0.19360  0.42800  Biso   1.000  H
  H40      1.0000 0.20270  0.19360  0.57200  Biso   1.000  H
