data_image0
_cell_length_a       5.645
_cell_length_b       12.775
_cell_length_c       11.054
_cell_angle_alpha    90
_cell_angle_beta     102.07
_cell_angle_gamma    90

_symmetry_space_group_name_H-M    "P 1"
_symmetry_int_tables_number       1

loop_
  _symmetry_equiv_pos_as_xyz
  'x, y, z'

loop_
  _atom_site_label
  _atom_site_occupancy
  _atom_site_fract_x
  _atom_site_fract_y
  _atom_site_fract_z
  _atom_site_thermal_displace_type
  _atom_site_B_iso_or_equiv
  _atom_site_type_symbol
  Cu1      1.0000 0.05450  0.22320  0.33990  Biso   1.000  Cu
  Cu2      1.0000 0.44550  0.72320  0.16010  Biso   1.000  Cu
  Cu3      1.0000 0.94550  0.77680  0.66010  Biso   1.000  Cu
  Cu4      1.0000 0.55450  0.27680  0.83990  Biso   1.000  Cu
  N1       1.0000 0.92400  0.22590  0.49600  Biso   1.000  N
  N2       1.0000 0.57600  0.72590  0.00400  Biso   1.000  N
  N3       1.0000 0.07600  0.77410  0.50400  Biso   1.000  N
  N4       1.0000 0.42400  0.27410  0.99600  Biso   1.000  N
  C1       1.0000 0.80190  0.31470  0.50570  Biso   1.000  C
  C2       1.0000 0.69810  0.81470  0.99430  Biso   1.000  C
  C3       1.0000 0.19810  0.68530  0.49430  Biso   1.000  C
  C4       1.0000 0.30190  0.18530  0.00570  Biso   1.000  C
  C5       1.0000 0.68400  0.32930  0.60140  Biso   1.000  C
  C6       1.0000 0.81600  0.82930  0.89860  Biso   1.000  C
  C7       1.0000 0.31600  0.67070  0.39860  Biso   1.000  C
  C8       1.0000 0.18400  0.17070  0.10140  Biso   1.000  C
  N5       1.0000 0.68550  0.25330  0.68650  Biso   1.000  N
  N6       1.0000 0.81450  0.75330  0.81350  Biso   1.000  N
  N7       1.0000 0.31450  0.74670  0.31350  Biso   1.000  N
  N8       1.0000 0.18550  0.24670  0.18650  Biso   1.000  N
  C9       1.0000 0.80220  0.16460  0.67450  Biso   1.000  C
  C10      1.0000 0.69780  0.66460  0.82550  Biso   1.000  C
  C11      1.0000 0.19780  0.83540  0.32550  Biso   1.000  C
  C12      1.0000 0.30220  0.33540  0.17450  Biso   1.000  C
  C13      1.0000 0.92740  0.15130  0.58050  Biso   1.000  C
  C14      1.0000 0.57260  0.65130  0.91950  Biso   1.000  C
  C15      1.0000 0.07260  0.84870  0.41950  Biso   1.000  C
  C16      1.0000 0.42740  0.34870  0.08050  Biso   1.000  C
  C17      1.0000 0.80540  0.39460  0.40560  Biso   1.000  C
  C18      1.0000 0.69460  0.89460  0.09440  Biso   1.000  C
  C19      1.0000 0.19460  0.60540  0.59440  Biso   1.000  C
  C20      1.0000 0.30540  0.10540  0.90560  Biso   1.000  C
  O1       1.0000 0.70420  0.47880  0.41000  Biso   1.000  O
  O2       1.0000 0.79580  0.97880  0.09000  Biso   1.000  O
  O3       1.0000 0.29580  0.52120  0.59000  Biso   1.000  O
  O4       1.0000 0.20420  0.02120  0.91000  Biso   1.000  O
  O5       1.0000 0.91770  0.36610  0.32320  Biso   1.000  O
  O6       1.0000 0.58230  0.86610  0.17680  Biso   1.000  O
  O7       1.0000 0.08230  0.63390  0.67680  Biso   1.000  O
  O8       1.0000 0.41770  0.13390  0.82320  Biso   1.000  O
  Cl1      1.0000 0.33120  0.09920  0.40750  Biso   1.000  Cl
  Cl2      1.0000 0.16880  0.59920  0.09250  Biso   1.000  Cl
  Cl3      1.0000 0.66880  0.90080  0.59250  Biso   1.000  Cl
  Cl4      1.0000 0.83120  0.40080  0.90750  Biso   1.000  Cl
  O9       1.0000 0.73360  0.13220  0.24800  Biso   1.000  O
  O10      1.0000 0.76640  0.63220  0.25200  Biso   1.000  O
  O11      1.0000 0.26640  0.86780  0.75200  Biso   1.000  O
  O12      1.0000 0.23360  0.36780  0.74800  Biso   1.000  O
  H1       1.0000 0.60280  0.39180  0.60750  Biso   1.000  H
  H2       1.0000 0.89720  0.89180  0.89250  Biso   1.000  H
  H3       1.0000 0.39720  0.60820  0.39250  Biso   1.000  H
  H4       1.0000 0.10280  0.10820  0.10750  Biso   1.000  H
  H5       1.0000 0.79950  0.11040  0.73040  Biso   1.000  H
  H6       1.0000 0.70050  0.61040  0.76960  Biso   1.000  H
  H7       1.0000 0.20050  0.88960  0.26960  Biso   1.000  H
  H8       1.0000 0.29950  0.38960  0.23040  Biso   1.000  H
  H9       1.0000 0.01440  0.09010  0.57640  Biso   1.000  H
  H10      1.0000 0.48560  0.59010  0.92360  Biso   1.000  H
  H11      1.0000 0.98560  0.90990  0.42360  Biso   1.000  H
  H12      1.0000 0.51440  0.40990  0.07640  Biso   1.000  H
  H13      1.0000 0.74330  0.08020  0.20450  Biso   1.000  H
  H14      1.0000 0.75670  0.58020  0.29550  Biso   1.000  H
  H15      1.0000 0.25670  0.91980  0.79550  Biso   1.000  H
  H16      1.0000 0.24330  0.41980  0.70450  Biso   1.000  H
  H17      1.0000 0.64730  0.11670  0.29810  Biso   1.000  H
  H18      1.0000 0.85270  0.61670  0.20190  Biso   1.000  H
  H19      1.0000 0.35270  0.88330  0.70190  Biso   1.000  H
  H20      1.0000 0.14730  0.38330  0.79810  Biso   1.000  H
