data_image0
_cell_length_a       18.8435
_cell_length_b       6.2038
_cell_length_c       13.4129
_cell_angle_alpha    90
_cell_angle_beta     105.534
_cell_angle_gamma    90

_symmetry_space_group_name_H-M    "P 1"
_symmetry_int_tables_number       1

loop_
  _symmetry_equiv_pos_as_xyz
  'x, y, z'

loop_
  _atom_site_label
  _atom_site_occupancy
  _atom_site_fract_x
  _atom_site_fract_y
  _atom_site_fract_z
  _atom_site_thermal_displace_type
  _atom_site_B_iso_or_equiv
  _atom_site_type_symbol
  Cu1      1.0000 0.38438  0.56823  0.35749  Biso   1.000  Cu
  Cu2      1.0000 0.88438  0.06823  0.35749  Biso   1.000  Cu
  Cu3      1.0000 0.61562  0.56823  0.14251  Biso   1.000  Cu
  Cu4      1.0000 0.11562  0.06823  0.14251  Biso   1.000  Cu
  Cu5      1.0000 0.61562  0.43177  0.64251  Biso   1.000  Cu
  Cu6      1.0000 0.11562  0.93177  0.64251  Biso   1.000  Cu
  Cu7      1.0000 0.38438  0.43177  0.85749  Biso   1.000  Cu
  Cu8      1.0000 0.88438  0.93177  0.85749  Biso   1.000  Cu
  Cl1      1.0000 0.46448  0.83711  0.37073  Biso   1.000  Cl
  Cl2      1.0000 0.96448  0.33711  0.37073  Biso   1.000  Cl
  Cl3      1.0000 0.53552  0.83711  0.12927  Biso   1.000  Cl
  Cl4      1.0000 0.03552  0.33711  0.12927  Biso   1.000  Cl
  Cl5      1.0000 0.53552  0.16289  0.62927  Biso   1.000  Cl
  Cl6      1.0000 0.03552  0.66289  0.62927  Biso   1.000  Cl
  Cl7      1.0000 0.46448  0.16289  0.87073  Biso   1.000  Cl
  Cl8      1.0000 0.96448  0.66289  0.87073  Biso   1.000  Cl
  C1       1.0000 0.36240  0.37660  0.53576  Biso   1.000  C
  C2       1.0000 0.86240  0.87660  0.53576  Biso   1.000  C
  C3       1.0000 0.63760  0.37660  0.96424  Biso   1.000  C
  C4       1.0000 0.13760  0.87660  0.96424  Biso   1.000  C
  C5       1.0000 0.63760  0.62340  0.46424  Biso   1.000  C
  C6       1.0000 0.13760  0.12340  0.46424  Biso   1.000  C
  C7       1.0000 0.36240  0.62340  0.03576  Biso   1.000  C
  C8       1.0000 0.86240  0.12340  0.03576  Biso   1.000  C
  C9       1.0000 0.36048  0.33880  0.63671  Biso   1.000  C
  C10      1.0000 0.86048  0.83880  0.63671  Biso   1.000  C
  C11      1.0000 0.63952  0.33880  0.86329  Biso   1.000  C
  C12      1.0000 0.13952  0.83880  0.86329  Biso   1.000  C
  C13      1.0000 0.63952  0.66120  0.36329  Biso   1.000  C
  C14      1.0000 0.13952  0.16120  0.36329  Biso   1.000  C
  C15      1.0000 0.36048  0.66120  0.13671  Biso   1.000  C
  C16      1.0000 0.86048  0.16120  0.13671  Biso   1.000  C
  H1       1.0000 0.34270  0.20810  0.65400  Biso   1.000  H
  H2       1.0000 0.84270  0.70810  0.65400  Biso   1.000  H
  H3       1.0000 0.65730  0.20810  0.84600  Biso   1.000  H
  H4       1.0000 0.15730  0.70810  0.84600  Biso   1.000  H
  H5       1.0000 0.65730  0.79190  0.34600  Biso   1.000  H
  H6       1.0000 0.15730  0.29190  0.34600  Biso   1.000  H
  H7       1.0000 0.34270  0.79190  0.15400  Biso   1.000  H
  H8       1.0000 0.84270  0.29190  0.15400  Biso   1.000  H
  C17      1.0000 0.40963  0.67440  0.68166  Biso   1.000  C
  C18      1.0000 0.90963  0.17440  0.68166  Biso   1.000  C
  C19      1.0000 0.59037  0.67440  0.81834  Biso   1.000  C
  C20      1.0000 0.09037  0.17440  0.81834  Biso   1.000  C
  C21      1.0000 0.59037  0.32560  0.31834  Biso   1.000  C
  C22      1.0000 0.09037  0.82560  0.31834  Biso   1.000  C
  C23      1.0000 0.40963  0.32560  0.18166  Biso   1.000  C
  C24      1.0000 0.90963  0.82560  0.18166  Biso   1.000  C
  H9       1.0000 0.42430  0.78340  0.73050  Biso   1.000  H
  H10      1.0000 0.92430  0.28340  0.73050  Biso   1.000  H
  H11      1.0000 0.57570  0.78340  0.76950  Biso   1.000  H
  H12      1.0000 0.07570  0.28340  0.76950  Biso   1.000  H
  H13      1.0000 0.57570  0.21660  0.26950  Biso   1.000  H
  H14      1.0000 0.07570  0.71660  0.26950  Biso   1.000  H
  H15      1.0000 0.42430  0.21660  0.23050  Biso   1.000  H
  H16      1.0000 0.92430  0.71660  0.23050  Biso   1.000  H
  C25      1.0000 0.41481  0.70760  0.58210  Biso   1.000  C
  C26      1.0000 0.91481  0.20760  0.58210  Biso   1.000  C
  C27      1.0000 0.58519  0.70760  0.91790  Biso   1.000  C
  C28      1.0000 0.08519  0.20760  0.91790  Biso   1.000  C
  C29      1.0000 0.58519  0.29240  0.41790  Biso   1.000  C
  C30      1.0000 0.08519  0.79240  0.41790  Biso   1.000  C
  C31      1.0000 0.41481  0.29240  0.08210  Biso   1.000  C
  C32      1.0000 0.91481  0.79240  0.08210  Biso   1.000  C
  H17      1.0000 0.43550  0.83440  0.56570  Biso   1.000  H
  H18      1.0000 0.93550  0.33440  0.56570  Biso   1.000  H
  H19      1.0000 0.56450  0.83440  0.93430  Biso   1.000  H
  H20      1.0000 0.06450  0.33440  0.93430  Biso   1.000  H
  H21      1.0000 0.56450  0.16560  0.43430  Biso   1.000  H
  H22      1.0000 0.06450  0.66560  0.43430  Biso   1.000  H
  H23      1.0000 0.43550  0.16560  0.06570  Biso   1.000  H
  H24      1.0000 0.93550  0.66560  0.06570  Biso   1.000  H
  C33      1.0000 0.33198  0.22050  0.44837  Biso   1.000  C
  C34      1.0000 0.83198  0.72050  0.44837  Biso   1.000  C
  C35      1.0000 0.66802  0.22050  0.05163  Biso   1.000  C
  C36      1.0000 0.16802  0.72050  0.05163  Biso   1.000  C
  C37      1.0000 0.66802  0.77950  0.55163  Biso   1.000  C
  C38      1.0000 0.16802  0.27950  0.55163  Biso   1.000  C
  C39      1.0000 0.33198  0.77950  0.94837  Biso   1.000  C
  C40      1.0000 0.83198  0.27950  0.94837  Biso   1.000  C
  N1       1.0000 0.39020  0.55830  0.50923  Biso   1.000  N
  N2       1.0000 0.89020  0.05830  0.50923  Biso   1.000  N
  N3       1.0000 0.60980  0.55830  0.99077  Biso   1.000  N
  N4       1.0000 0.10980  0.05830  0.99077  Biso   1.000  N
  N5       1.0000 0.60980  0.44170  0.49077  Biso   1.000  N
  N6       1.0000 0.10980  0.94170  0.49077  Biso   1.000  N
  N7       1.0000 0.39020  0.44170  0.00923  Biso   1.000  N
  N8       1.0000 0.89020  0.94170  0.00923  Biso   1.000  N
  N9       1.0000 0.38405  0.48950  0.70953  Biso   1.000  N
  N10      1.0000 0.88405  0.98950  0.70953  Biso   1.000  N
  N11      1.0000 0.61595  0.48950  0.79047  Biso   1.000  N
  N12      1.0000 0.11595  0.98950  0.79047  Biso   1.000  N
  N13      1.0000 0.61595  0.51050  0.29047  Biso   1.000  N
  N14      1.0000 0.11595  0.01050  0.29047  Biso   1.000  N
  N15      1.0000 0.38405  0.51050  0.20953  Biso   1.000  N
  N16      1.0000 0.88405  0.01050  0.20953  Biso   1.000  N
  O1       1.0000 0.33849  0.28270  0.36047  Biso   1.000  O
  O2       1.0000 0.83849  0.78270  0.36047  Biso   1.000  O
  O3       1.0000 0.66151  0.28270  0.13953  Biso   1.000  O
  O4       1.0000 0.16151  0.78270  0.13953  Biso   1.000  O
  O5       1.0000 0.66151  0.71730  0.63953  Biso   1.000  O
  O6       1.0000 0.16151  0.21730  0.63953  Biso   1.000  O
  O7       1.0000 0.33849  0.71730  0.86047  Biso   1.000  O
  O8       1.0000 0.83849  0.21730  0.86047  Biso   1.000  O
  O9       1.0000 0.30234  0.05450  0.46599  Biso   1.000  O
  O10      1.0000 0.80234  0.55450  0.46599  Biso   1.000  O
  O11      1.0000 0.69766  0.05450  0.03401  Biso   1.000  O
  O12      1.0000 0.19766  0.55450  0.03401  Biso   1.000  O
  O13      1.0000 0.69766  0.94550  0.53401  Biso   1.000  O
  O14      1.0000 0.19766  0.44550  0.53401  Biso   1.000  O
  O15      1.0000 0.30234  0.94550  0.96599  Biso   1.000  O
  O16      1.0000 0.80234  0.44550  0.96599  Biso   1.000  O
  O17      1.0000 0.27682  0.72840  0.32162  Biso   1.000  O
  O18      1.0000 0.77682  0.22840  0.32162  Biso   1.000  O
  O19      1.0000 0.72318  0.72840  0.17838  Biso   1.000  O
  O20      1.0000 0.22318  0.22840  0.17838  Biso   1.000  O
  O21      1.0000 0.72318  0.27160  0.67838  Biso   1.000  O
  O22      1.0000 0.22318  0.77160  0.67838  Biso   1.000  O
  O23      1.0000 0.27682  0.27160  0.82162  Biso   1.000  O
  O24      1.0000 0.77682  0.77160  0.82162  Biso   1.000  O
  H25      1.0000 0.28150  0.83500  0.35500  Biso   1.000  H
  H26      1.0000 0.78150  0.33500  0.35500  Biso   1.000  H
  H27      1.0000 0.71850  0.83500  0.14500  Biso   1.000  H
  H28      1.0000 0.21850  0.33500  0.14500  Biso   1.000  H
  H29      1.0000 0.71850  0.16500  0.64500  Biso   1.000  H
  H30      1.0000 0.21850  0.66500  0.64500  Biso   1.000  H
  H31      1.0000 0.28150  0.16500  0.85500  Biso   1.000  H
  H32      1.0000 0.78150  0.66500  0.85500  Biso   1.000  H
  H33      1.0000 0.24330  0.73400  0.27130  Biso   1.000  H
  H34      1.0000 0.74330  0.23400  0.27130  Biso   1.000  H
  H35      1.0000 0.75670  0.73400  0.22870  Biso   1.000  H
  H36      1.0000 0.25670  0.23400  0.22870  Biso   1.000  H
  H37      1.0000 0.75670  0.26600  0.72870  Biso   1.000  H
  H38      1.0000 0.25670  0.76600  0.72870  Biso   1.000  H
  H39      1.0000 0.24330  0.26600  0.77130  Biso   1.000  H
  H40      1.0000 0.74330  0.76600  0.77130  Biso   1.000  H
