data_image0
_cell_length_a       11.7978
_cell_length_b       13.8814
_cell_length_c       17.237
_cell_angle_alpha    77.851
_cell_angle_beta     77.219
_cell_angle_gamma    73.103

_symmetry_space_group_name_H-M    "P 1"
_symmetry_int_tables_number       1

loop_
  _symmetry_equiv_pos_as_xyz
  'x, y, z'

loop_
  _atom_site_label
  _atom_site_occupancy
  _atom_site_fract_x
  _atom_site_fract_y
  _atom_site_fract_z
  _atom_site_thermal_displace_type
  _atom_site_B_iso_or_equiv
  _atom_site_type_symbol
  Cu1      1.0000 0.70482  0.52733  0.71665  Biso   1.000  Cu
  Cu2      1.0000 0.29518  0.47267  0.28335  Biso   1.000  Cu
  Cl1      1.0000 0.76852  0.87360  0.86264  Biso   1.000  Cl
  Cl2      1.0000 0.23148  0.12640  0.13736  Biso   1.000  Cl
  Cl3      1.0000 0.77594  0.80450  0.30685  Biso   1.000  Cl
  Cl4      1.0000 0.22406  0.19550  0.69315  Biso   1.000  Cl
  O1       1.0000 0.99090  0.24740  0.40580  Biso   1.000  O
  O2       1.0000 0.00910  0.75260  0.59420  Biso   1.000  O
  O3       1.0000 0.29640  0.73639  0.46505  Biso   1.000  O
  O4       1.0000 0.70360  0.26361  0.53495  Biso   1.000  O
  O5       1.0000 0.18419  0.67293  0.99360  Biso   1.000  O
  O6       1.0000 0.81581  0.32707  0.00640  Biso   1.000  O
  O7       1.0000 0.72130  0.35818  0.76662  Biso   1.000  O
  O8       1.0000 0.27870  0.64182  0.23338  Biso   1.000  O
  O9       1.0000 0.85286  0.51407  0.75815  Biso   1.000  O
  O10      1.0000 0.14714  0.48593  0.24185  Biso   1.000  O
  O11      1.0000 0.33420  0.81940  0.72820  Biso   1.000  O
  O12      1.0000 0.66580  0.18060  0.27180  Biso   1.000  O
  O13      1.0000 0.69850  0.71388  0.66414  Biso   1.000  O
  O14      1.0000 0.30150  0.28612  0.33586  Biso   1.000  O
  O15      1.0000 0.63860  0.63920  0.12557  Biso   1.000  O
  O16      1.0000 0.36140  0.36080  0.87443  Biso   1.000  O
  O17      1.0000 0.64580  0.90940  0.86590  Biso   1.000  O
  O18      1.0000 0.35420  0.09060  0.13410  Biso   1.000  O
  O19      1.0000 0.78680  0.77690  0.88870  Biso   1.000  O
  O20      1.0000 0.21320  0.22310  0.11130  Biso   1.000  O
  O21      1.0000 0.84370  0.88730  0.78760  Biso   1.000  O
  O22      1.0000 0.15630  0.11270  0.21240  Biso   1.000  O
  O23      1.0000 0.78140  0.94240  0.90400  Biso   1.000  O
  O24      1.0000 0.21860  0.05760  0.09600  Biso   1.000  O
  O25      1.0000 0.89410  0.75857  0.32256  Biso   1.000  O
  O26      1.0000 0.10590  0.24143  0.67744  Biso   1.000  O
  O27      1.0000 0.79140  0.79780  0.22210  Biso   1.000  O
  O28      1.0000 0.20860  0.20220  0.77790  Biso   1.000  O
  O29      1.0000 0.69770  0.75750  0.34800  Biso   1.000  O
  O30      1.0000 0.30230  0.24250  0.65200  Biso   1.000  O
  O31      1.0000 0.74410  0.91250  0.30130  Biso   1.000  O
  O32      1.0000 0.25590  0.08750  0.69870  Biso   1.000  O
  N1       1.0000 0.80561  0.49461  0.60836  Biso   1.000  N
  N2       1.0000 0.19439  0.50539  0.39164  Biso   1.000  N
  N3       1.0000 0.00781  0.27065  0.52786  Biso   1.000  N
  N4       1.0000 0.99219  0.72935  0.47214  Biso   1.000  N
  H1       1.0000 0.04310  0.24350  0.56880  Biso   1.000  H
  H2       1.0000 0.95690  0.75650  0.43120  Biso   1.000  H
  N5       1.0000 0.55995  0.53629  0.66849  Biso   1.000  N
  N6       1.0000 0.44005  0.46371  0.33151  Biso   1.000  N
  N7       1.0000 0.32340  0.74444  0.58911  Biso   1.000  N
  N8       1.0000 0.67660  0.25556  0.41089  Biso   1.000  N
  H3       1.0000 0.30510  0.78260  0.62580  Biso   1.000  H
  H4       1.0000 0.69490  0.21740  0.37420  Biso   1.000  H
  N9       1.0000 0.59615  0.57031  0.82073  Biso   1.000  N
  N10      1.0000 0.40385  0.42969  0.17927  Biso   1.000  N
  N11      1.0000 0.30772  0.53693  0.93847  Biso   1.000  N
  N12      1.0000 0.69228  0.46307  0.06153  Biso   1.000  N
  H5       1.0000 0.31220  0.47750  0.92880  Biso   1.000  H
  H6       1.0000 0.68780  0.52250  0.07120  Biso   1.000  H
  N13      1.0000 0.84900  0.21254  0.81269  Biso   1.000  N
  N14      1.0000 0.15100  0.78746  0.18731  Biso   1.000  N
  N15      1.0000 0.02250  0.55410  0.76495  Biso   1.000  N
  N16      1.0000 0.97750  0.44590  0.23505  Biso   1.000  N
  N17      1.0000 0.23220  0.87570  0.84240  Biso   1.000  N
  N18      1.0000 0.76780  0.12430  0.15760  Biso   1.000  N
  N19      1.0000 0.59970  0.87860  0.63350  Biso   1.000  N
  N20      1.0000 0.40030  0.12140  0.36650  Biso   1.000  N
  N21      1.0000 0.57350  0.80810  0.12670  Biso   1.000  N
  N22      1.0000 0.42650  0.19190  0.87330  Biso   1.000  N
  C1       1.0000 0.87920  0.40127  0.60064  Biso   1.000  C
  C2       1.0000 0.12080  0.59873  0.39936  Biso   1.000  C
  H7       1.0000 0.89350  0.35520  0.64730  Biso   1.000  H
  H8       1.0000 0.10650  0.64480  0.35270  Biso   1.000  H
  C3       1.0000 0.93420  0.37033  0.52777  Biso   1.000  C
  C4       1.0000 0.06580  0.62967  0.47223  Biso   1.000  C
  C5       1.0000 0.91490  0.43981  0.45842  Biso   1.000  C
  C6       1.0000 0.08510  0.56019  0.54158  Biso   1.000  C
  H9       1.0000 0.95020  0.42200  0.40780  Biso   1.000  H
  H10      1.0000 0.04980  0.57800  0.59220  Biso   1.000  H
  C7       1.0000 0.84180  0.53614  0.46644  Biso   1.000  C
  C8       1.0000 0.15820  0.46386  0.53356  Biso   1.000  C
  H11      1.0000 0.82890  0.58460  0.42080  Biso   1.000  H
  H12      1.0000 0.17110  0.41540  0.57920  Biso   1.000  H
  C9       1.0000 0.78890  0.56039  0.54047  Biso   1.000  C
  C10      1.0000 0.21110  0.43961  0.45953  Biso   1.000  C
  H13      1.0000 0.73890  0.62540  0.54420  Biso   1.000  H
  H14      1.0000 0.26110  0.37460  0.45580  Biso   1.000  H
  C11      1.0000 0.02820  0.21320  0.46877  Biso   1.000  C
  C12      1.0000 0.97180  0.78680  0.53123  Biso   1.000  C
  C13      1.0000 0.09690  0.10378  0.48558  Biso   1.000  C
  C14      1.0000 0.90310  0.89622  0.51442  Biso   1.000  C
  C15      1.0000 0.12630  0.05610  0.56009  Biso   1.000  C
  C16      1.0000 0.87370  0.94390  0.43991  Biso   1.000  C
  H15      1.0000 0.10550  0.09290  0.60270  Biso   1.000  H
  H16      1.0000 0.89450  0.90710  0.39730  Biso   1.000  H
  C17      1.0000 0.12770  0.04740  0.42420  Biso   1.000  C
  C18      1.0000 0.87230  0.95260  0.57580  Biso   1.000  C
  H17      1.0000 0.10820  0.07820  0.37380  Biso   1.000  H
  H18      1.0000 0.89180  0.92180  0.62620  Biso   1.000  H
  C19      1.0000 0.48510  0.62805  0.64953  Biso   1.000  C
  C20      1.0000 0.51490  0.37195  0.35047  Biso   1.000  C
  H19      1.0000 0.49510  0.68390  0.66650  Biso   1.000  H
  H20      1.0000 0.50490  0.31610  0.33350  Biso   1.000  H
  C21      1.0000 0.39440  0.64390  0.60639  Biso   1.000  C
  C22      1.0000 0.60560  0.35610  0.39361  Biso   1.000  C
  C23      1.0000 0.37720  0.56000  0.58340  Biso   1.000  C
  C24      1.0000 0.62280  0.44000  0.41660  Biso   1.000  C
  H21      1.0000 0.31620  0.56730  0.55480  Biso   1.000  H
  H22      1.0000 0.68380  0.43270  0.44520  Biso   1.000  H
  C25      1.0000 0.45230  0.46560  0.60400  Biso   1.000  C
  C26      1.0000 0.54770  0.53440  0.39600  Biso   1.000  C
  H23      1.0000 0.44180  0.40820  0.58970  Biso   1.000  H
  H24      1.0000 0.55820  0.59180  0.41030  Biso   1.000  H
  C27      1.0000 0.54270  0.45620  0.64541  Biso   1.000  C
  C28      1.0000 0.45730  0.54380  0.35459  Biso   1.000  C
  H25      1.0000 0.59360  0.39210  0.65790  Biso   1.000  H
  H26      1.0000 0.40640  0.60790  0.34210  Biso   1.000  H
  C29      1.0000 0.28210  0.78510  0.51880  Biso   1.000  C
  C30      1.0000 0.71790  0.21490  0.48120  Biso   1.000  C
  C31      1.0000 0.21710  0.89680  0.51006  Biso   1.000  C
  C32      1.0000 0.78290  0.10320  0.48994  Biso   1.000  C
  C33      1.0000 0.18690  0.95350  0.57160  Biso   1.000  C
  C34      1.0000 0.81310  0.04650  0.42840  Biso   1.000  C
  H27      1.0000 0.20740  0.92260  0.62170  Biso   1.000  H
  H28      1.0000 0.79260  0.07740  0.37830  Biso   1.000  H
  C35      1.0000 0.18780  0.94460  0.43641  Biso   1.000  C
  C36      1.0000 0.81220  0.05540  0.56359  Biso   1.000  C
  H29      1.0000 0.20850  0.90770  0.39390  Biso   1.000  H
  H30      1.0000 0.79150  0.09230  0.60610  Biso   1.000  H
  C37      1.0000 0.49470  0.53959  0.84948  Biso   1.000  C
  C38      1.0000 0.50530  0.46041  0.15052  Biso   1.000  C
  H31      1.0000 0.47880  0.49380  0.82360  Biso   1.000  H
  H32      1.0000 0.52120  0.50620  0.17640  Biso   1.000  H
  C39      1.0000 0.41280  0.57242  0.91537  Biso   1.000  C
  C40      1.0000 0.58720  0.42758  0.08463  Biso   1.000  C
  C41      1.0000 0.43930  0.63850  0.95503  Biso   1.000  C
  C42      1.0000 0.56070  0.36150  0.04497  Biso   1.000  C
  H33      1.0000 0.38770  0.66130  0.00040  Biso   1.000  H
  H34      1.0000 0.61230  0.33870  0.99960  Biso   1.000  H
  C43      1.0000 0.54420  0.66960  0.92554  Biso   1.000  C
  C44      1.0000 0.45580  0.33040  0.07446  Biso   1.000  C
  H35      1.0000 0.56340  0.71440  0.95070  Biso   1.000  H
  H36      1.0000 0.43660  0.28560  0.04930  Biso   1.000  H
  C45      1.0000 0.61920  0.63450  0.85941  Biso   1.000  C
  C46      1.0000 0.38080  0.36550  0.14059  Biso   1.000  C
  H37      1.0000 0.68930  0.65610  0.84040  Biso   1.000  H
  H38      1.0000 0.31070  0.34390  0.15960  Biso   1.000  H
  C47      1.0000 0.19950  0.59010  0.97499  Biso   1.000  C
  C48      1.0000 0.80050  0.40990  0.02501  Biso   1.000  C
  C49      1.0000 0.09940  0.54110  0.98808  Biso   1.000  C
  C50      1.0000 0.90060  0.45890  0.01192  Biso   1.000  C
  C51      1.0000 0.11260  0.43650  0.00960  Biso   1.000  C
  C52      1.0000 0.88740  0.56350  0.99040  Biso   1.000  C
  H39      1.0000 0.18780  0.39350  0.01630  Biso   1.000  H
  H40      1.0000 0.81220  0.60650  0.98370  Biso   1.000  H
  C53      1.0000 0.98450  0.60330  0.97899  Biso   1.000  C
  C54      1.0000 0.01550  0.39670  0.02101  Biso   1.000  C
  H41      1.0000 0.97390  0.67340  0.96490  Biso   1.000  H
  H42      1.0000 0.02610  0.32660  0.03510  Biso   1.000  H
  C55      1.0000 0.78930  0.30850  0.81360  Biso   1.000  C
  C56      1.0000 0.21070  0.69150  0.18640  Biso   1.000  C
  H43      1.0000 0.79920  0.34100  0.85270  Biso   1.000  H
  H44      1.0000 0.20080  0.65900  0.14730  Biso   1.000  H
  C57      1.0000 0.84370  0.15700  0.75060  Biso   1.000  C
  C58      1.0000 0.15630  0.84300  0.24940  Biso   1.000  C
  H45      1.0000 0.78660  0.19920  0.71760  Biso   1.000  H
  H46      1.0000 0.21340  0.80080  0.28240  Biso   1.000  H
  H47      1.0000 0.81930  0.09590  0.77580  Biso   1.000  H
  H48      1.0000 0.18070  0.90410  0.22420  Biso   1.000  H
  H49      1.0000 0.92160  0.13950  0.71780  Biso   1.000  H
  H50      1.0000 0.07840  0.86050  0.28220  Biso   1.000  H
  C59      1.0000 0.93050  0.16060  0.86910  Biso   1.000  C
  C60      1.0000 0.06950  0.83940  0.13090  Biso   1.000  C
  H51      1.0000 0.93140  0.20690  0.90310  Biso   1.000  H
  H52      1.0000 0.06860  0.79310  0.09690  Biso   1.000  H
  H53      1.0000 0.01000  0.13720  0.83990  Biso   1.000  H
  H54      1.0000 0.99000  0.86280  0.16010  Biso   1.000  H
  H55      1.0000 0.90400  0.10340  0.90160  Biso   1.000  H
  H56      1.0000 0.09600  0.89660  0.09840  Biso   1.000  H
  C61      1.0000 0.91290  0.57730  0.75027  Biso   1.000  C
  C62      1.0000 0.08710  0.42270  0.24973  Biso   1.000  C
  H57      1.0000 0.87730  0.64530  0.73280  Biso   1.000  H
  H58      1.0000 0.12270  0.35470  0.26720  Biso   1.000  H
  C63      1.0000 0.08610  0.63060  0.75830  Biso   1.000  C
  C64      1.0000 0.91390  0.36940  0.24170  Biso   1.000  C
  H59      1.0000 0.03830  0.69600  0.73800  Biso   1.000  H
  H60      1.0000 0.96170  0.30400  0.26200  Biso   1.000  H
  H61      1.0000 0.16110  0.61440  0.72210  Biso   1.000  H
  H62      1.0000 0.83890  0.38560  0.27790  Biso   1.000  H
  H63      1.0000 0.10140  0.63220  0.81040  Biso   1.000  H
  H64      1.0000 0.89860  0.36780  0.18960  Biso   1.000  H
  C65      1.0000 0.08250  0.44920  0.78990  Biso   1.000  C
  C66      1.0000 0.91750  0.55080  0.21010  Biso   1.000  C
  H65      1.0000 0.03730  0.40570  0.78210  Biso   1.000  H
  H66      1.0000 0.96270  0.59430  0.21790  Biso   1.000  H
  H67      1.0000 0.08860  0.43910  0.84580  Biso   1.000  H
  H68      1.0000 0.91140  0.56090  0.15420  Biso   1.000  H
  H69      1.0000 0.16160  0.43320  0.75840  Biso   1.000  H
  H70      1.0000 0.83840  0.56680  0.24160  Biso   1.000  H
  C67      1.0000 0.32670  0.84940  0.79100  Biso   1.000  C
  C68      1.0000 0.67330  0.15060  0.20900  Biso   1.000  C
  H71      1.0000 0.39810  0.85370  0.80290  Biso   1.000  H
  H72      1.0000 0.60190  0.14630  0.19710  Biso   1.000  H
  C69      1.0000 0.12310  0.87100  0.83090  Biso   1.000  C
  C70      1.0000 0.87690  0.12900  0.16910  Biso   1.000  C
  H73      1.0000 0.13360  0.81300  0.80550  Biso   1.000  H
  H74      1.0000 0.86640  0.18700  0.19450  Biso   1.000  H
  H75      1.0000 0.08830  0.93200  0.79710  Biso   1.000  H
  H76      1.0000 0.91170  0.06800  0.20290  Biso   1.000  H
  H77      1.0000 0.07090  0.86480  0.88200  Biso   1.000  H
  H78      1.0000 0.92910  0.13520  0.11800  Biso   1.000  H
  C71      1.0000 0.23100  0.91260  0.91340  Biso   1.000  C
  C72      1.0000 0.76900  0.08740  0.08660  Biso   1.000  C
  H79      1.0000 0.31210  0.90260  0.92090  Biso   1.000  H
  H80      1.0000 0.68790  0.09740  0.07910  Biso   1.000  H
  H81      1.0000 0.18910  0.87620  0.95890  Biso   1.000  H
  H82      1.0000 0.81090  0.12380  0.04110  Biso   1.000  H
  H83      1.0000 0.19100  0.98390  0.90850  Biso   1.000  H
  H84      1.0000 0.80900  0.01610  0.09150  Biso   1.000  H
  C73      1.0000 0.65610  0.79970  0.67920  Biso   1.000  C
  C74      1.0000 0.34390  0.20030  0.32080  Biso   1.000  C
  H85      1.0000 0.66460  0.81070  0.72880  Biso   1.000  H
  H86      1.0000 0.33540  0.18930  0.27120  Biso   1.000  H
  C75      1.0000 0.54750  0.97790  0.66080  Biso   1.000  C
  C76      1.0000 0.45250  0.02210  0.33920  Biso   1.000  C
  H87      1.0000 0.56890  0.97490  0.71200  Biso   1.000  H
  H88      1.0000 0.43110  0.02510  0.28800  Biso   1.000  H
  H89      1.0000 0.46160  0.99450  0.66610  Biso   1.000  H
  H90      1.0000 0.53840  0.00550  0.33390  Biso   1.000  H
  H91      1.0000 0.57790  0.02920  0.62220  Biso   1.000  H
  H92      1.0000 0.42210  0.97080  0.37780  Biso   1.000  H
  C77      1.0000 0.58470  0.86980  0.55560  Biso   1.000  C
  C78      1.0000 0.41530  0.13020  0.44440  Biso   1.000  C
  H93      1.0000 0.62260  0.80140  0.54530  Biso   1.000  H
  H94      1.0000 0.37740  0.19860  0.45470  Biso   1.000  H
  H95      1.0000 0.62100  0.91650  0.51560  Biso   1.000  H
  H96      1.0000 0.37900  0.08350  0.48440  Biso   1.000  H
  H97      1.0000 0.50060  0.88550  0.55350  Biso   1.000  H
  H98      1.0000 0.49940  0.11450  0.44650  Biso   1.000  H
  C79      1.0000 0.64720  0.72210  0.11310  Biso   1.000  C
  C80      1.0000 0.35280  0.27790  0.88690  Biso   1.000  C
  H99      1.0000 0.72370  0.72800  0.08790  Biso   1.000  H
  H100     1.0000 0.27630  0.27200  0.91210  Biso   1.000  H
  C81      1.0000 0.59690  0.90820  0.10440  Biso   1.000  C
  C82      1.0000 0.40310  0.09180  0.89560  Biso   1.000  C
  H101     1.0000 0.67550  0.90280  0.07240  Biso   1.000  H
  H102     1.0000 0.32450  0.09720  0.92760  Biso   1.000  H
  H103     1.0000 0.59280  0.93510  0.15220  Biso   1.000  H
  H104     1.0000 0.40720  0.06490  0.84780  Biso   1.000  H
  H105     1.0000 0.53780  0.95300  0.07390  Biso   1.000  H
  H106     1.0000 0.46220  0.04700  0.92610  Biso   1.000  H
  C83      1.0000 0.48110  0.79980  0.19690  Biso   1.000  C
  C84      1.0000 0.51890  0.20020  0.80310  Biso   1.000  C
  H107     1.0000 0.50480  0.73500  0.23000  Biso   1.000  H
  H108     1.0000 0.49520  0.26500  0.77000  Biso   1.000  H
  H109     1.0000 0.40680  0.80530  0.18020  Biso   1.000  H
  H110     1.0000 0.59320  0.19470  0.81980  Biso   1.000  H
  H111     1.0000 0.47070  0.85350  0.22710  Biso   1.000  H
  H112     1.0000 0.52930  0.14650  0.77290  Biso   1.000  H
  C85      1.0000 0.46050  0.81170  0.12600  Biso   1.000  C
  C86      1.0000 0.53950  0.18830  0.87400  Biso   1.000  C
  H113     1.0000 0.43920  0.84600  0.07480  Biso   1.000  H
  H114     1.0000 0.56080  0.15400  0.92520  Biso   1.000  H
  H115     1.0000 0.40900  0.84790  0.16780  Biso   1.000  H
  H116     1.0000 0.59100  0.15210  0.83220  Biso   1.000  H
  H117     1.0000 0.45110  0.74350  0.13540  Biso   1.000  H
  H118     1.0000 0.54890  0.25650  0.86460  Biso   1.000  H
  O33      1.0000 0.82720  0.77920  0.84050  Biso   1.000  O
  O34      1.0000 0.17280  0.22080  0.15950  Biso   1.000  O
  O35      1.0000 0.77020  0.93910  0.79250  Biso   1.000  O
  O36      1.0000 0.22980  0.06090  0.20750  Biso   1.000  O
  O37      1.0000 0.83310  0.87800  0.92260  Biso   1.000  O
  O38      1.0000 0.16690  0.12200  0.07740  Biso   1.000  O
  O39      1.0000 0.73550  0.74730  0.26650  Biso   1.000  O
  O40      1.0000 0.26450  0.25270  0.73350  Biso   1.000  O
  O41      1.0000 0.70520  0.80400  0.39190  Biso   1.000  O
  O42      1.0000 0.29480  0.19600  0.60810  Biso   1.000  O
  O43      1.0000 0.76830  0.90160  0.27350  Biso   1.000  O
  O44      1.0000 0.23170  0.09840  0.72650  Biso   1.000  O
  O45      1.0000 0.65320  0.86560  0.88760  Biso   1.000  O
  O46      1.0000 0.34680  0.13440  0.11240  Biso   1.000  O
