data_image0
_cell_length_a       18.003
_cell_length_b       12.61
_cell_length_c       19.356
_cell_angle_alpha    90
_cell_angle_beta     104.37
_cell_angle_gamma    90

_symmetry_space_group_name_H-M    "P 1"
_symmetry_int_tables_number       1

loop_
  _symmetry_equiv_pos_as_xyz
  'x, y, z'

loop_
  _atom_site_label
  _atom_site_occupancy
  _atom_site_fract_x
  _atom_site_fract_y
  _atom_site_fract_z
  _atom_site_thermal_displace_type
  _atom_site_B_iso_or_equiv
  _atom_site_type_symbol
  Cu1      1.0000 0.25151  0.25720  0.98953  Biso   1.000  Cu
  Cu2      1.0000 0.24849  0.75720  0.51047  Biso   1.000  Cu
  Cu3      1.0000 0.74849  0.74280  0.01047  Biso   1.000  Cu
  Cu4      1.0000 0.75151  0.24280  0.48953  Biso   1.000  Cu
  Cu5      1.0000 0.24280  0.74210  0.96473  Biso   1.000  Cu
  Cu6      1.0000 0.25720  0.24210  0.53527  Biso   1.000  Cu
  Cu7      1.0000 0.75720  0.25790  0.03527  Biso   1.000  Cu
  Cu8      1.0000 0.74280  0.75790  0.46473  Biso   1.000  Cu
  O1       1.0000 0.18380  0.37520  0.99710  Biso   1.000  O
  O2       1.0000 0.31620  0.87520  0.50290  Biso   1.000  O
  O3       1.0000 0.81620  0.62480  0.00290  Biso   1.000  O
  O4       1.0000 0.68380  0.12480  0.49710  Biso   1.000  O
  O5       1.0000 0.12150  0.26460  0.05200  Biso   1.000  O
  O6       1.0000 0.37850  0.76460  0.44800  Biso   1.000  O
  O7       1.0000 0.87850  0.73540  0.94800  Biso   1.000  O
  O8       1.0000 0.62150  0.23540  0.55200  Biso   1.000  O
  O9       1.0000 0.19280  0.59520  0.07370  Biso   1.000  O
  O10      1.0000 0.30720  0.09520  0.42630  Biso   1.000  O
  O11      1.0000 0.80720  0.40480  0.92630  Biso   1.000  O
  O12      1.0000 0.69280  0.90480  0.57370  Biso   1.000  O
  O13      1.0000 0.16110  0.63570  0.95830  Biso   1.000  O
  O14      1.0000 0.33890  0.13570  0.54170  Biso   1.000  O
  O15      1.0000 0.83890  0.36430  0.04170  Biso   1.000  O
  O16      1.0000 0.66110  0.86430  0.45830  Biso   1.000  O
  O17      1.0000 0.32190  0.14270  0.98300  Biso   1.000  O
  O18      1.0000 0.17810  0.64270  0.51700  Biso   1.000  O
  O19      1.0000 0.67810  0.85730  0.01700  Biso   1.000  O
  O20      1.0000 0.82190  0.35730  0.48300  Biso   1.000  O
  O21      1.0000 0.38150  0.22300  0.91050  Biso   1.000  O
  O22      1.0000 0.11850  0.72300  0.58950  Biso   1.000  O
  O23      1.0000 0.61850  0.77700  0.08950  Biso   1.000  O
  O24      1.0000 0.88150  0.27700  0.41050  Biso   1.000  O
  O25      1.0000 0.32700  0.84740  0.99020  Biso   1.000  O
  O26      1.0000 0.17300  0.34740  0.50980  Biso   1.000  O
  O27      1.0000 0.67300  0.15260  0.00980  Biso   1.000  O
  O28      1.0000 0.82700  0.65260  0.49020  Biso   1.000  O
  O29      1.0000 0.30900  0.93810  0.88950  Biso   1.000  O
  O30      1.0000 0.19100  0.43810  0.61050  Biso   1.000  O
  O31      1.0000 0.69100  0.06190  0.11050  Biso   1.000  O
  O32      1.0000 0.80900  0.56190  0.38950  Biso   1.000  O
  O33      1.0000 0.23190  0.74140  0.84370  Biso   1.000  O
  O34      1.0000 0.26810  0.24140  0.65630  Biso   1.000  O
  O35      1.0000 0.76810  0.25860  0.15630  Biso   1.000  O
  O36      1.0000 0.73190  0.75860  0.34370  Biso   1.000  O
  H1       1.0000 0.18320  0.74590  0.84630  Biso   1.000  H
  H2       1.0000 0.31680  0.24590  0.65370  Biso   1.000  H
  H3       1.0000 0.81680  0.25410  0.15370  Biso   1.000  H
  H4       1.0000 0.68320  0.75410  0.34630  Biso   1.000  H
  H5       1.0000 0.24270  0.67450  0.85830  Biso   1.000  H
  H6       1.0000 0.25730  0.17450  0.64170  Biso   1.000  H
  H7       1.0000 0.75730  0.32550  0.14170  Biso   1.000  H
  H8       1.0000 0.74270  0.82550  0.35830  Biso   1.000  H
  O37      1.0000 0.71180  0.28720  0.81460  Biso   1.000  O
  O38      1.0000 0.78820  0.78720  0.68540  Biso   1.000  O
  O39      1.0000 0.28820  0.71280  0.18540  Biso   1.000  O
  O40      1.0000 0.21180  0.21280  0.31460  Biso   1.000  O
  H9       1.0000 0.74120  0.25720  0.85820  Biso   1.000  H
  H10      1.0000 0.75880  0.75720  0.64180  Biso   1.000  H
  H11      1.0000 0.25880  0.74280  0.14180  Biso   1.000  H
  H12      1.0000 0.24120  0.24280  0.35820  Biso   1.000  H
  H13      1.0000 0.74380  0.32790  0.80010  Biso   1.000  H
  H14      1.0000 0.75620  0.82790  0.69990  Biso   1.000  H
  H15      1.0000 0.25620  0.67210  0.19990  Biso   1.000  H
  H16      1.0000 0.24380  0.17210  0.30010  Biso   1.000  H
  O41      1.0000 0.94710  0.42840  0.17680  Biso   1.000  O
  O42      1.0000 0.55290  0.92840  0.32320  Biso   1.000  O
  O43      1.0000 0.05290  0.57160  0.82320  Biso   1.000  O
  O44      1.0000 0.44710  0.07160  0.67680  Biso   1.000  O
  H17      1.0000 0.92890  0.41900  0.12660  Biso   1.000  H
  H18      1.0000 0.57110  0.91900  0.37340  Biso   1.000  H
  H19      1.0000 0.07110  0.58100  0.87340  Biso   1.000  H
  H20      1.0000 0.42890  0.08100  0.62660  Biso   1.000  H
  H21      1.0000 0.98230  0.38380  0.17320  Biso   1.000  H
  H22      1.0000 0.51770  0.88380  0.32680  Biso   1.000  H
  H23      1.0000 0.01770  0.61620  0.82680  Biso   1.000  H
  H24      1.0000 0.48230  0.11620  0.67320  Biso   1.000  H
  O45      1.0000 0.16530  0.12220  0.17200  Biso   1.000  O
  O46      1.0000 0.33470  0.62220  0.32800  Biso   1.000  O
  O47      1.0000 0.83470  0.87780  0.82800  Biso   1.000  O
  O48      1.0000 0.66530  0.37780  0.67200  Biso   1.000  O
  H25      1.0000 0.17110  0.19960  0.18190  Biso   1.000  H
  H26      1.0000 0.32890  0.69960  0.31810  Biso   1.000  H
  H27      1.0000 0.82890  0.80040  0.81810  Biso   1.000  H
  H28      1.0000 0.67110  0.30040  0.68190  Biso   1.000  H
  H29      1.0000 0.12040  0.10230  0.18200  Biso   1.000  H
  H30      1.0000 0.37960  0.60230  0.31800  Biso   1.000  H
  H31      1.0000 0.87960  0.89770  0.81800  Biso   1.000  H
  H32      1.0000 0.62040  0.39770  0.68200  Biso   1.000  H
  O49      1.0000 0.20200  0.43710  0.32800  Biso   1.000  O
  O50      1.0000 0.29800  0.93710  0.17200  Biso   1.000  O
  O51      1.0000 0.79800  0.56290  0.67200  Biso   1.000  O
  O52      1.0000 0.70200  0.06290  0.82800  Biso   1.000  O
  H33      1.0000 0.23060  0.39340  0.35900  Biso   1.000  H
  H34      1.0000 0.26940  0.89340  0.14100  Biso   1.000  H
  H35      1.0000 0.76940  0.60660  0.64100  Biso   1.000  H
  H36      1.0000 0.73060  0.10660  0.85900  Biso   1.000  H
  H37      1.0000 0.23190  0.44970  0.30880  Biso   1.000  H
  H38      1.0000 0.26810  0.94970  0.19120  Biso   1.000  H
  H39      1.0000 0.76810  0.55030  0.69120  Biso   1.000  H
  H40      1.0000 0.73190  0.05030  0.80880  Biso   1.000  H
  O53      1.0000 0.86600  0.51630  0.81300  Biso   1.000  O
  O54      1.0000 0.63400  0.01630  0.68700  Biso   1.000  O
  O55      1.0000 0.13400  0.48370  0.18700  Biso   1.000  O
  O56      1.0000 0.36600  0.98370  0.31300  Biso   1.000  O
  H41      1.0000 0.87800  0.58340  0.83170  Biso   1.000  H
  H42      1.0000 0.62200  0.08340  0.66830  Biso   1.000  H
  H43      1.0000 0.12200  0.41660  0.16830  Biso   1.000  H
  H44      1.0000 0.37800  0.91660  0.33170  Biso   1.000  H
  H45      1.0000 0.85420  0.48100  0.84470  Biso   1.000  H
  H46      1.0000 0.64580  0.98100  0.65530  Biso   1.000  H
  H47      1.0000 0.14580  0.51900  0.15530  Biso   1.000  H
  H48      1.0000 0.35420  0.01900  0.34470  Biso   1.000  H
  O57      1.0000 0.54100  0.28230  0.76390  Biso   1.000  O
  O58      1.0000 0.95900  0.78230  0.73610  Biso   1.000  O
  O59      1.0000 0.45900  0.71770  0.23610  Biso   1.000  O
  O60      1.0000 0.04100  0.21770  0.26390  Biso   1.000  O
  H49      1.0000 0.49530  0.30640  0.76880  Biso   1.000  H
  H50      1.0000 0.00470  0.80640  0.73120  Biso   1.000  H
  H51      1.0000 0.50470  0.69360  0.23120  Biso   1.000  H
  H52      1.0000 0.99530  0.19360  0.26880  Biso   1.000  H
  H53      1.0000 0.57870  0.32520  0.77610  Biso   1.000  H
  H54      1.0000 0.92130  0.82520  0.72390  Biso   1.000  H
  H55      1.0000 0.42130  0.67480  0.22390  Biso   1.000  H
  H56      1.0000 0.07870  0.17480  0.27610  Biso   1.000  H
  N1       1.0000 0.82330  0.86910  0.49340  Biso   1.000  N
  N2       1.0000 0.67670  0.36910  0.00660  Biso   1.000  N
  N3       1.0000 0.17670  0.13090  0.50660  Biso   1.000  N
  N4       1.0000 0.32330  0.63090  0.99340  Biso   1.000  N
  N5       1.0000 0.19520  0.24620  0.88610  Biso   1.000  N
  N6       1.0000 0.30480  0.74620  0.61390  Biso   1.000  N
  N7       1.0000 0.80480  0.75380  0.11390  Biso   1.000  N
  N8       1.0000 0.69520  0.25380  0.38610  Biso   1.000  N
  N9       1.0000 0.30380  0.26670  0.09430  Biso   1.000  N
  N10      1.0000 0.19620  0.76670  0.40570  Biso   1.000  N
  N11      1.0000 0.69620  0.73330  0.90570  Biso   1.000  N
  N12      1.0000 0.80380  0.23330  0.59430  Biso   1.000  N
  N13      1.0000 0.66490  0.64340  0.45710  Biso   1.000  N
  N14      1.0000 0.83510  0.14340  0.04290  Biso   1.000  N
  N15      1.0000 0.33510  0.35660  0.54290  Biso   1.000  N
  N16      1.0000 0.16490  0.85660  0.95710  Biso   1.000  N
  C1       1.0000 0.82230  0.95600  0.45610  Biso   1.000  C
  C2       1.0000 0.67770  0.45600  0.04390  Biso   1.000  C
  C3       1.0000 0.17770  0.04400  0.54390  Biso   1.000  C
  C4       1.0000 0.32230  0.54400  0.95610  Biso   1.000  C
  H57      1.0000 0.78580  0.96150  0.41280  Biso   1.000  H
  H58      1.0000 0.71420  0.46150  0.08720  Biso   1.000  H
  H59      1.0000 0.21420  0.03850  0.58720  Biso   1.000  H
  H60      1.0000 0.28580  0.53850  0.91280  Biso   1.000  H
  C5       1.0000 0.87170  0.03960  0.47680  Biso   1.000  C
  C6       1.0000 0.62830  0.53960  0.02320  Biso   1.000  C
  C7       1.0000 0.12830  0.96040  0.52320  Biso   1.000  C
  C8       1.0000 0.37170  0.46040  0.97680  Biso   1.000  C
  H61      1.0000 0.86910  0.09860  0.44750  Biso   1.000  H
  H62      1.0000 0.63090  0.59860  0.05250  Biso   1.000  H
  H63      1.0000 0.13090  0.90140  0.55250  Biso   1.000  H
  H64      1.0000 0.36910  0.40140  0.94750  Biso   1.000  H
  C9       1.0000 0.92620  0.03520  0.54280  Biso   1.000  C
  C10      1.0000 0.57380  0.53520  0.95720  Biso   1.000  C
  C11      1.0000 0.07380  0.96480  0.45720  Biso   1.000  C
  C12      1.0000 0.42620  0.46480  0.04280  Biso   1.000  C
  C13      1.0000 0.92690  0.94190  0.58210  Biso   1.000  C
  C14      1.0000 0.57310  0.44190  0.91790  Biso   1.000  C
  C15      1.0000 0.07310  0.05810  0.41790  Biso   1.000  C
  C16      1.0000 0.42690  0.55810  0.08210  Biso   1.000  C
  H65      1.0000 0.96180  0.93370  0.62610  Biso   1.000  H
  H66      1.0000 0.53820  0.43370  0.87390  Biso   1.000  H
  H67      1.0000 0.03820  0.06630  0.37390  Biso   1.000  H
  H68      1.0000 0.46180  0.56630  0.12610  Biso   1.000  H
  C17      1.0000 0.87560  0.86280  0.55510  Biso   1.000  C
  C18      1.0000 0.62440  0.36280  0.94490  Biso   1.000  C
  C19      1.0000 0.12440  0.13720  0.44490  Biso   1.000  C
  C20      1.0000 0.37560  0.63720  0.05510  Biso   1.000  C
  H69      1.0000 0.87770  0.80090  0.58160  Biso   1.000  H
  H70      1.0000 0.62230  0.30090  0.91840  Biso   1.000  H
  H71      1.0000 0.12230  0.19910  0.41840  Biso   1.000  H
  H72      1.0000 0.37770  0.69910  0.08160  Biso   1.000  H
  C21      1.0000 0.97980  0.12660  0.56840  Biso   1.000  C
  C22      1.0000 0.52020  0.62660  0.93160  Biso   1.000  C
  C23      1.0000 0.02020  0.87340  0.43160  Biso   1.000  C
  C24      1.0000 0.47980  0.37340  0.06840  Biso   1.000  C
  H73      1.0000 0.94970  0.19130  0.56250  Biso   1.000  H
  H74      1.0000 0.55030  0.69130  0.93750  Biso   1.000  H
  H75      1.0000 0.05030  0.80870  0.43750  Biso   1.000  H
  H76      1.0000 0.44970  0.30870  0.06250  Biso   1.000  H
  H77      1.0000 0.01480  0.13200  0.53760  Biso   1.000  H
  H78      1.0000 0.48520  0.63200  0.96240  Biso   1.000  H
  H79      1.0000 0.98520  0.86800  0.46240  Biso   1.000  H
  H80      1.0000 0.51480  0.36800  0.03760  Biso   1.000  H
  C25      1.0000 0.02690  0.12160  0.64470  Biso   1.000  C
  C26      1.0000 0.47310  0.62160  0.85530  Biso   1.000  C
  C27      1.0000 0.97310  0.87840  0.35530  Biso   1.000  C
  C28      1.0000 0.52690  0.37840  0.14470  Biso   1.000  C
  H81      1.0000 0.05950  0.05930  0.65110  Biso   1.000  H
  H82      1.0000 0.44050  0.55930  0.84890  Biso   1.000  H
  H83      1.0000 0.94050  0.94070  0.34890  Biso   1.000  H
  H84      1.0000 0.55950  0.44070  0.15110  Biso   1.000  H
  H85      1.0000 0.99300  0.11560  0.67640  Biso   1.000  H
  H86      1.0000 0.50700  0.61560  0.82360  Biso   1.000  H
  H87      1.0000 0.00700  0.88440  0.32360  Biso   1.000  H
  H88      1.0000 0.49300  0.38440  0.17640  Biso   1.000  H
  C29      1.0000 0.07610  0.22030  0.66340  Biso   1.000  C
  C30      1.0000 0.42390  0.72030  0.83660  Biso   1.000  C
  C31      1.0000 0.92390  0.77970  0.33660  Biso   1.000  C
  C32      1.0000 0.57610  0.27970  0.16340  Biso   1.000  C
  H89      1.0000 0.04360  0.28210  0.65050  Biso   1.000  H
  H90      1.0000 0.45640  0.78210  0.84950  Biso   1.000  H
  H91      1.0000 0.95640  0.71790  0.34950  Biso   1.000  H
  H92      1.0000 0.54360  0.21790  0.15050  Biso   1.000  H
  H93      1.0000 0.11340  0.22120  0.63480  Biso   1.000  H
  H94      1.0000 0.38660  0.72120  0.86520  Biso   1.000  H
  H95      1.0000 0.88660  0.77880  0.36520  Biso   1.000  H
  H96      1.0000 0.61340  0.27880  0.13480  Biso   1.000  H
  C33      1.0000 0.11890  0.22920  0.74230  Biso   1.000  C
  C34      1.0000 0.38110  0.72920  0.75770  Biso   1.000  C
  C35      1.0000 0.88110  0.77080  0.25770  Biso   1.000  C
  C36      1.0000 0.61890  0.27080  0.24230  Biso   1.000  C
  C37      1.0000 0.11880  0.31970  0.77940  Biso   1.000  C
  C38      1.0000 0.38120  0.81970  0.72060  Biso   1.000  C
  C39      1.0000 0.88120  0.68030  0.22060  Biso   1.000  C
  C40      1.0000 0.61880  0.18030  0.27940  Biso   1.000  C
  H97      1.0000 0.09220  0.37870  0.75730  Biso   1.000  H
  H98      1.0000 0.40780  0.87870  0.74270  Biso   1.000  H
  H99      1.0000 0.90780  0.62130  0.24270  Biso   1.000  H
  H100     1.0000 0.59220  0.12130  0.25730  Biso   1.000  H
  C41      1.0000 0.15790  0.32460  0.84980  Biso   1.000  C
  C42      1.0000 0.34210  0.82460  0.65020  Biso   1.000  C
  C43      1.0000 0.84210  0.67540  0.15020  Biso   1.000  C
  C44      1.0000 0.65790  0.17540  0.34980  Biso   1.000  C
  H101     1.0000 0.15780  0.38890  0.87330  Biso   1.000  H
  H102     1.0000 0.34220  0.88890  0.62670  Biso   1.000  H
  H103     1.0000 0.84220  0.61110  0.12670  Biso   1.000  H
  H104     1.0000 0.65780  0.11110  0.37330  Biso   1.000  H
  C45      1.0000 0.15750  0.14100  0.77950  Biso   1.000  C
  C46      1.0000 0.34250  0.64100  0.72050  Biso   1.000  C
  C47      1.0000 0.84250  0.85900  0.22050  Biso   1.000  C
  C48      1.0000 0.65750  0.35900  0.27950  Biso   1.000  C
  H105     1.0000 0.15820  0.07620  0.75670  Biso   1.000  H
  H106     1.0000 0.34180  0.57620  0.74330  Biso   1.000  H
  H107     1.0000 0.84180  0.92380  0.24330  Biso   1.000  H
  H108     1.0000 0.65820  0.42380  0.25670  Biso   1.000  H
  C49      1.0000 0.19400  0.15350  0.85010  Biso   1.000  C
  C50      1.0000 0.30600  0.65350  0.64990  Biso   1.000  C
  C51      1.0000 0.80600  0.84650  0.14990  Biso   1.000  C
  C52      1.0000 0.69400  0.34650  0.35010  Biso   1.000  C
  H109     1.0000 0.21930  0.09530  0.87470  Biso   1.000  H
  H110     1.0000 0.28070  0.59530  0.62530  Biso   1.000  H
  H111     1.0000 0.78070  0.90470  0.12530  Biso   1.000  H
  H112     1.0000 0.71930  0.40470  0.37470  Biso   1.000  H
  C53      1.0000 0.12750  0.35130  0.02300  Biso   1.000  C
  C54      1.0000 0.37250  0.85130  0.47700  Biso   1.000  C
  C55      1.0000 0.87250  0.64870  0.97700  Biso   1.000  C
  C56      1.0000 0.62750  0.14870  0.52300  Biso   1.000  C
  C57      1.0000 0.06270  0.43070  0.01340  Biso   1.000  C
  C58      1.0000 0.43730  0.93070  0.48660  Biso   1.000  C
  C59      1.0000 0.93730  0.56930  0.98660  Biso   1.000  C
  C60      1.0000 0.56270  0.06930  0.51340  Biso   1.000  C
  C61      1.0000 0.98920  0.39410  0.00910  Biso   1.000  C
  C62      1.0000 0.51080  0.89410  0.49090  Biso   1.000  C
  C63      1.0000 0.01080  0.60590  0.99090  Biso   1.000  C
  C64      1.0000 0.48920  0.10590  0.50910  Biso   1.000  C
  H113     1.0000 0.98220  0.32200  0.01540  Biso   1.000  H
  H114     1.0000 0.51780  0.82200  0.48460  Biso   1.000  H
  H115     1.0000 0.01780  0.67800  0.98460  Biso   1.000  H
  H116     1.0000 0.48220  0.17800  0.51540  Biso   1.000  H
  C65      1.0000 0.07320  0.54110  0.00400  Biso   1.000  C
  C66      1.0000 0.42680  0.04110  0.49600  Biso   1.000  C
  C67      1.0000 0.92680  0.45890  0.99600  Biso   1.000  C
  C68      1.0000 0.57320  0.95890  0.50400  Biso   1.000  C
  C69      1.0000 0.14940  0.59170  0.01350  Biso   1.000  C
  C70      1.0000 0.35060  0.09170  0.48650  Biso   1.000  C
  C71      1.0000 0.85060  0.40830  0.98650  Biso   1.000  C
  C72      1.0000 0.64940  0.90830  0.51350  Biso   1.000  C
  C73      1.0000 0.67480  0.55550  0.49460  Biso   1.000  C
  C74      1.0000 0.82520  0.05550  0.00540  Biso   1.000  C
  C75      1.0000 0.32520  0.44450  0.50540  Biso   1.000  C
  C76      1.0000 0.17480  0.94450  0.99460  Biso   1.000  C
  H117     1.0000 0.71960  0.54880  0.53070  Biso   1.000  H
  H118     1.0000 0.78040  0.04880  0.96930  Biso   1.000  H
  H119     1.0000 0.28040  0.45120  0.46930  Biso   1.000  H
  H120     1.0000 0.21960  0.95120  0.03070  Biso   1.000  H
  C77      1.0000 0.62370  0.47320  0.48430  Biso   1.000  C
  C78      1.0000 0.87630  0.97320  0.01570  Biso   1.000  C
  C79      1.0000 0.37630  0.52680  0.51570  Biso   1.000  C
  C80      1.0000 0.12370  0.02680  0.98430  Biso   1.000  C
  H121     1.0000 0.63430  0.41340  0.51320  Biso   1.000  H
  H122     1.0000 0.86570  0.91340  0.98680  Biso   1.000  H
  H123     1.0000 0.36570  0.58660  0.48680  Biso   1.000  H
  H124     1.0000 0.13430  0.08660  0.01320  Biso   1.000  H
  C81      1.0000 0.55670  0.47840  0.43140  Biso   1.000  C
  C82      1.0000 0.94330  0.97840  0.06860  Biso   1.000  C
  C83      1.0000 0.44330  0.52160  0.56860  Biso   1.000  C
  C84      1.0000 0.05670  0.02160  0.93140  Biso   1.000  C
  C85      1.0000 0.54530  0.57490  0.39290  Biso   1.000  C
  C86      1.0000 0.95470  0.07490  0.10710  Biso   1.000  C
  C87      1.0000 0.45470  0.42510  0.60710  Biso   1.000  C
  C88      1.0000 0.04530  0.92510  0.89290  Biso   1.000  C
  H125     1.0000 0.50050  0.58500  0.35730  Biso   1.000  H
  H126     1.0000 0.99950  0.08500  0.14270  Biso   1.000  H
  H127     1.0000 0.49950  0.41500  0.64270  Biso   1.000  H
  H128     1.0000 0.00050  0.91500  0.85730  Biso   1.000  H
  C89      1.0000 0.59810  0.65180  0.40690  Biso   1.000  C
  C90      1.0000 0.90190  0.15180  0.09310  Biso   1.000  C
  C91      1.0000 0.40190  0.34820  0.59310  Biso   1.000  C
  C92      1.0000 0.09810  0.84820  0.90690  Biso   1.000  C
  H129     1.0000 0.58820  0.71440  0.38080  Biso   1.000  H
  H130     1.0000 0.91180  0.21440  0.11920  Biso   1.000  H
  H131     1.0000 0.41180  0.28560  0.61920  Biso   1.000  H
  H132     1.0000 0.08820  0.78560  0.88080  Biso   1.000  H
  C93      1.0000 0.49970  0.38820  0.41440  Biso   1.000  C
  C94      1.0000 0.00030  0.88820  0.08560  Biso   1.000  C
  C95      1.0000 0.50030  0.61180  0.58560  Biso   1.000  C
  C96      1.0000 0.99970  0.11180  0.91440  Biso   1.000  C
  H133     1.0000 0.52610  0.32280  0.43200  Biso   1.000  H
  H134     1.0000 0.97390  0.82280  0.06800  Biso   1.000  H
  H135     1.0000 0.47390  0.67720  0.56800  Biso   1.000  H
  H136     1.0000 0.02610  0.17720  0.93200  Biso   1.000  H
  H137     1.0000 0.46070  0.39960  0.44030  Biso   1.000  H
  H138     1.0000 0.03930  0.89960  0.05970  Biso   1.000  H
  H139     1.0000 0.53930  0.60040  0.55970  Biso   1.000  H
  H140     1.0000 0.96070  0.10040  0.94030  Biso   1.000  H
  C97      1.0000 0.46230  0.37430  0.33980  Biso   1.000  C
  C98      1.0000 0.03770  0.87430  0.16020  Biso   1.000  C
  C99      1.0000 0.53770  0.62570  0.66020  Biso   1.000  C
  C100     1.0000 0.96230  0.12570  0.83980  Biso   1.000  C
  H141     1.0000 0.50180  0.36500  0.31420  Biso   1.000  H
  H142     1.0000 0.99820  0.86500  0.18580  Biso   1.000  H
  H143     1.0000 0.49820  0.63500  0.68580  Biso   1.000  H
  H144     1.0000 0.00180  0.13500  0.81420  Biso   1.000  H
  H145     1.0000 0.43550  0.43960  0.32280  Biso   1.000  H
  H146     1.0000 0.06450  0.93960  0.17720  Biso   1.000  H
  H147     1.0000 0.56450  0.56040  0.67720  Biso   1.000  H
  H148     1.0000 0.93550  0.06040  0.82280  Biso   1.000  H
  C101     1.0000 0.40630  0.28480  0.31950  Biso   1.000  C
  C102     1.0000 0.09370  0.78480  0.18050  Biso   1.000  C
  C103     1.0000 0.59370  0.71520  0.68050  Biso   1.000  C
  C104     1.0000 0.90630  0.21520  0.81950  Biso   1.000  C
  H149     1.0000 0.43270  0.21890  0.33570  Biso   1.000  H
  H150     1.0000 0.06730  0.71890  0.16430  Biso   1.000  H
  H151     1.0000 0.56730  0.78110  0.66430  Biso   1.000  H
  H152     1.0000 0.93270  0.28110  0.83570  Biso   1.000  H
  H153     1.0000 0.36630  0.29360  0.34460  Biso   1.000  H
  H154     1.0000 0.13370  0.79360  0.15540  Biso   1.000  H
  H155     1.0000 0.63370  0.70640  0.65540  Biso   1.000  H
  H156     1.0000 0.86630  0.20640  0.84460  Biso   1.000  H
  C105     1.0000 0.37030  0.27570  0.24270  Biso   1.000  C
  C106     1.0000 0.12970  0.77570  0.25730  Biso   1.000  C
  C107     1.0000 0.62970  0.72430  0.75730  Biso   1.000  C
  C108     1.0000 0.87030  0.22430  0.74270  Biso   1.000  C
  C109     1.0000 0.33230  0.36230  0.20310  Biso   1.000  C
  C110     1.0000 0.16770  0.86230  0.29690  Biso   1.000  C
  C111     1.0000 0.66770  0.63770  0.79690  Biso   1.000  C
  C112     1.0000 0.83230  0.13770  0.70310  Biso   1.000  C
  H157     1.0000 0.32980  0.42600  0.22660  Biso   1.000  H
  H158     1.0000 0.17020  0.92600  0.27340  Biso   1.000  H
  H159     1.0000 0.67020  0.57400  0.77340  Biso   1.000  H
  H160     1.0000 0.82980  0.07400  0.72660  Biso   1.000  H
  C113     1.0000 0.29870  0.35620  0.13100  Biso   1.000  C
  C114     1.0000 0.20130  0.85620  0.36900  Biso   1.000  C
  C115     1.0000 0.70130  0.64380  0.86900  Biso   1.000  C
  C116     1.0000 0.79870  0.14380  0.63100  Biso   1.000  C
  H161     1.0000 0.27220  0.41440  0.10740  Biso   1.000  H
  H162     1.0000 0.22780  0.91440  0.39260  Biso   1.000  H
  H163     1.0000 0.72780  0.58560  0.89260  Biso   1.000  H
  H164     1.0000 0.77220  0.08560  0.60740  Biso   1.000  H
  C117     1.0000 0.37480  0.18490  0.20270  Biso   1.000  C
  C118     1.0000 0.12520  0.68490  0.29730  Biso   1.000  C
  C119     1.0000 0.62520  0.81510  0.79730  Biso   1.000  C
  C120     1.0000 0.87480  0.31510  0.70270  Biso   1.000  C
  H165     1.0000 0.39970  0.12480  0.22490  Biso   1.000  H
  H166     1.0000 0.10030  0.62480  0.27510  Biso   1.000  H
  H167     1.0000 0.60030  0.87520  0.77510  Biso   1.000  H
  H168     1.0000 0.89970  0.37520  0.72490  Biso   1.000  H
  C121     1.0000 0.34220  0.18440  0.12980  Biso   1.000  C
  C122     1.0000 0.15780  0.68440  0.37020  Biso   1.000  C
  C123     1.0000 0.65780  0.81560  0.87020  Biso   1.000  C
  C124     1.0000 0.84220  0.31560  0.62980  Biso   1.000  C
  H169     1.0000 0.34720  0.12360  0.10420  Biso   1.000  H
  H170     1.0000 0.15280  0.62360  0.39580  Biso   1.000  H
  H171     1.0000 0.65280  0.87640  0.89580  Biso   1.000  H
  H172     1.0000 0.84720  0.37640  0.60420  Biso   1.000  H
  C125     1.0000 0.37560  0.15000  0.95210  Biso   1.000  C
  C126     1.0000 0.12440  0.65000  0.54790  Biso   1.000  C
  C127     1.0000 0.62440  0.85000  0.04790  Biso   1.000  C
  C128     1.0000 0.87560  0.35000  0.45210  Biso   1.000  C
  C129     1.0000 0.43870  0.06960  0.97400  Biso   1.000  C
  C130     1.0000 0.06130  0.56960  0.52600  Biso   1.000  C
  C131     1.0000 0.56130  0.93040  0.02600  Biso   1.000  C
  C132     1.0000 0.93870  0.43040  0.47400  Biso   1.000  C
  C133     1.0000 0.51310  0.10550  0.99350  Biso   1.000  C
  C134     1.0000 0.98690  0.60550  0.50650  Biso   1.000  C
  C135     1.0000 0.48690  0.89450  0.00650  Biso   1.000  C
  C136     1.0000 0.01310  0.39450  0.49350  Biso   1.000  C
  H173     1.0000 0.52240  0.17730  0.98870  Biso   1.000  H
  H174     1.0000 0.97760  0.67730  0.51130  Biso   1.000  H
  H175     1.0000 0.47760  0.82270  0.01130  Biso   1.000  H
  H176     1.0000 0.02240  0.32270  0.48870  Biso   1.000  H
  C137     1.0000 0.42460  0.96180  0.97970  Biso   1.000  C
  C138     1.0000 0.07540  0.46180  0.52030  Biso   1.000  C
  C139     1.0000 0.57540  0.03820  0.02030  Biso   1.000  C
  C140     1.0000 0.92460  0.53820  0.47970  Biso   1.000  C
  C141     1.0000 0.34650  0.91330  0.94950  Biso   1.000  C
  C142     1.0000 0.15350  0.41330  0.55050  Biso   1.000  C
  C143     1.0000 0.65350  0.08670  0.05050  Biso   1.000  C
  C144     1.0000 0.84650  0.58670  0.44950  Biso   1.000  C
  Cu9      1.0000 0.75300  0.24500  0.01200  Biso   1.000  Cu
  Cu10     1.0000 0.74700  0.74500  0.48800  Biso   1.000  Cu
  Cu11     1.0000 0.24700  0.75500  0.98800  Biso   1.000  Cu
  Cu12     1.0000 0.25300  0.25500  0.51200  Biso   1.000  Cu
