data_image0
_cell_length_a       10.1055
_cell_length_b       11.6854
_cell_length_c       15.7236
_cell_angle_alpha    90
_cell_angle_beta     102.415
_cell_angle_gamma    90

_symmetry_space_group_name_H-M    "P 1"
_symmetry_int_tables_number       1

loop_
  _symmetry_equiv_pos_as_xyz
  'x, y, z'

loop_
  _atom_site_label
  _atom_site_occupancy
  _atom_site_fract_x
  _atom_site_fract_y
  _atom_site_fract_z
  _atom_site_thermal_displace_type
  _atom_site_B_iso_or_equiv
  _atom_site_type_symbol
  Cu1      1.0000 0.09424  0.88890  0.41120  Biso   1.000  Cu
  Cu2      1.0000 0.59424  0.61110  0.91120  Biso   1.000  Cu
  Cu3      1.0000 0.90576  0.11110  0.58880  Biso   1.000  Cu
  Cu4      1.0000 0.40576  0.38890  0.08880  Biso   1.000  Cu
  O1       1.0000 0.04280  0.07360  0.41580  Biso   1.000  O
  O2       1.0000 0.54280  0.42640  0.91580  Biso   1.000  O
  O3       1.0000 0.95720  0.92640  0.58420  Biso   1.000  O
  O4       1.0000 0.45720  0.57360  0.08420  Biso   1.000  O
  O5       1.0000 0.00810  0.19480  0.51790  Biso   1.000  O
  O6       1.0000 0.50810  0.30520  0.01790  Biso   1.000  O
  O7       1.0000 0.99190  0.80520  0.48210  Biso   1.000  O
  O8       1.0000 0.49190  0.69480  0.98210  Biso   1.000  O
  O9       1.0000 0.28480  0.22230  0.18910  Biso   1.000  O
  O10      1.0000 0.78480  0.27770  0.68910  Biso   1.000  O
  O11      1.0000 0.71520  0.77770  0.81090  Biso   1.000  O
  O12      1.0000 0.21520  0.72230  0.31090  Biso   1.000  O
  O13      1.0000 0.29510  0.41100  0.17530  Biso   1.000  O
  O14      1.0000 0.79510  0.08900  0.67530  Biso   1.000  O
  O15      1.0000 0.70490  0.58900  0.82470  Biso   1.000  O
  O16      1.0000 0.20490  0.91100  0.32470  Biso   1.000  O
  O17      1.0000 0.15040  0.57660  0.43330  Biso   1.000  O
  O18      1.0000 0.65040  0.92340  0.93330  Biso   1.000  O
  O19      1.0000 0.84960  0.42340  0.56670  Biso   1.000  O
  O20      1.0000 0.34960  0.07660  0.06670  Biso   1.000  O
  H1       1.0000 0.16890  0.62380  0.39910  Biso   1.000  H
  H2       1.0000 0.66890  0.87620  0.89910  Biso   1.000  H
  H3       1.0000 0.83110  0.37620  0.60090  Biso   1.000  H
  H4       1.0000 0.33110  0.12380  0.10090  Biso   1.000  H
  N1       1.0000 0.93350  0.87270  0.30770  Biso   1.000  N
  N2       1.0000 0.43350  0.62730  0.80770  Biso   1.000  N
  N3       1.0000 0.06650  0.12730  0.69230  Biso   1.000  N
  N4       1.0000 0.56650  0.37270  0.19230  Biso   1.000  N
  N5       1.0000 0.26260  0.89840  0.50660  Biso   1.000  N
  N6       1.0000 0.76260  0.60160  0.00660  Biso   1.000  N
  N7       1.0000 0.73740  0.10160  0.49340  Biso   1.000  N
  N8       1.0000 0.23740  0.39840  0.99340  Biso   1.000  N
  C1       1.0000 0.27750  0.97390  0.57100  Biso   1.000  C
  C2       1.0000 0.77750  0.52610  0.07100  Biso   1.000  C
  C3       1.0000 0.72250  0.02610  0.42900  Biso   1.000  C
  C4       1.0000 0.22250  0.47390  0.92900  Biso   1.000  C
  H5       1.0000 0.20470  0.02100  0.57460  Biso   1.000  H
  H6       1.0000 0.70470  0.47900  0.07460  Biso   1.000  H
  H7       1.0000 0.79530  0.97900  0.42540  Biso   1.000  H
  H8       1.0000 0.29530  0.52100  0.92540  Biso   1.000  H
  C5       1.0000 0.39790  0.98560  0.63350  Biso   1.000  C
  C6       1.0000 0.89790  0.51440  0.13350  Biso   1.000  C
  C7       1.0000 0.60210  0.01440  0.36650  Biso   1.000  C
  C8       1.0000 0.10210  0.48560  0.86650  Biso   1.000  C
  H9       1.0000 0.40450  0.03920  0.67800  Biso   1.000  H
  H10      1.0000 0.90450  0.46080  0.17800  Biso   1.000  H
  H11      1.0000 0.59550  0.96080  0.32200  Biso   1.000  H
  H12      1.0000 0.09550  0.53920  0.82200  Biso   1.000  H
  C9       1.0000 0.50410  0.91850  0.62890  Biso   1.000  C
  C10      1.0000 0.00410  0.58150  0.12890  Biso   1.000  C
  C11      1.0000 0.49590  0.08150  0.37110  Biso   1.000  C
  C12      1.0000 0.99590  0.41850  0.87110  Biso   1.000  C
  H13      1.0000 0.58540  0.92620  0.66950  Biso   1.000  H
  H14      1.0000 0.08540  0.57380  0.16950  Biso   1.000  H
  H15      1.0000 0.41460  0.07380  0.33050  Biso   1.000  H
  H16      1.0000 0.91460  0.42620  0.83050  Biso   1.000  H
  C13      1.0000 0.49190  0.83920  0.56430  Biso   1.000  C
  C14      1.0000 0.99190  0.66080  0.06430  Biso   1.000  C
  C15      1.0000 0.50810  0.16080  0.43570  Biso   1.000  C
  C16      1.0000 0.00810  0.33920  0.93570  Biso   1.000  C
  H17      1.0000 0.56410  0.79170  0.56010  Biso   1.000  H
  H18      1.0000 0.06410  0.70830  0.06010  Biso   1.000  H
  H19      1.0000 0.43590  0.20830  0.43990  Biso   1.000  H
  H20      1.0000 0.93590  0.29170  0.93990  Biso   1.000  H
  C17      1.0000 0.36910  0.83100  0.50480  Biso   1.000  C
  C18      1.0000 0.86910  0.66900  0.00480  Biso   1.000  C
  C19      1.0000 0.63090  0.16900  0.49520  Biso   1.000  C
  C20      1.0000 0.13090  0.33100  0.99520  Biso   1.000  C
  H21      1.0000 0.36030  0.77570  0.46140  Biso   1.000  H
  H22      1.0000 0.86030  0.72430  0.96140  Biso   1.000  H
  H23      1.0000 0.63970  0.22430  0.53860  Biso   1.000  H
  H24      1.0000 0.13970  0.27570  0.03860  Biso   1.000  H
  C21      1.0000 0.85140  0.78120  0.29590  Biso   1.000  C
  C22      1.0000 0.35140  0.71880  0.79590  Biso   1.000  C
  C23      1.0000 0.14860  0.21880  0.70410  Biso   1.000  C
  C24      1.0000 0.64860  0.28120  0.20410  Biso   1.000  C
  H25      1.0000 0.86100  0.72630  0.33970  Biso   1.000  H
  H26      1.0000 0.36100  0.77370  0.83970  Biso   1.000  H
  H27      1.0000 0.13900  0.27370  0.66030  Biso   1.000  H
  H28      1.0000 0.63900  0.22630  0.16030  Biso   1.000  H
  C25      1.0000 0.75250  0.76590  0.22040  Biso   1.000  C
  C26      1.0000 0.25250  0.73410  0.72040  Biso   1.000  C
  C27      1.0000 0.24750  0.23410  0.77960  Biso   1.000  C
  C28      1.0000 0.74750  0.26590  0.27960  Biso   1.000  C
  H29      1.0000 0.69580  0.70240  0.21450  Biso   1.000  H
  H30      1.0000 0.19580  0.79760  0.71450  Biso   1.000  H
  H31      1.0000 0.30420  0.29760  0.78550  Biso   1.000  H
  H32      1.0000 0.80420  0.20240  0.28550  Biso   1.000  H
  C29      1.0000 0.73900  0.84500  0.15450  Biso   1.000  C
  C30      1.0000 0.23900  0.65500  0.65450  Biso   1.000  C
  C31      1.0000 0.26100  0.15500  0.84550  Biso   1.000  C
  C32      1.0000 0.76100  0.34500  0.34550  Biso   1.000  C
  H33      1.0000 0.67500  0.83470  0.10290  Biso   1.000  H
  H34      1.0000 0.17500  0.66530  0.60290  Biso   1.000  H
  H35      1.0000 0.32500  0.16530  0.89710  Biso   1.000  H
  H36      1.0000 0.82500  0.33470  0.39710  Biso   1.000  H
  C33      1.0000 0.82150  0.93930  0.16610  Biso   1.000  C
  C34      1.0000 0.32150  0.56070  0.66610  Biso   1.000  C
  C35      1.0000 0.17850  0.06070  0.83390  Biso   1.000  C
  C36      1.0000 0.67850  0.43930  0.33390  Biso   1.000  C
  H37      1.0000 0.81330  0.99510  0.12310  Biso   1.000  H
  H38      1.0000 0.31330  0.50490  0.62310  Biso   1.000  H
  H39      1.0000 0.18670  0.00490  0.87690  Biso   1.000  H
  H40      1.0000 0.68670  0.49510  0.37690  Biso   1.000  H
  C37      1.0000 0.91740  0.94980  0.24350  Biso   1.000  C
  C38      1.0000 0.41740  0.55020  0.74350  Biso   1.000  C
  C39      1.0000 0.08260  0.05020  0.75650  Biso   1.000  C
  C40      1.0000 0.58260  0.44980  0.25650  Biso   1.000  C
  H41      1.0000 0.97350  0.01370  0.25100  Biso   1.000  H
  H42      1.0000 0.47350  0.48630  0.75100  Biso   1.000  H
  H43      1.0000 0.02650  0.98630  0.74900  Biso   1.000  H
  H44      1.0000 0.52650  0.51370  0.24900  Biso   1.000  H
  C41      1.0000 0.21120  0.33910  0.29340  Biso   1.000  C
  C42      1.0000 0.71120  0.16090  0.79340  Biso   1.000  C
  C43      1.0000 0.78880  0.66090  0.70660  Biso   1.000  C
  C44      1.0000 0.28880  0.83910  0.20660  Biso   1.000  C
  C45      1.0000 0.16060  0.24840  0.33370  Biso   1.000  C
  C46      1.0000 0.66060  0.25160  0.83370  Biso   1.000  C
  C47      1.0000 0.83940  0.75160  0.66630  Biso   1.000  C
  C48      1.0000 0.33940  0.74840  0.16630  Biso   1.000  C
  H45      1.0000 0.16050  0.17490  0.31100  Biso   1.000  H
  H46      1.0000 0.66050  0.32510  0.81100  Biso   1.000  H
  H47      1.0000 0.83950  0.82510  0.68900  Biso   1.000  H
  H48      1.0000 0.33950  0.67490  0.18900  Biso   1.000  H
  C49      1.0000 0.11010  0.26720  0.40800  Biso   1.000  C
  C50      1.0000 0.61010  0.23280  0.90800  Biso   1.000  C
  C51      1.0000 0.88990  0.73280  0.59200  Biso   1.000  C
  C52      1.0000 0.38990  0.76720  0.09200  Biso   1.000  C
  C53      1.0000 0.10900  0.37710  0.44100  Biso   1.000  C
  C54      1.0000 0.60900  0.12290  0.94100  Biso   1.000  C
  C55      1.0000 0.89100  0.62290  0.55900  Biso   1.000  C
  C56      1.0000 0.39100  0.87710  0.05900  Biso   1.000  C
  H49      1.0000 0.07560  0.38970  0.49090  Biso   1.000  H
  H50      1.0000 0.57560  0.11030  0.99090  Biso   1.000  H
  H51      1.0000 0.92440  0.61030  0.50910  Biso   1.000  H
  H52      1.0000 0.42440  0.88970  0.00910  Biso   1.000  H
  C57      1.0000 0.15720  0.46850  0.40020  Biso   1.000  C
  C58      1.0000 0.65720  0.03150  0.90020  Biso   1.000  C
  C59      1.0000 0.84280  0.53150  0.59980  Biso   1.000  C
  C60      1.0000 0.34280  0.96850  0.09980  Biso   1.000  C
  C61      1.0000 0.20990  0.44810  0.32720  Biso   1.000  C
  C62      1.0000 0.70990  0.05190  0.82720  Biso   1.000  C
  C63      1.0000 0.79010  0.55190  0.67280  Biso   1.000  C
  C64      1.0000 0.29010  0.94810  0.17280  Biso   1.000  C
  H53      1.0000 0.24490  0.50870  0.30060  Biso   1.000  H
  H54      1.0000 0.74490  0.99130  0.80060  Biso   1.000  H
  H55      1.0000 0.75510  0.49130  0.69940  Biso   1.000  H
  H56      1.0000 0.25510  0.00870  0.19940  Biso   1.000  H
  C65      1.0000 0.26750  0.32070  0.21240  Biso   1.000  C
  C66      1.0000 0.76750  0.17930  0.71240  Biso   1.000  C
  C67      1.0000 0.73250  0.67930  0.78760  Biso   1.000  C
  C68      1.0000 0.23250  0.82070  0.28760  Biso   1.000  C
  C69      1.0000 0.04900  0.16830  0.44980  Biso   1.000  C
  C70      1.0000 0.54900  0.33170  0.94980  Biso   1.000  C
  C71      1.0000 0.95100  0.83170  0.55020  Biso   1.000  C
  C72      1.0000 0.45100  0.66830  0.05020  Biso   1.000  C
