data_image0
_cell_length_a       15.282
_cell_length_b       11.841
_cell_length_c       21.799
_cell_angle_alpha    90
_cell_angle_beta     113.728
_cell_angle_gamma    90

_symmetry_space_group_name_H-M    "P 1"
_symmetry_int_tables_number       1

loop_
  _symmetry_equiv_pos_as_xyz
  'x, y, z'

loop_
  _atom_site_label
  _atom_site_occupancy
  _atom_site_fract_x
  _atom_site_fract_y
  _atom_site_fract_z
  _atom_site_thermal_displace_type
  _atom_site_B_iso_or_equiv
  _atom_site_type_symbol
  O1       1.0000 0.62650  0.12580  0.84180  Biso   1.000  O
  O2       1.0000 0.37350  0.12580  0.65820  Biso   1.000  O
  O3       1.0000 0.12650  0.62580  0.84180  Biso   1.000  O
  O4       1.0000 0.87350  0.62580  0.65820  Biso   1.000  O
  O5       1.0000 0.37350  0.87420  0.15820  Biso   1.000  O
  O6       1.0000 0.62650  0.87420  0.34180  Biso   1.000  O
  O7       1.0000 0.87350  0.37420  0.15820  Biso   1.000  O
  O8       1.0000 0.12650  0.37420  0.34180  Biso   1.000  O
  H1       1.0000 0.59500  0.07700  0.81260  Biso   1.000  H
  H2       1.0000 0.40500  0.07700  0.68740  Biso   1.000  H
  H3       1.0000 0.09500  0.57700  0.81260  Biso   1.000  H
  H4       1.0000 0.90500  0.57700  0.68740  Biso   1.000  H
  H5       1.0000 0.40500  0.92300  0.18740  Biso   1.000  H
  H6       1.0000 0.59500  0.92300  0.31260  Biso   1.000  H
  H7       1.0000 0.90500  0.42300  0.18740  Biso   1.000  H
  H8       1.0000 0.09500  0.42300  0.31260  Biso   1.000  H
  H9       1.0000 0.61680  0.11330  0.87690  Biso   1.000  H
  H10      1.0000 0.38320  0.11330  0.62310  Biso   1.000  H
  H11      1.0000 0.11680  0.61330  0.87690  Biso   1.000  H
  H12      1.0000 0.88320  0.61330  0.62310  Biso   1.000  H
  H13      1.0000 0.38320  0.88670  0.12310  Biso   1.000  H
  H14      1.0000 0.61680  0.88670  0.37690  Biso   1.000  H
  H15      1.0000 0.88320  0.38670  0.12310  Biso   1.000  H
  H16      1.0000 0.11680  0.38670  0.37690  Biso   1.000  H
  Cu1      1.0000 0.64887  0.72871  0.00816  Biso   1.000  Cu
  Cu2      1.0000 0.35113  0.72871  0.49183  Biso   1.000  Cu
  Cu3      1.0000 0.14887  0.22871  0.00816  Biso   1.000  Cu
  Cu4      1.0000 0.85113  0.22871  0.49183  Biso   1.000  Cu
  Cu5      1.0000 0.35113  0.27129  0.99183  Biso   1.000  Cu
  Cu6      1.0000 0.64887  0.27129  0.50816  Biso   1.000  Cu
  Cu7      1.0000 0.85113  0.77129  0.99183  Biso   1.000  Cu
  Cu8      1.0000 0.14887  0.77129  0.50816  Biso   1.000  Cu
  S1       1.0000 0.50000  0.67801  0.75000  Biso   1.000  S
  S2       1.0000 0.00000  0.17801  0.75000  Biso   1.000  S
  S3       1.0000 0.50000  0.32199  0.25000  Biso   1.000  S
  S4       1.0000 0.00000  0.82199  0.25000  Biso   1.000  S
  O9       1.0000 0.41599  0.61491  0.70678  Biso   1.000  O
  O10      1.0000 0.58401  0.61491  0.79322  Biso   1.000  O
  O11      1.0000 0.91599  0.11491  0.70678  Biso   1.000  O
  O12      1.0000 0.08401  0.11491  0.79322  Biso   1.000  O
  O13      1.0000 0.58401  0.38509  0.29322  Biso   1.000  O
  O14      1.0000 0.41599  0.38509  0.20678  Biso   1.000  O
  O15      1.0000 0.08401  0.88509  0.29322  Biso   1.000  O
  O16      1.0000 0.91599  0.88509  0.20678  Biso   1.000  O
  O17      1.0000 0.68891  0.75305  0.93288  Biso   1.000  O
  O18      1.0000 0.31109  0.75305  0.56712  Biso   1.000  O
  O19      1.0000 0.18891  0.25305  0.93288  Biso   1.000  O
  O20      1.0000 0.81109  0.25305  0.56712  Biso   1.000  O
  O21      1.0000 0.31109  0.24695  0.06712  Biso   1.000  O
  O22      1.0000 0.68891  0.24695  0.43288  Biso   1.000  O
  O23      1.0000 0.81109  0.74695  0.06712  Biso   1.000  O
  O24      1.0000 0.18891  0.74695  0.43288  Biso   1.000  O
  O25      1.0000 0.67503  0.86845  0.84780  Biso   1.000  O
  O26      1.0000 0.32497  0.86845  0.65220  Biso   1.000  O
  O27      1.0000 0.17503  0.36845  0.84780  Biso   1.000  O
  O28      1.0000 0.82497  0.36845  0.65220  Biso   1.000  O
  O29      1.0000 0.32497  0.13155  0.15220  Biso   1.000  O
  O30      1.0000 0.67503  0.13155  0.34780  Biso   1.000  O
  O31      1.0000 0.82497  0.63155  0.15220  Biso   1.000  O
  O32      1.0000 0.17503  0.63155  0.34780  Biso   1.000  O
  O33      1.0000 0.62703  0.89052  0.01149  Biso   1.000  O
  O34      1.0000 0.37297  0.89052  0.48851  Biso   1.000  O
  O35      1.0000 0.12703  0.39052  0.01149  Biso   1.000  O
  O36      1.0000 0.87297  0.39052  0.48851  Biso   1.000  O
  O37      1.0000 0.37297  0.10948  0.98851  Biso   1.000  O
  O38      1.0000 0.62703  0.10948  0.51149  Biso   1.000  O
  O39      1.0000 0.87297  0.60948  0.98851  Biso   1.000  O
  O40      1.0000 0.12703  0.60948  0.51149  Biso   1.000  O
  O41      1.0000 0.56964  0.05404  0.95923  Biso   1.000  O
  O42      1.0000 0.43036  0.05404  0.54077  Biso   1.000  O
  O43      1.0000 0.06964  0.55404  0.95923  Biso   1.000  O
  O44      1.0000 0.93036  0.55404  0.54077  Biso   1.000  O
  O45      1.0000 0.43036  0.94596  0.04077  Biso   1.000  O
  O46      1.0000 0.56964  0.94596  0.45923  Biso   1.000  O
  O47      1.0000 0.93036  0.44596  0.04077  Biso   1.000  O
  O48      1.0000 0.06964  0.44596  0.45923  Biso   1.000  O
  N1       1.0000 0.61029  0.69061  0.08349  Biso   1.000  N
  N2       1.0000 0.38971  0.69061  0.41651  Biso   1.000  N
  N3       1.0000 0.11029  0.19061  0.08349  Biso   1.000  N
  N4       1.0000 0.88971  0.19061  0.41651  Biso   1.000  N
  N5       1.0000 0.38971  0.30939  0.91651  Biso   1.000  N
  N6       1.0000 0.61029  0.30939  0.58349  Biso   1.000  N
  N7       1.0000 0.88971  0.80939  0.91651  Biso   1.000  N
  N8       1.0000 0.11029  0.80939  0.58349  Biso   1.000  N
  N9       1.0000 0.64507  0.55925  0.99872  Biso   1.000  N
  N10      1.0000 0.35493  0.55925  0.50128  Biso   1.000  N
  N11      1.0000 0.14507  0.05925  0.99872  Biso   1.000  N
  N12      1.0000 0.85493  0.05925  0.50128  Biso   1.000  N
  N13      1.0000 0.35493  0.44075  0.00128  Biso   1.000  N
  N14      1.0000 0.64507  0.44075  0.49872  Biso   1.000  N
  N15      1.0000 0.85493  0.94075  0.00128  Biso   1.000  N
  N16      1.0000 0.14507  0.94075  0.49872  Biso   1.000  N
  C1       1.0000 0.53252  0.81909  0.86070  Biso   1.000  C
  C2       1.0000 0.46748  0.81909  0.63930  Biso   1.000  C
  C3       1.0000 0.03252  0.31909  0.86070  Biso   1.000  C
  C4       1.0000 0.96748  0.31909  0.63930  Biso   1.000  C
  C5       1.0000 0.46748  0.18091  0.13930  Biso   1.000  C
  C6       1.0000 0.53252  0.18091  0.36070  Biso   1.000  C
  C7       1.0000 0.96748  0.68091  0.13930  Biso   1.000  C
  C8       1.0000 0.03252  0.68091  0.36070  Biso   1.000  C
  C9       1.0000 0.49928  0.88556  0.90061  Biso   1.000  C
  C10      1.0000 0.50072  0.88556  0.59939  Biso   1.000  C
  C11      1.0000 0.99928  0.38556  0.90061  Biso   1.000  C
  C12      1.0000 0.00072  0.38556  0.59939  Biso   1.000  C
  C13      1.0000 0.50072  0.11444  0.09939  Biso   1.000  C
  C14      1.0000 0.49928  0.11444  0.40061  Biso   1.000  C
  C15      1.0000 0.00072  0.61444  0.09939  Biso   1.000  C
  C16      1.0000 0.99928  0.61444  0.40061  Biso   1.000  C
  C17      1.0000 0.40082  0.89820  0.88333  Biso   1.000  C
  C18      1.0000 0.59918  0.89820  0.61667  Biso   1.000  C
  C19      1.0000 0.90082  0.39820  0.88333  Biso   1.000  C
  C20      1.0000 0.09918  0.39820  0.61667  Biso   1.000  C
  C21      1.0000 0.59918  0.10180  0.11667  Biso   1.000  C
  C22      1.0000 0.40082  0.10180  0.38333  Biso   1.000  C
  C23      1.0000 0.09918  0.60180  0.11667  Biso   1.000  C
  C24      1.0000 0.90082  0.60180  0.38333  Biso   1.000  C
  H17      1.0000 0.37940  0.94400  0.90910  Biso   1.000  H
  H18      1.0000 0.62060  0.94400  0.59090  Biso   1.000  H
  H19      1.0000 0.87940  0.44400  0.90910  Biso   1.000  H
  H20      1.0000 0.12060  0.44400  0.59090  Biso   1.000  H
  H21      1.0000 0.62060  0.05600  0.09090  Biso   1.000  H
  H22      1.0000 0.37940  0.05600  0.40910  Biso   1.000  H
  H23      1.0000 0.12060  0.55600  0.09090  Biso   1.000  H
  H24      1.0000 0.87940  0.55600  0.40910  Biso   1.000  H
  C25      1.0000 0.33487  0.84200  0.82743  Biso   1.000  C
  C26      1.0000 0.66513  0.84200  0.67257  Biso   1.000  C
  C27      1.0000 0.83487  0.34200  0.82743  Biso   1.000  C
  C28      1.0000 0.16513  0.34200  0.67257  Biso   1.000  C
  C29      1.0000 0.66513  0.15800  0.17257  Biso   1.000  C
  C30      1.0000 0.33487  0.15800  0.32743  Biso   1.000  C
  C31      1.0000 0.16513  0.65800  0.17257  Biso   1.000  C
  C32      1.0000 0.83487  0.65800  0.32743  Biso   1.000  C
  H25      1.0000 0.26990  0.84820  0.81730  Biso   1.000  H
  H26      1.0000 0.73010  0.84820  0.68270  Biso   1.000  H
  H27      1.0000 0.76990  0.34820  0.81730  Biso   1.000  H
  H28      1.0000 0.23010  0.34820  0.68270  Biso   1.000  H
  H29      1.0000 0.73010  0.15180  0.18270  Biso   1.000  H
  H30      1.0000 0.26990  0.15180  0.31730  Biso   1.000  H
  H31      1.0000 0.23010  0.65180  0.18270  Biso   1.000  H
  H32      1.0000 0.76990  0.65180  0.31730  Biso   1.000  H
  C33      1.0000 0.36565  0.77670  0.78665  Biso   1.000  C
  C34      1.0000 0.63435  0.77670  0.71335  Biso   1.000  C
  C35      1.0000 0.86565  0.27670  0.78665  Biso   1.000  C
  C36      1.0000 0.13435  0.27670  0.71335  Biso   1.000  C
  C37      1.0000 0.63435  0.22330  0.21335  Biso   1.000  C
  C38      1.0000 0.36565  0.22330  0.28665  Biso   1.000  C
  C39      1.0000 0.13435  0.72330  0.21335  Biso   1.000  C
  C40      1.0000 0.86565  0.72330  0.28665  Biso   1.000  C
  H33      1.0000 0.32150  0.74030  0.74920  Biso   1.000  H
  H34      1.0000 0.67850  0.74030  0.75080  Biso   1.000  H
  H35      1.0000 0.82150  0.24030  0.74920  Biso   1.000  H
  H36      1.0000 0.17850  0.24030  0.75080  Biso   1.000  H
  H37      1.0000 0.67850  0.25970  0.25080  Biso   1.000  H
  H38      1.0000 0.32150  0.25970  0.24920  Biso   1.000  H
  H39      1.0000 0.17850  0.75970  0.25080  Biso   1.000  H
  H40      1.0000 0.82150  0.75970  0.24920  Biso   1.000  H
  C41      1.0000 0.46426  0.76650  0.80277  Biso   1.000  C
  C42      1.0000 0.53574  0.76650  0.69723  Biso   1.000  C
  C43      1.0000 0.96426  0.26650  0.80277  Biso   1.000  C
  C44      1.0000 0.03574  0.26650  0.69723  Biso   1.000  C
  C45      1.0000 0.53574  0.23350  0.19723  Biso   1.000  C
  C46      1.0000 0.46426  0.23350  0.30277  Biso   1.000  C
  C47      1.0000 0.03574  0.73350  0.19723  Biso   1.000  C
  C48      1.0000 0.96426  0.73350  0.30277  Biso   1.000  C
  C49      1.0000 0.64028  0.81358  0.88039  Biso   1.000  C
  C50      1.0000 0.35972  0.81358  0.61961  Biso   1.000  C
  C51      1.0000 0.14028  0.31358  0.88039  Biso   1.000  C
  C52      1.0000 0.85972  0.31358  0.61961  Biso   1.000  C
  C53      1.0000 0.35972  0.18642  0.11961  Biso   1.000  C
  C54      1.0000 0.64028  0.18642  0.38039  Biso   1.000  C
  C55      1.0000 0.85972  0.68642  0.11961  Biso   1.000  C
  C56      1.0000 0.14028  0.68642  0.38039  Biso   1.000  C
  C57      1.0000 0.57041  0.94993  0.96131  Biso   1.000  C
  C58      1.0000 0.42959  0.94993  0.53869  Biso   1.000  C
  C59      1.0000 0.07041  0.44993  0.96131  Biso   1.000  C
  C60      1.0000 0.92959  0.44993  0.53869  Biso   1.000  C
  C61      1.0000 0.42959  0.05007  0.03869  Biso   1.000  C
  C62      1.0000 0.57041  0.05007  0.46131  Biso   1.000  C
  C63      1.0000 0.92959  0.55007  0.03869  Biso   1.000  C
  C64      1.0000 0.07041  0.55007  0.46131  Biso   1.000  C
  C65      1.0000 0.59820  0.76600  0.12560  Biso   1.000  C
  C66      1.0000 0.40180  0.76600  0.37440  Biso   1.000  C
  C67      1.0000 0.09820  0.26600  0.12560  Biso   1.000  C
  C68      1.0000 0.90180  0.26600  0.37440  Biso   1.000  C
  C69      1.0000 0.40180  0.23400  0.87440  Biso   1.000  C
  C70      1.0000 0.59820  0.23400  0.62560  Biso   1.000  C
  C71      1.0000 0.90180  0.73400  0.87440  Biso   1.000  C
  C72      1.0000 0.09820  0.73400  0.62560  Biso   1.000  C
  H41      1.0000 0.59840  0.84270  0.11640  Biso   1.000  H
  H42      1.0000 0.40160  0.84270  0.38360  Biso   1.000  H
  H43      1.0000 0.09840  0.34270  0.11640  Biso   1.000  H
  H44      1.0000 0.90160  0.34270  0.38360  Biso   1.000  H
  H45      1.0000 0.40160  0.15730  0.88360  Biso   1.000  H
  H46      1.0000 0.59840  0.15730  0.61640  Biso   1.000  H
  H47      1.0000 0.90160  0.65730  0.88360  Biso   1.000  H
  H48      1.0000 0.09840  0.65730  0.61640  Biso   1.000  H
  C73      1.0000 0.58530  0.73190  0.18295  Biso   1.000  C
  C74      1.0000 0.41470  0.73190  0.31705  Biso   1.000  C
  C75      1.0000 0.08530  0.23190  0.18295  Biso   1.000  C
  C76      1.0000 0.91470  0.23190  0.31705  Biso   1.000  C
  C77      1.0000 0.41470  0.26810  0.81705  Biso   1.000  C
  C78      1.0000 0.58530  0.26810  0.68295  Biso   1.000  C
  C79      1.0000 0.91470  0.76810  0.81705  Biso   1.000  C
  C80      1.0000 0.08530  0.76810  0.68295  Biso   1.000  C
  H49      1.0000 0.57700  0.78510  0.21160  Biso   1.000  H
  H50      1.0000 0.42300  0.78510  0.28840  Biso   1.000  H
  H51      1.0000 0.07700  0.28510  0.21160  Biso   1.000  H
  H52      1.0000 0.92300  0.28510  0.28840  Biso   1.000  H
  H53      1.0000 0.42300  0.21490  0.78840  Biso   1.000  H
  H54      1.0000 0.57700  0.21490  0.71160  Biso   1.000  H
  H55      1.0000 0.92300  0.71490  0.78840  Biso   1.000  H
  H56      1.0000 0.07700  0.71490  0.71160  Biso   1.000  H
  C81      1.0000 0.58510  0.61790  0.19615  Biso   1.000  C
  C82      1.0000 0.41490  0.61790  0.30385  Biso   1.000  C
  C83      1.0000 0.08510  0.11790  0.19615  Biso   1.000  C
  C84      1.0000 0.91490  0.11790  0.30385  Biso   1.000  C
  C85      1.0000 0.41490  0.38210  0.80385  Biso   1.000  C
  C86      1.0000 0.58510  0.38210  0.69615  Biso   1.000  C
  C87      1.0000 0.91490  0.88210  0.80385  Biso   1.000  C
  C88      1.0000 0.08510  0.88210  0.69615  Biso   1.000  C
  H57      1.0000 0.57720  0.59350  0.23420  Biso   1.000  H
  H58      1.0000 0.42280  0.59350  0.26580  Biso   1.000  H
  H59      1.0000 0.07720  0.09350  0.23420  Biso   1.000  H
  H60      1.0000 0.92280  0.09350  0.26580  Biso   1.000  H
  H61      1.0000 0.42280  0.40650  0.76580  Biso   1.000  H
  H62      1.0000 0.57720  0.40650  0.73420  Biso   1.000  H
  H63      1.0000 0.92280  0.90650  0.76580  Biso   1.000  H
  H64      1.0000 0.07720  0.90650  0.73420  Biso   1.000  H
  C89      1.0000 0.59670  0.53960  0.15244  Biso   1.000  C
  C90      1.0000 0.40330  0.53960  0.34756  Biso   1.000  C
  C91      1.0000 0.09670  0.03960  0.15244  Biso   1.000  C
  C92      1.0000 0.90330  0.03960  0.34756  Biso   1.000  C
  C93      1.0000 0.40330  0.46040  0.84756  Biso   1.000  C
  C94      1.0000 0.59670  0.46040  0.65244  Biso   1.000  C
  C95      1.0000 0.90330  0.96040  0.84756  Biso   1.000  C
  C96      1.0000 0.09670  0.96040  0.65244  Biso   1.000  C
  H65      1.0000 0.59600  0.46260  0.16060  Biso   1.000  H
  H66      1.0000 0.40400  0.46260  0.33940  Biso   1.000  H
  H67      1.0000 0.09600  0.96260  0.16060  Biso   1.000  H
  H68      1.0000 0.90400  0.96260  0.33940  Biso   1.000  H
  H69      1.0000 0.40400  0.53740  0.83940  Biso   1.000  H
  H70      1.0000 0.59600  0.53740  0.66060  Biso   1.000  H
  H71      1.0000 0.90400  0.03740  0.83940  Biso   1.000  H
  H72      1.0000 0.09600  0.03740  0.66060  Biso   1.000  H
  C97      1.0000 0.60931  0.57850  0.09590  Biso   1.000  C
  C98      1.0000 0.39069  0.57850  0.40410  Biso   1.000  C
  C99      1.0000 0.10931  0.07850  0.09590  Biso   1.000  C
  C100     1.0000 0.89069  0.07850  0.40410  Biso   1.000  C
  C101     1.0000 0.39069  0.42150  0.90410  Biso   1.000  C
  C102     1.0000 0.60931  0.42150  0.59590  Biso   1.000  C
  C103     1.0000 0.89069  0.92150  0.90410  Biso   1.000  C
  C104     1.0000 0.10931  0.92150  0.59590  Biso   1.000  C
  C105     1.0000 0.62508  0.50310  0.04638  Biso   1.000  C
  C106     1.0000 0.37492  0.50310  0.45362  Biso   1.000  C
  C107     1.0000 0.12508  0.00310  0.04638  Biso   1.000  C
  C108     1.0000 0.87492  0.00310  0.45362  Biso   1.000  C
  C109     1.0000 0.37492  0.49690  0.95362  Biso   1.000  C
  C110     1.0000 0.62508  0.49690  0.54638  Biso   1.000  C
  C111     1.0000 0.87492  0.99690  0.95362  Biso   1.000  C
  C112     1.0000 0.12508  0.99690  0.54638  Biso   1.000  C
  C113     1.0000 0.61937  0.38510  0.04618  Biso   1.000  C
  C114     1.0000 0.38063  0.38510  0.45382  Biso   1.000  C
  C115     1.0000 0.11937  0.88510  0.04618  Biso   1.000  C
  C116     1.0000 0.88063  0.88510  0.45382  Biso   1.000  C
  C117     1.0000 0.38063  0.61490  0.95382  Biso   1.000  C
  C118     1.0000 0.61937  0.61490  0.54618  Biso   1.000  C
  C119     1.0000 0.88063  0.11490  0.95382  Biso   1.000  C
  C120     1.0000 0.11937  0.11490  0.54618  Biso   1.000  C
  H73      1.0000 0.60500  0.34800  0.07860  Biso   1.000  H
  H74      1.0000 0.39500  0.34800  0.42140  Biso   1.000  H
  H75      1.0000 0.10500  0.84800  0.07860  Biso   1.000  H
  H76      1.0000 0.89500  0.84800  0.42140  Biso   1.000  H
  H77      1.0000 0.39500  0.65200  0.92140  Biso   1.000  H
  H78      1.0000 0.60500  0.65200  0.57860  Biso   1.000  H
  H79      1.0000 0.89500  0.15200  0.92140  Biso   1.000  H
  H80      1.0000 0.10500  0.15200  0.57860  Biso   1.000  H
  C121     1.0000 0.63530  0.32380  0.99717  Biso   1.000  C
  C122     1.0000 0.36470  0.32380  0.50283  Biso   1.000  C
  C123     1.0000 0.13530  0.82380  0.99717  Biso   1.000  C
  C124     1.0000 0.86470  0.82380  0.50283  Biso   1.000  C
  C125     1.0000 0.36470  0.67620  0.00283  Biso   1.000  C
  C126     1.0000 0.63530  0.67620  0.49717  Biso   1.000  C
  C127     1.0000 0.86470  0.17620  0.00283  Biso   1.000  C
  C128     1.0000 0.13530  0.17620  0.49717  Biso   1.000  C
  H81      1.0000 0.63160  0.24530  0.99640  Biso   1.000  H
  H82      1.0000 0.36840  0.24530  0.50360  Biso   1.000  H
  H83      1.0000 0.13160  0.74530  0.99640  Biso   1.000  H
  H84      1.0000 0.86840  0.74530  0.50360  Biso   1.000  H
  H85      1.0000 0.36840  0.75470  0.00360  Biso   1.000  H
  H86      1.0000 0.63160  0.75470  0.49640  Biso   1.000  H
  H87      1.0000 0.86840  0.25470  0.00360  Biso   1.000  H
  H88      1.0000 0.13160  0.25470  0.49640  Biso   1.000  H
  C129     1.0000 0.65680  0.38160  0.94942  Biso   1.000  C
  C130     1.0000 0.34320  0.38160  0.55058  Biso   1.000  C
  C131     1.0000 0.15680  0.88160  0.94942  Biso   1.000  C
  C132     1.0000 0.84320  0.88160  0.55058  Biso   1.000  C
  C133     1.0000 0.34320  0.61840  0.05058  Biso   1.000  C
  C134     1.0000 0.65680  0.61840  0.44942  Biso   1.000  C
  C135     1.0000 0.84320  0.11840  0.05058  Biso   1.000  C
  C136     1.0000 0.15680  0.11840  0.44942  Biso   1.000  C
  H89      1.0000 0.66810  0.34220  0.91640  Biso   1.000  H
  H90      1.0000 0.33190  0.34220  0.58360  Biso   1.000  H
  H91      1.0000 0.16810  0.84220  0.91640  Biso   1.000  H
  H92      1.0000 0.83190  0.84220  0.58360  Biso   1.000  H
  H93      1.0000 0.33190  0.65780  0.08360  Biso   1.000  H
  H94      1.0000 0.66810  0.65780  0.41640  Biso   1.000  H
  H95      1.0000 0.83190  0.15780  0.08360  Biso   1.000  H
  H96      1.0000 0.16810  0.15780  0.41640  Biso   1.000  H
  C137     1.0000 0.66119  0.49950  0.95171  Biso   1.000  C
  C138     1.0000 0.33881  0.49950  0.54829  Biso   1.000  C
  C139     1.0000 0.16119  0.99950  0.95171  Biso   1.000  C
  C140     1.0000 0.83881  0.99950  0.54829  Biso   1.000  C
  C141     1.0000 0.33881  0.50050  0.04829  Biso   1.000  C
  C142     1.0000 0.66119  0.50050  0.45171  Biso   1.000  C
  C143     1.0000 0.83881  0.00050  0.04829  Biso   1.000  C
  C144     1.0000 0.16119  0.00050  0.45171  Biso   1.000  C
  H97      1.0000 0.67570  0.53790  0.91980  Biso   1.000  H
  H98      1.0000 0.32430  0.53790  0.58020  Biso   1.000  H
  H99      1.0000 0.17570  0.03790  0.91980  Biso   1.000  H
  H100     1.0000 0.82430  0.03790  0.58020  Biso   1.000  H
  H101     1.0000 0.32430  0.46210  0.08020  Biso   1.000  H
  H102     1.0000 0.67570  0.46210  0.41980  Biso   1.000  H
  H103     1.0000 0.82430  0.96210  0.08020  Biso   1.000  H
  H104     1.0000 0.17570  0.96210  0.41980  Biso   1.000  H
