data_image0
_cell_length_a       15.539
_cell_length_b       15.539
_cell_length_c       21.149
_cell_angle_alpha    90
_cell_angle_beta     90
_cell_angle_gamma    120

_symmetry_space_group_name_H-M    "P 1"
_symmetry_int_tables_number       1

loop_
  _symmetry_equiv_pos_as_xyz
  'x, y, z'

loop_
  _atom_site_label
  _atom_site_occupancy
  _atom_site_fract_x
  _atom_site_fract_y
  _atom_site_fract_z
  _atom_site_thermal_displace_type
  _atom_site_B_iso_or_equiv
  _atom_site_type_symbol
  Cu1      1.0000 0.50000  0.50000  0.00000  Biso   1.000  Cu
  Cu2      1.0000 0.50000  0.00000  0.00000  Biso   1.000  Cu
  Cu3      1.0000 0.00000  0.50000  0.00000  Biso   1.000  Cu
  Cu4      1.0000 0.83333  0.83333  0.33333  Biso   1.000  Cu
  Cu5      1.0000 0.83333  0.33333  0.33333  Biso   1.000  Cu
  Cu6      1.0000 0.33333  0.83333  0.33333  Biso   1.000  Cu
  N1       1.0000 0.53420  0.00710  0.09163  Biso   1.000  N
  N2       1.0000 0.99290  0.52710  0.09163  Biso   1.000  N
  N3       1.0000 0.47290  0.46580  0.09163  Biso   1.000  N
  N4       1.0000 0.86753  0.34043  0.42496  Biso   1.000  N
  N5       1.0000 0.32623  0.86043  0.42496  Biso   1.000  N
  N6       1.0000 0.80623  0.79913  0.42496  Biso   1.000  N
  N7       1.0000 0.34043  0.80623  0.24170  Biso   1.000  N
  N8       1.0000 0.86043  0.86753  0.24170  Biso   1.000  N
  N9       1.0000 0.46580  0.99290  0.90837  Biso   1.000  N
  N10      1.0000 0.00710  0.47290  0.90837  Biso   1.000  N
  N11      1.0000 0.52710  0.53420  0.90837  Biso   1.000  N
  N12      1.0000 0.79913  0.32623  0.24170  Biso   1.000  N
  N13      1.0000 0.57710  0.06320  0.18876  Biso   1.000  N
  N14      1.0000 0.93680  0.51390  0.18876  Biso   1.000  N
  N15      1.0000 0.48610  0.42290  0.18876  Biso   1.000  N
  N16      1.0000 0.91043  0.39653  0.52209  Biso   1.000  N
  N17      1.0000 0.27013  0.84723  0.52209  Biso   1.000  N
  N18      1.0000 0.81943  0.75623  0.52209  Biso   1.000  N
  N19      1.0000 0.39653  0.81943  0.14457  Biso   1.000  N
  N20      1.0000 0.84723  0.91043  0.14457  Biso   1.000  N
  N21      1.0000 0.42290  0.93680  0.81124  Biso   1.000  N
  N22      1.0000 0.06320  0.48610  0.81124  Biso   1.000  N
  N23      1.0000 0.51390  0.57710  0.81124  Biso   1.000  N
  N24      1.0000 0.75623  0.27013  0.14457  Biso   1.000  N
  O1       1.0000 0.13360  0.61280  0.99491  Biso   1.000  O
  O2       1.0000 0.38720  0.52080  0.99491  Biso   1.000  O
  O3       1.0000 0.47920  0.86640  0.99491  Biso   1.000  O
  O4       1.0000 0.46693  0.94613  0.32824  Biso   1.000  O
  O5       1.0000 0.72053  0.85413  0.32824  Biso   1.000  O
  O6       1.0000 0.81253  0.19973  0.32824  Biso   1.000  O
  O7       1.0000 0.94613  0.81253  0.33842  Biso   1.000  O
  O8       1.0000 0.85413  0.46693  0.33842  Biso   1.000  O
  O9       1.0000 0.86640  0.38720  0.00509  Biso   1.000  O
  O10      1.0000 0.61280  0.47920  0.00509  Biso   1.000  O
  O11      1.0000 0.52080  0.13360  0.00509  Biso   1.000  O
  O12      1.0000 0.19973  0.72053  0.33842  Biso   1.000  O
  O13      1.0000 0.06260  0.70370  0.98100  Biso   1.000  O
  O14      1.0000 0.29630  0.35890  0.98100  Biso   1.000  O
  O15      1.0000 0.64110  0.93740  0.98100  Biso   1.000  O
  O16      1.0000 0.39593  0.03703  0.31433  Biso   1.000  O
  O17      1.0000 0.62963  0.69223  0.31433  Biso   1.000  O
  O18      1.0000 0.97443  0.27073  0.31433  Biso   1.000  O
  O19      1.0000 0.03703  0.97443  0.35233  Biso   1.000  O
  O20      1.0000 0.69223  0.39593  0.35233  Biso   1.000  O
  O21      1.0000 0.93740  0.29630  0.01900  Biso   1.000  O
  O22      1.0000 0.70370  0.64110  0.01900  Biso   1.000  O
  O23      1.0000 0.35890  0.06260  0.01900  Biso   1.000  O
  O24      1.0000 0.27073  0.62963  0.35233  Biso   1.000  O
  O25      1.0000 0.33330  0.66670  0.12520  Biso   1.000  O
  O26      1.0000 0.66663  0.00003  0.45853  Biso   1.000  O
  O27      1.0000 0.00003  0.66673  0.20813  Biso   1.000  O
  O28      1.0000 0.66670  0.33330  0.87480  Biso   1.000  O
  C1       1.0000 0.55390  0.08020  0.13110  Biso   1.000  C
  C2       1.0000 0.91980  0.47370  0.13110  Biso   1.000  C
  C3       1.0000 0.52630  0.44610  0.13110  Biso   1.000  C
  C4       1.0000 0.88723  0.41353  0.46443  Biso   1.000  C
  C5       1.0000 0.25313  0.80703  0.46443  Biso   1.000  C
  C6       1.0000 0.85963  0.77943  0.46443  Biso   1.000  C
  C7       1.0000 0.41353  0.85963  0.20223  Biso   1.000  C
  C8       1.0000 0.80703  0.88723  0.20223  Biso   1.000  C
  C9       1.0000 0.44610  0.91980  0.86890  Biso   1.000  C
  C10      1.0000 0.08020  0.52630  0.86890  Biso   1.000  C
  C11      1.0000 0.47370  0.55390  0.86890  Biso   1.000  C
  C12      1.0000 0.77943  0.25313  0.20223  Biso   1.000  C
  H1       1.0000 0.55190  0.13710  0.12000  Biso   1.000  H
  H2       1.0000 0.86290  0.41480  0.12000  Biso   1.000  H
  H3       1.0000 0.58520  0.44810  0.12000  Biso   1.000  H
  H4       1.0000 0.88523  0.47043  0.45333  Biso   1.000  H
  H5       1.0000 0.19623  0.74813  0.45333  Biso   1.000  H
  H6       1.0000 0.91853  0.78143  0.45333  Biso   1.000  H
  H7       1.0000 0.47043  0.91853  0.21333  Biso   1.000  H
  H8       1.0000 0.74813  0.88523  0.21333  Biso   1.000  H
  H9       1.0000 0.44810  0.86290  0.88000  Biso   1.000  H
  H10      1.0000 0.13710  0.58520  0.88000  Biso   1.000  H
  H11      1.0000 0.41480  0.55190  0.88000  Biso   1.000  H
  H12      1.0000 0.78143  0.19623  0.21333  Biso   1.000  H
  C13      1.0000 0.57220  0.97280  0.18640  Biso   1.000  C
  C14      1.0000 0.02720  0.59940  0.18640  Biso   1.000  C
  C15      1.0000 0.40060  0.42780  0.18640  Biso   1.000  C
  C16      1.0000 0.90553  0.30613  0.51973  Biso   1.000  C
  C17      1.0000 0.36053  0.93273  0.51973  Biso   1.000  C
  C18      1.0000 0.73393  0.76113  0.51973  Biso   1.000  C
  C19      1.0000 0.30613  0.73393  0.14693  Biso   1.000  C
  C20      1.0000 0.93273  0.90553  0.14693  Biso   1.000  C
  C21      1.0000 0.42780  0.02720  0.81360  Biso   1.000  C
  C22      1.0000 0.97280  0.40060  0.81360  Biso   1.000  C
  C23      1.0000 0.59940  0.57220  0.81360  Biso   1.000  C
  C24      1.0000 0.76113  0.36053  0.14693  Biso   1.000  C
  H13      1.0000 0.58480  0.94100  0.21940  Biso   1.000  H
  H14      1.0000 0.05900  0.64380  0.21940  Biso   1.000  H
  H15      1.0000 0.35620  0.41520  0.21940  Biso   1.000  H
  H16      1.0000 0.91813  0.27433  0.55273  Biso   1.000  H
  H17      1.0000 0.39233  0.97713  0.55273  Biso   1.000  H
  H18      1.0000 0.68953  0.74853  0.55273  Biso   1.000  H
  H19      1.0000 0.27433  0.68953  0.11393  Biso   1.000  H
  H20      1.0000 0.97713  0.91813  0.11393  Biso   1.000  H
  H21      1.0000 0.41520  0.05900  0.78060  Biso   1.000  H
  H22      1.0000 0.94100  0.35620  0.78060  Biso   1.000  H
  H23      1.0000 0.64380  0.58480  0.78060  Biso   1.000  H
  H24      1.0000 0.74853  0.39233  0.11393  Biso   1.000  H
  C25      1.0000 0.54560  0.93900  0.12690  Biso   1.000  C
  C26      1.0000 0.06100  0.60660  0.12690  Biso   1.000  C
  C27      1.0000 0.39340  0.45440  0.12690  Biso   1.000  C
  C28      1.0000 0.87893  0.27233  0.46023  Biso   1.000  C
  C29      1.0000 0.39433  0.93993  0.46023  Biso   1.000  C
  C30      1.0000 0.72673  0.78773  0.46023  Biso   1.000  C
  C31      1.0000 0.27233  0.72673  0.20643  Biso   1.000  C
  C32      1.0000 0.93993  0.87893  0.20643  Biso   1.000  C
  C33      1.0000 0.45440  0.06100  0.87310  Biso   1.000  C
  C34      1.0000 0.93900  0.39340  0.87310  Biso   1.000  C
  C35      1.0000 0.60660  0.54560  0.87310  Biso   1.000  C
  C36      1.0000 0.78773  0.39433  0.20643  Biso   1.000  C
  H25      1.0000 0.53630  0.87870  0.11190  Biso   1.000  H
  H26      1.0000 0.12130  0.65760  0.11190  Biso   1.000  H
  H27      1.0000 0.34240  0.46370  0.11190  Biso   1.000  H
  H28      1.0000 0.86963  0.21203  0.44523  Biso   1.000  H
  H29      1.0000 0.45463  0.99093  0.44523  Biso   1.000  H
  H30      1.0000 0.67573  0.79703  0.44523  Biso   1.000  H
  H31      1.0000 0.21203  0.67573  0.22143  Biso   1.000  H
  H32      1.0000 0.99093  0.86963  0.22143  Biso   1.000  H
  H33      1.0000 0.46370  0.12130  0.88810  Biso   1.000  H
  H34      1.0000 0.87870  0.34240  0.88810  Biso   1.000  H
  H35      1.0000 0.65760  0.53630  0.88810  Biso   1.000  H
  H36      1.0000 0.79703  0.45463  0.22143  Biso   1.000  H
  C37      1.0000 0.59340  0.12130  0.24690  Biso   1.000  C
  C38      1.0000 0.87870  0.47210  0.24690  Biso   1.000  C
  C39      1.0000 0.52790  0.40660  0.24690  Biso   1.000  C
  C40      1.0000 0.92673  0.45463  0.58023  Biso   1.000  C
  C41      1.0000 0.21203  0.80543  0.58023  Biso   1.000  C
  C42      1.0000 0.86123  0.73993  0.58023  Biso   1.000  C
  C43      1.0000 0.45463  0.86123  0.08643  Biso   1.000  C
  C44      1.0000 0.80543  0.92673  0.08643  Biso   1.000  C
  C45      1.0000 0.40660  0.87870  0.75310  Biso   1.000  C
  C46      1.0000 0.12130  0.52790  0.75310  Biso   1.000  C
  C47      1.0000 0.47210  0.59340  0.75310  Biso   1.000  C
  C48      1.0000 0.73993  0.21203  0.08643  Biso   1.000  C
  H37      1.0000 0.64070  0.11430  0.27310  Biso   1.000  H
  H38      1.0000 0.88570  0.52640  0.27310  Biso   1.000  H
  H39      1.0000 0.47360  0.35930  0.27310  Biso   1.000  H
  H40      1.0000 0.97403  0.44763  0.60643  Biso   1.000  H
  H41      1.0000 0.21903  0.85973  0.60643  Biso   1.000  H
  H42      1.0000 0.80693  0.69263  0.60643  Biso   1.000  H
  H43      1.0000 0.44763  0.80693  0.06023  Biso   1.000  H
  H44      1.0000 0.85973  0.97403  0.06023  Biso   1.000  H
  H45      1.0000 0.35930  0.88570  0.72690  Biso   1.000  H
  H46      1.0000 0.11430  0.47360  0.72690  Biso   1.000  H
  H47      1.0000 0.52640  0.64070  0.72690  Biso   1.000  H
  H48      1.0000 0.69263  0.21903  0.06023  Biso   1.000  H
  H49      1.0000 0.53120  0.09300  0.27000  Biso   1.000  H
  H50      1.0000 0.90700  0.43820  0.27000  Biso   1.000  H
  H51      1.0000 0.56180  0.46880  0.27000  Biso   1.000  H
  H52      1.0000 0.86453  0.42633  0.60333  Biso   1.000  H
  H53      1.0000 0.24033  0.77153  0.60333  Biso   1.000  H
  H54      1.0000 0.89513  0.80213  0.60333  Biso   1.000  H
  H55      1.0000 0.42633  0.89513  0.06333  Biso   1.000  H
  H56      1.0000 0.77153  0.86453  0.06333  Biso   1.000  H
  H57      1.0000 0.46880  0.90700  0.73000  Biso   1.000  H
  H58      1.0000 0.09300  0.56180  0.73000  Biso   1.000  H
  H59      1.0000 0.43820  0.53120  0.73000  Biso   1.000  H
  H60      1.0000 0.80213  0.24033  0.06333  Biso   1.000  H
  C49      1.0000 0.63110  0.23110  0.23695  Biso   1.000  C
  C50      1.0000 0.76890  0.40000  0.23695  Biso   1.000  C
  C51      1.0000 0.60000  0.36890  0.23695  Biso   1.000  C
  C52      1.0000 0.96443  0.56443  0.57028  Biso   1.000  C
  C53      1.0000 0.10223  0.73333  0.57028  Biso   1.000  C
  C54      1.0000 0.93333  0.70223  0.57028  Biso   1.000  C
  C55      1.0000 0.56443  0.93333  0.09638  Biso   1.000  C
  C56      1.0000 0.73333  0.96443  0.09638  Biso   1.000  C
  C57      1.0000 0.36890  0.76890  0.76305  Biso   1.000  C
  C58      1.0000 0.23110  0.60000  0.76305  Biso   1.000  C
  C59      1.0000 0.40000  0.63110  0.76305  Biso   1.000  C
  C60      1.0000 0.70223  0.10223  0.09638  Biso   1.000  C
  C61      1.0000 0.56410  0.26590  0.23587  Biso   1.000  C
  C62      1.0000 0.73410  0.29820  0.23587  Biso   1.000  C
  C63      1.0000 0.70180  0.43590  0.23587  Biso   1.000  C
  C64      1.0000 0.89743  0.59923  0.56920  Biso   1.000  C
  C65      1.0000 0.06743  0.63153  0.56920  Biso   1.000  C
  C66      1.0000 0.03513  0.76923  0.56920  Biso   1.000  C
  C67      1.0000 0.59923  0.03513  0.09746  Biso   1.000  C
  C68      1.0000 0.63153  0.89743  0.09746  Biso   1.000  C
  C69      1.0000 0.43590  0.73410  0.76413  Biso   1.000  C
  C70      1.0000 0.26590  0.70180  0.76413  Biso   1.000  C
  C71      1.0000 0.29820  0.56410  0.76413  Biso   1.000  C
  C72      1.0000 0.76923  0.06743  0.09746  Biso   1.000  C
  C73      1.0000 0.45290  0.19340  0.23360  Biso   1.000  C
  C74      1.0000 0.80660  0.25950  0.23360  Biso   1.000  C
  C75      1.0000 0.74050  0.54710  0.23360  Biso   1.000  C
  C76      1.0000 0.78623  0.52673  0.56693  Biso   1.000  C
  C77      1.0000 0.13993  0.59283  0.56693  Biso   1.000  C
  C78      1.0000 0.07383  0.88043  0.56693  Biso   1.000  C
  C79      1.0000 0.52673  0.07383  0.09973  Biso   1.000  C
  C80      1.0000 0.59283  0.78623  0.09973  Biso   1.000  C
  C81      1.0000 0.54710  0.80660  0.76640  Biso   1.000  C
  C82      1.0000 0.19340  0.74050  0.76640  Biso   1.000  C
  C83      1.0000 0.25950  0.45290  0.76640  Biso   1.000  C
  C84      1.0000 0.88043  0.13993  0.09973  Biso   1.000  C
  H61      1.0000 0.41780  0.22970  0.23310  Biso   1.000  H
  H62      1.0000 0.77030  0.18810  0.23310  Biso   1.000  H
  H63      1.0000 0.81190  0.58220  0.23310  Biso   1.000  H
  H64      1.0000 0.75113  0.56303  0.56643  Biso   1.000  H
  H65      1.0000 0.10363  0.52143  0.56643  Biso   1.000  H
  H66      1.0000 0.14523  0.91553  0.56643  Biso   1.000  H
  H67      1.0000 0.56303  0.14523  0.10023  Biso   1.000  H
  H68      1.0000 0.52143  0.75113  0.10023  Biso   1.000  H
  H69      1.0000 0.58220  0.77030  0.76690  Biso   1.000  H
  H70      1.0000 0.22970  0.81190  0.76690  Biso   1.000  H
  H71      1.0000 0.18810  0.41780  0.76690  Biso   1.000  H
  H72      1.0000 0.91553  0.10363  0.10023  Biso   1.000  H
  H73      1.0000 0.43350  0.15120  0.27020  Biso   1.000  H
  H74      1.0000 0.84880  0.28230  0.27020  Biso   1.000  H
  H75      1.0000 0.71770  0.56650  0.27020  Biso   1.000  H
  H76      1.0000 0.76683  0.48453  0.60353  Biso   1.000  H
  H77      1.0000 0.18213  0.61563  0.60353  Biso   1.000  H
  H78      1.0000 0.05103  0.89983  0.60353  Biso   1.000  H
  H79      1.0000 0.48453  0.05103  0.06313  Biso   1.000  H
  H80      1.0000 0.61563  0.76683  0.06313  Biso   1.000  H
  H81      1.0000 0.56650  0.84880  0.72980  Biso   1.000  H
  H82      1.0000 0.15120  0.71770  0.72980  Biso   1.000  H
  H83      1.0000 0.28230  0.43350  0.72980  Biso   1.000  H
  H84      1.0000 0.89983  0.18213  0.06313  Biso   1.000  H
  H85      1.0000 0.43710  0.15350  0.19610  Biso   1.000  H
  H86      1.0000 0.84650  0.28360  0.19610  Biso   1.000  H
  H87      1.0000 0.71640  0.56290  0.19610  Biso   1.000  H
  H88      1.0000 0.77043  0.48683  0.52943  Biso   1.000  H
  H89      1.0000 0.17983  0.61693  0.52943  Biso   1.000  H
  H90      1.0000 0.04973  0.89623  0.52943  Biso   1.000  H
  H91      1.0000 0.48683  0.04973  0.13723  Biso   1.000  H
  H92      1.0000 0.61693  0.77043  0.13723  Biso   1.000  H
  H93      1.0000 0.56290  0.84650  0.80390  Biso   1.000  H
  H94      1.0000 0.15350  0.71640  0.80390  Biso   1.000  H
  H95      1.0000 0.28360  0.43710  0.80390  Biso   1.000  H
  H96      1.0000 0.89623  0.17983  0.13723  Biso   1.000  H
  C85      1.0000 0.13680  0.69570  0.98460  Biso   1.000  C
  C86      1.0000 0.30430  0.44110  0.98460  Biso   1.000  C
  C87      1.0000 0.55890  0.86320  0.98460  Biso   1.000  C
  C88      1.0000 0.47013  0.02903  0.31793  Biso   1.000  C
  C89      1.0000 0.63763  0.77443  0.31793  Biso   1.000  C
  C90      1.0000 0.89223  0.19653  0.31793  Biso   1.000  C
  C91      1.0000 0.02903  0.89223  0.34873  Biso   1.000  C
  C92      1.0000 0.77443  0.47013  0.34873  Biso   1.000  C
  C93      1.0000 0.86320  0.30430  0.01540  Biso   1.000  C
  C94      1.0000 0.69570  0.55890  0.01540  Biso   1.000  C
  C95      1.0000 0.44110  0.13680  0.01540  Biso   1.000  C
  C96      1.0000 0.19653  0.63763  0.34873  Biso   1.000  C
  C97      1.0000 0.23890  0.78340  0.97520  Biso   1.000  C
  C98      1.0000 0.21660  0.45550  0.97520  Biso   1.000  C
  C99      1.0000 0.54450  0.76110  0.97520  Biso   1.000  C
  C100     1.0000 0.57223  0.11673  0.30853  Biso   1.000  C
  C101     1.0000 0.54993  0.78883  0.30853  Biso   1.000  C
  C102     1.0000 0.87783  0.09443  0.30853  Biso   1.000  C
  C103     1.0000 0.11673  0.87783  0.35813  Biso   1.000  C
  C104     1.0000 0.78883  0.57223  0.35813  Biso   1.000  C
  C105     1.0000 0.76110  0.21660  0.02480  Biso   1.000  C
  C106     1.0000 0.78340  0.54450  0.02480  Biso   1.000  C
  C107     1.0000 0.45550  0.23890  0.02480  Biso   1.000  C
  C108     1.0000 0.09443  0.54993  0.35813  Biso   1.000  C
  H97      1.0000 0.28740  0.76270  0.97990  Biso   1.000  H
  H98      1.0000 0.23730  0.52470  0.97990  Biso   1.000  H
  H99      1.0000 0.47530  0.71260  0.97990  Biso   1.000  H
  H100     1.0000 0.62073  0.09603  0.31323  Biso   1.000  H
  H101     1.0000 0.57063  0.85803  0.31323  Biso   1.000  H
  H102     1.0000 0.80863  0.04593  0.31323  Biso   1.000  H
  H103     1.0000 0.09603  0.80863  0.35343  Biso   1.000  H
  H104     1.0000 0.85803  0.62073  0.35343  Biso   1.000  H
  H105     1.0000 0.71260  0.23730  0.02010  Biso   1.000  H
  H106     1.0000 0.76270  0.47530  0.02010  Biso   1.000  H
  H107     1.0000 0.52470  0.28740  0.02010  Biso   1.000  H
  H108     1.0000 0.04593  0.57063  0.35343  Biso   1.000  H
  H109     1.0000 0.24380  0.81020  0.93370  Biso   1.000  H
  H110     1.0000 0.18980  0.43360  0.93370  Biso   1.000  H
  H111     1.0000 0.56640  0.75620  0.93370  Biso   1.000  H
  H112     1.0000 0.57713  0.14353  0.26703  Biso   1.000  H
  H113     1.0000 0.52313  0.76693  0.26703  Biso   1.000  H
  H114     1.0000 0.89973  0.08953  0.26703  Biso   1.000  H
  H115     1.0000 0.14353  0.89973  0.39963  Biso   1.000  H
  H116     1.0000 0.76693  0.57713  0.39963  Biso   1.000  H
  H117     1.0000 0.75620  0.18980  0.06630  Biso   1.000  H
  H118     1.0000 0.81020  0.56640  0.06630  Biso   1.000  H
  H119     1.0000 0.43360  0.24380  0.06630  Biso   1.000  H
  H120     1.0000 0.08953  0.52313  0.39963  Biso   1.000  H
  H121     1.0000 0.25090  0.83330  0.00620  Biso   1.000  H
  H122     1.0000 0.16670  0.41760  0.00620  Biso   1.000  H
  H123     1.0000 0.58240  0.74910  0.00620  Biso   1.000  H
  H124     1.0000 0.58423  0.16663  0.33953  Biso   1.000  H
  H125     1.0000 0.50003  0.75093  0.33953  Biso   1.000  H
  H126     1.0000 0.91573  0.08243  0.33953  Biso   1.000  H
  H127     1.0000 0.16663  0.91573  0.32713  Biso   1.000  H
  H128     1.0000 0.75093  0.58423  0.32713  Biso   1.000  H
  H129     1.0000 0.74910  0.16670  0.99380  Biso   1.000  H
  H130     1.0000 0.83330  0.58240  0.99380  Biso   1.000  H
  H131     1.0000 0.41760  0.25090  0.99380  Biso   1.000  H
  H132     1.0000 0.08243  0.50003  0.32713  Biso   1.000  H
  O29      1.0000 0.33337  0.66673  0.20813  Biso   1.000  O
  O30      1.0000 0.66670  0.00006  0.54147  Biso   1.000  O
  O31      1.0000 0.00006  0.66669  0.12520  Biso   1.000  O
  O32      1.0000 0.66663  0.33327  0.79187  Biso   1.000  O
