data_image0
_cell_length_a       6.6917
_cell_length_b       8.125
_cell_length_c       11.044
_cell_angle_alpha    84.075
_cell_angle_beta     75.581
_cell_angle_gamma    77.251

_symmetry_space_group_name_H-M    "P 1"
_symmetry_int_tables_number       1

loop_
  _symmetry_equiv_pos_as_xyz
  'x, y, z'

loop_
  _atom_site_label
  _atom_site_occupancy
  _atom_site_fract_x
  _atom_site_fract_y
  _atom_site_fract_z
  _atom_site_thermal_displace_type
  _atom_site_B_iso_or_equiv
  _atom_site_type_symbol
  Cu1      1.0000 0.50000  0.50000  0.50000  Biso   1.000  Cu
  O1       1.0000 0.32400  0.72880  0.52415  Biso   1.000  O
  O2       1.0000 0.67600  0.27120  0.47585  Biso   1.000  O
  O3       1.0000 0.07560  0.64540  0.68000  Biso   1.000  O
  O4       1.0000 0.92440  0.35460  0.32000  Biso   1.000  O
  O5       1.0000 0.93120  0.82650  0.87316  Biso   1.000  O
  O6       1.0000 0.06880  0.17350  0.12684  Biso   1.000  O
  O7       1.0000 0.17550  0.36070  0.56125  Biso   1.000  O
  O8       1.0000 0.82450  0.63930  0.43875  Biso   1.000  O
  N1       1.0000 0.53350  0.48890  0.67460  Biso   1.000  N
  N2       1.0000 0.46650  0.51110  0.32540  Biso   1.000  N
  C1       1.0000 0.57270  0.62110  0.72220  Biso   1.000  C
  C2       1.0000 0.42730  0.37890  0.27780  Biso   1.000  C
  C3       1.0000 0.56100  0.62940  0.84770  Biso   1.000  C
  C4       1.0000 0.43900  0.37060  0.15230  Biso   1.000  C
  C5       1.0000 0.50630  0.49750  0.93180  Biso   1.000  C
  C6       1.0000 0.49370  0.50250  0.06820  Biso   1.000  C
  C7       1.0000 0.46720  0.36010  0.88140  Biso   1.000  C
  C8       1.0000 0.53280  0.63990  0.11860  Biso   1.000  C
  C9       1.0000 0.48440  0.35910  0.75490  Biso   1.000  C
  C10      1.0000 0.51560  0.64090  0.24510  Biso   1.000  C
  C11      1.0000 0.17310  0.75680  0.62060  Biso   1.000  C
  C12      1.0000 0.82690  0.24320  0.37940  Biso   1.000  C
  C13      1.0000 0.11170  0.92990  0.66930  Biso   1.000  C
  C14      1.0000 0.88830  0.07010  0.33070  Biso   1.000  C
  C15      1.0000 0.99830  0.95460  0.79400  Biso   1.000  C
  C16      1.0000 0.00170  0.04540  0.20600  Biso   1.000  C
  C17      1.0000 0.95510  0.11350  0.84170  Biso   1.000  C
  C18      1.0000 0.04490  0.88650  0.15830  Biso   1.000  C
  C19      1.0000 0.01390  0.24940  0.76460  Biso   1.000  C
  C20      1.0000 0.98610  0.75060  0.23540  Biso   1.000  C
  C21      1.0000 0.11900  0.22710  0.64010  Biso   1.000  C
  C22      1.0000 0.88100  0.77290  0.35990  Biso   1.000  C
  C23      1.0000 0.17260  0.06810  0.59310  Biso   1.000  C
  C24      1.0000 0.82740  0.93190  0.40690  Biso   1.000  C
  H1       1.0000 0.96200  0.74600  0.83400  Biso   1.000  H
  H2       1.0000 0.03800  0.25400  0.16600  Biso   1.000  H
  H3       1.0000 0.12200  0.44800  0.59300  Biso   1.000  H
  H4       1.0000 0.87800  0.55200  0.40700  Biso   1.000  H
  H5       1.0000 0.61010  0.71270  0.66680  Biso   1.000  H
  H6       1.0000 0.38990  0.28730  0.33320  Biso   1.000  H
  H7       1.0000 0.59040  0.72530  0.87700  Biso   1.000  H
  H8       1.0000 0.40960  0.27470  0.12300  Biso   1.000  H
  H9       1.0000 0.42870  0.26710  0.93470  Biso   1.000  H
  H10      1.0000 0.57130  0.73290  0.06530  Biso   1.000  H
  H11      1.0000 0.46070  0.26300  0.72260  Biso   1.000  H
  H12      1.0000 0.53930  0.73700  0.27740  Biso   1.000  H
  H13      1.0000 0.88530  0.12930  0.92700  Biso   1.000  H
  H14      1.0000 0.11470  0.87070  0.07300  Biso   1.000  H
  H15      1.0000 0.98200  0.35830  0.79720  Biso   1.000  H
  H16      1.0000 0.01800  0.64170  0.20280  Biso   1.000  H
  H17      1.0000 0.25070  0.05230  0.50910  Biso   1.000  H
  H18      1.0000 0.74930  0.94770  0.49090  Biso   1.000  H
