data_image0
_cell_length_a       23.078
_cell_length_b       11.08
_cell_length_c       15.594
_cell_angle_alpha    90
_cell_angle_beta     106.481
_cell_angle_gamma    90

_symmetry_space_group_name_H-M    "P 1"
_symmetry_int_tables_number       1

loop_
  _symmetry_equiv_pos_as_xyz
  'x, y, z'

loop_
  _atom_site_label
  _atom_site_occupancy
  _atom_site_fract_x
  _atom_site_fract_y
  _atom_site_fract_z
  _atom_site_thermal_displace_type
  _atom_site_B_iso_or_equiv
  _atom_site_type_symbol
  Cu1      1.0000 0.50000  0.11547  0.75000  Biso   1.000  Cu
  Cu2      1.0000 0.50000  0.88453  0.25000  Biso   1.000  Cu
  Cu3      1.0000 0.00000  0.18521  0.25000  Biso   1.000  Cu
  Cu4      1.0000 0.00000  0.81479  0.75000  Biso   1.000  Cu
  N1       1.0000 0.00000  0.00450  0.25000  Biso   1.000  N
  N2       1.0000 0.00000  0.99550  0.75000  Biso   1.000  N
  C1       1.0000 0.50000  0.54730  0.75000  Biso   1.000  C
  C2       1.0000 0.50000  0.45270  0.25000  Biso   1.000  C
  C3       1.0000 0.00000  0.61690  0.25000  Biso   1.000  C
  C4       1.0000 0.00000  0.38310  0.75000  Biso   1.000  C
  O1       1.0000 0.41930  0.11821  0.76821  Biso   1.000  O
  O2       1.0000 0.58070  0.11821  0.73179  Biso   1.000  O
  O3       1.0000 0.58070  0.88179  0.23179  Biso   1.000  O
  O4       1.0000 0.41930  0.88179  0.26821  Biso   1.000  O
  N3       1.0000 0.50000  0.29530  0.75000  Biso   1.000  N
  N4       1.0000 0.50000  0.70470  0.25000  Biso   1.000  N
  O5       1.0000 0.08014  0.18260  0.23129  Biso   1.000  O
  O6       1.0000 0.91986  0.18260  0.26871  Biso   1.000  O
  O7       1.0000 0.91986  0.81740  0.76871  Biso   1.000  O
  O8       1.0000 0.08014  0.81740  0.73129  Biso   1.000  O
  N5       1.0000 0.50000  0.93480  0.75000  Biso   1.000  N
  N6       1.0000 0.50000  0.06520  0.25000  Biso   1.000  N
  N7       1.0000 0.00000  0.36640  0.25000  Biso   1.000  N
  N8       1.0000 0.00000  0.63360  0.75000  Biso   1.000  N
  O9       1.0000 0.44287  0.11790  0.58380  Biso   1.000  O
  O10      1.0000 0.55713  0.11790  0.91620  Biso   1.000  O
  O11      1.0000 0.55713  0.88210  0.41620  Biso   1.000  O
  O12      1.0000 0.44287  0.88210  0.08380  Biso   1.000  O
  O13      1.0000 0.05654  0.19830  0.41524  Biso   1.000  O
  O14      1.0000 0.94346  0.19830  0.08476  Biso   1.000  O
  O15      1.0000 0.94346  0.80170  0.58476  Biso   1.000  O
  O16      1.0000 0.05654  0.80170  0.91524  Biso   1.000  O
  C5       1.0000 0.50000  0.68240  0.75000  Biso   1.000  C
  C6       1.0000 0.50000  0.31760  0.25000  Biso   1.000  C
  C7       1.0000 0.54133  0.87250  0.81265  Biso   1.000  C
  C8       1.0000 0.45867  0.87250  0.68735  Biso   1.000  C
  C9       1.0000 0.45867  0.12750  0.18735  Biso   1.000  C
  C10      1.0000 0.54133  0.12750  0.31265  Biso   1.000  C
  H1       1.0000 0.57040  0.91530  0.85650  Biso   1.000  H
  H2       1.0000 0.42960  0.91530  0.64350  Biso   1.000  H
  H3       1.0000 0.42960  0.08470  0.14350  Biso   1.000  H
  H4       1.0000 0.57040  0.08470  0.35650  Biso   1.000  H
  O17      1.0000 0.44728  0.16470  0.91313  Biso   1.000  O
  O18      1.0000 0.55272  0.16470  0.58687  Biso   1.000  O
  O19      1.0000 0.55272  0.83530  0.08687  Biso   1.000  O
  O20      1.0000 0.44728  0.83530  0.41313  Biso   1.000  O
  O21      1.0000 0.05242  0.14150  0.08543  Biso   1.000  O
  O22      1.0000 0.94758  0.14150  0.41457  Biso   1.000  O
  O23      1.0000 0.94758  0.85850  0.91457  Biso   1.000  O
  O24      1.0000 0.05242  0.85850  0.58543  Biso   1.000  O
  O25      1.0000 0.13147  0.10230  0.00393  Biso   1.000  O
  O26      1.0000 0.86853  0.10230  0.49607  Biso   1.000  O
  O27      1.0000 0.86853  0.89770  0.99607  Biso   1.000  O
  O28      1.0000 0.13147  0.89770  0.50393  Biso   1.000  O
  C11      1.0000 0.04351  0.81730  0.31326  Biso   1.000  C
  C12      1.0000 0.95649  0.81730  0.18674  Biso   1.000  C
  C13      1.0000 0.95649  0.18270  0.68674  Biso   1.000  C
  C14      1.0000 0.04351  0.18270  0.81326  Biso   1.000  C
  H5       1.0000 0.07330  0.77650  0.35750  Biso   1.000  H
  H6       1.0000 0.92670  0.77650  0.14250  Biso   1.000  H
  H7       1.0000 0.92670  0.22350  0.64250  Biso   1.000  H
  H8       1.0000 0.07330  0.22350  0.85750  Biso   1.000  H
  C15      1.0000 0.00000  0.75280  0.25000  Biso   1.000  C
  C16      1.0000 0.00000  0.24720  0.75000  Biso   1.000  C
  O29      1.0000 0.36970  0.21660  0.99325  Biso   1.000  O
  O30      1.0000 0.63030  0.21660  0.50675  Biso   1.000  O
  O31      1.0000 0.63030  0.78340  0.00675  Biso   1.000  O
  O32      1.0000 0.36970  0.78340  0.49325  Biso   1.000  O
  C17      1.0000 0.04258  0.94200  0.31064  Biso   1.000  C
  C18      1.0000 0.95742  0.94200  0.18936  Biso   1.000  C
  C19      1.0000 0.95742  0.05800  0.68936  Biso   1.000  C
  C20      1.0000 0.04258  0.05800  0.81064  Biso   1.000  C
  H9       1.0000 0.07280  0.98480  0.35280  Biso   1.000  H
  H10      1.0000 0.92720  0.98480  0.14720  Biso   1.000  H
  H11      1.0000 0.92720  0.01520  0.64720  Biso   1.000  H
  H12      1.0000 0.07280  0.01520  0.85280  Biso   1.000  H
  C21      1.0000 0.30009  0.18620  0.75181  Biso   1.000  C
  C22      1.0000 0.69991  0.18620  0.74819  Biso   1.000  C
  C23      1.0000 0.69991  0.81380  0.24819  Biso   1.000  C
  C24      1.0000 0.30009  0.81380  0.25181  Biso   1.000  C
  H13      1.0000 0.31090  0.16620  0.69980  Biso   1.000  H
  H14      1.0000 0.68910  0.16620  0.80020  Biso   1.000  H
  H15      1.0000 0.68910  0.83380  0.30020  Biso   1.000  H
  H16      1.0000 0.31090  0.83380  0.19980  Biso   1.000  H
  C25      1.0000 0.54241  0.74770  0.81462  Biso   1.000  C
  C26      1.0000 0.45759  0.74770  0.68538  Biso   1.000  C
  C27      1.0000 0.45759  0.25230  0.18538  Biso   1.000  C
  C28      1.0000 0.54241  0.25230  0.31462  Biso   1.000  C
  H17      1.0000 0.57180  0.70700  0.85960  Biso   1.000  H
  H18      1.0000 0.42820  0.70700  0.64040  Biso   1.000  H
  H19      1.0000 0.42820  0.29300  0.14040  Biso   1.000  H
  H20      1.0000 0.57180  0.29300  0.35960  Biso   1.000  H
  C29      1.0000 0.34462  0.18530  0.83384  Biso   1.000  C
  C30      1.0000 0.65538  0.18530  0.66616  Biso   1.000  C
  C31      1.0000 0.65538  0.81470  0.16616  Biso   1.000  C
  C32      1.0000 0.34462  0.81470  0.33384  Biso   1.000  C
  C33      1.0000 0.15617  0.13530  0.16301  Biso   1.000  C
  C34      1.0000 0.84383  0.13530  0.33699  Biso   1.000  C
  C35      1.0000 0.84383  0.86470  0.83699  Biso   1.000  C
  C36      1.0000 0.15617  0.86470  0.66301  Biso   1.000  C
  C37      1.0000 0.20113  0.14060  0.24545  Biso   1.000  C
  C38      1.0000 0.79887  0.14060  0.25455  Biso   1.000  C
  C39      1.0000 0.79887  0.85940  0.75455  Biso   1.000  C
  C40      1.0000 0.20113  0.85940  0.74545  Biso   1.000  C
  H21      1.0000 0.18980  0.15720  0.29760  Biso   1.000  H
  H22      1.0000 0.81020  0.15720  0.20240  Biso   1.000  H
  H23      1.0000 0.81020  0.84280  0.70240  Biso   1.000  H
  H24      1.0000 0.18980  0.84280  0.79760  Biso   1.000  H
  C41      1.0000 0.10046  0.20170  0.49516  Biso   1.000  C
  C42      1.0000 0.89954  0.20170  0.00484  Biso   1.000  C
  C43      1.0000 0.89954  0.79830  0.50484  Biso   1.000  C
  C44      1.0000 0.10046  0.79830  0.99516  Biso   1.000  C
  C45      1.0000 0.39963  0.12230  0.50349  Biso   1.000  C
  C46      1.0000 0.60037  0.12230  0.99651  Biso   1.000  C
  C47      1.0000 0.60037  0.87770  0.49651  Biso   1.000  C
  C48      1.0000 0.39963  0.87770  0.00349  Biso   1.000  C
  C49      1.0000 0.17281  0.11100  0.08535  Biso   1.000  C
  C50      1.0000 0.82719  0.11100  0.41465  Biso   1.000  C
  C51      1.0000 0.82719  0.88900  0.91465  Biso   1.000  C
  C52      1.0000 0.17281  0.88900  0.58535  Biso   1.000  C
  C53      1.0000 0.15905  0.23320  0.49622  Biso   1.000  C
  C54      1.0000 0.84095  0.23320  0.00378  Biso   1.000  C
  C55      1.0000 0.84095  0.76680  0.50378  Biso   1.000  C
  C56      1.0000 0.15905  0.76680  0.99622  Biso   1.000  C
  H25      1.0000 0.16800  0.25050  0.44230  Biso   1.000  H
  H26      1.0000 0.83200  0.25050  0.05770  Biso   1.000  H
  H27      1.0000 0.83200  0.74950  0.55770  Biso   1.000  H
  H28      1.0000 0.16800  0.74950  0.94230  Biso   1.000  H
  C57      1.0000 0.40812  0.15330  0.83865  Biso   1.000  C
  C58      1.0000 0.59188  0.15330  0.66135  Biso   1.000  C
  C59      1.0000 0.59188  0.84670  0.16135  Biso   1.000  C
  C60      1.0000 0.40812  0.84670  0.33865  Biso   1.000  C
  C61      1.0000 0.26154  0.12220  0.25214  Biso   1.000  C
  C62      1.0000 0.73846  0.12220  0.24786  Biso   1.000  C
  C63      1.0000 0.73846  0.87780  0.74786  Biso   1.000  C
  C64      1.0000 0.26154  0.87780  0.75214  Biso   1.000  C
  C65      1.0000 0.05169  0.55290  0.29160  Biso   1.000  C
  C66      1.0000 0.94831  0.55290  0.20840  Biso   1.000  C
  C67      1.0000 0.94831  0.44710  0.70840  Biso   1.000  C
  C68      1.0000 0.05169  0.44710  0.79160  Biso   1.000  C
  H29      1.0000 0.08770  0.59360  0.32060  Biso   1.000  H
  H30      1.0000 0.91230  0.59360  0.17940  Biso   1.000  H
  H31      1.0000 0.91230  0.40640  0.67940  Biso   1.000  H
  H32      1.0000 0.08770  0.40640  0.82060  Biso   1.000  H
  C69      1.0000 0.09158  0.15470  0.15920  Biso   1.000  C
  C70      1.0000 0.90842  0.15470  0.34080  Biso   1.000  C
  C71      1.0000 0.90842  0.84530  0.84080  Biso   1.000  C
  C72      1.0000 0.09158  0.84530  0.65920  Biso   1.000  C
  C73      1.0000 0.34037  0.09440  0.49989  Biso   1.000  C
  C74      1.0000 0.65963  0.09440  0.00011  Biso   1.000  C
  C75      1.0000 0.65963  0.90560  0.50011  Biso   1.000  C
  C76      1.0000 0.34037  0.90560  0.99989  Biso   1.000  C
  H33      1.0000 0.33040  0.07550  0.55270  Biso   1.000  H
  H34      1.0000 0.66960  0.07550  0.94730  Biso   1.000  H
  H35      1.0000 0.66960  0.92450  0.44730  Biso   1.000  H
  H36      1.0000 0.33040  0.92450  0.05270  Biso   1.000  H
  C77      1.0000 0.44978  0.48290  0.70200  Biso   1.000  C
  C78      1.0000 0.55022  0.48290  0.79800  Biso   1.000  C
  C79      1.0000 0.55022  0.51710  0.29800  Biso   1.000  C
  C80      1.0000 0.44978  0.51710  0.20200  Biso   1.000  C
  H37      1.0000 0.41490  0.52360  0.66870  Biso   1.000  H
  H38      1.0000 0.58510  0.52360  0.83130  Biso   1.000  H
  H39      1.0000 0.58510  0.47640  0.33130  Biso   1.000  H
  H40      1.0000 0.41490  0.47640  0.16870  Biso   1.000  H
  C81      1.0000 0.41316  0.15350  0.42550  Biso   1.000  C
  C82      1.0000 0.58684  0.15350  0.07450  Biso   1.000  C
  C83      1.0000 0.58684  0.84650  0.57450  Biso   1.000  C
  C84      1.0000 0.41316  0.84650  0.92550  Biso   1.000  C
  H41      1.0000 0.45290  0.17450  0.42720  Biso   1.000  H
  H42      1.0000 0.54710  0.17450  0.07280  Biso   1.000  H
  H43      1.0000 0.54710  0.82550  0.57280  Biso   1.000  H
  H44      1.0000 0.45290  0.82550  0.92720  Biso   1.000  H
  C85      1.0000 0.24042  0.21570  0.74417  Biso   1.000  C
  C86      1.0000 0.75958  0.21570  0.75583  Biso   1.000  C
  C87      1.0000 0.75958  0.78430  0.25583  Biso   1.000  C
  C88      1.0000 0.24042  0.78430  0.24417  Biso   1.000  C
  C89      1.0000 0.36809  0.15380  0.34510  Biso   1.000  C
  C90      1.0000 0.63191  0.15380  0.15490  Biso   1.000  C
  C91      1.0000 0.63191  0.84620  0.65490  Biso   1.000  C
  C92      1.0000 0.36809  0.84620  0.84510  Biso   1.000  C
  H45      1.0000 0.37800  0.17460  0.29250  Biso   1.000  H
  H46      1.0000 0.62200  0.17460  0.20750  Biso   1.000  H
  H47      1.0000 0.62200  0.82540  0.70750  Biso   1.000  H
  H48      1.0000 0.37800  0.82540  0.79250  Biso   1.000  H
  C93      1.0000 0.32841  0.21600  0.91140  Biso   1.000  C
  C94      1.0000 0.67159  0.21600  0.58860  Biso   1.000  C
  C95      1.0000 0.67159  0.78400  0.08860  Biso   1.000  C
  C96      1.0000 0.32841  0.78400  0.41140  Biso   1.000  C
  C97      1.0000 0.20421  0.23920  0.57658  Biso   1.000  C
  C98      1.0000 0.79579  0.23920  0.92342  Biso   1.000  C
  C99      1.0000 0.79579  0.76080  0.42342  Biso   1.000  C
  C100     1.0000 0.20421  0.76080  0.07658  Biso   1.000  C
  H49      1.0000 0.24330  0.26280  0.57660  Biso   1.000  H
  H50      1.0000 0.75670  0.26280  0.92340  Biso   1.000  H
  H51      1.0000 0.75670  0.73720  0.42340  Biso   1.000  H
  H52      1.0000 0.24330  0.73720  0.07660  Biso   1.000  H
  C101     1.0000 0.29598  0.09440  0.41913  Biso   1.000  C
  C102     1.0000 0.70402  0.09440  0.08087  Biso   1.000  C
  C103     1.0000 0.70402  0.90560  0.58087  Biso   1.000  C
  C104     1.0000 0.29598  0.90560  0.91913  Biso   1.000  C
  H53      1.0000 0.25620  0.07370  0.41780  Biso   1.000  H
  H54      1.0000 0.74380  0.07370  0.08220  Biso   1.000  H
  H55      1.0000 0.74380  0.92630  0.58220  Biso   1.000  H
  H56      1.0000 0.25620  0.92630  0.91780  Biso   1.000  H
  C105     1.0000 0.13390  0.17810  0.65410  Biso   1.000  C
  C106     1.0000 0.86610  0.17810  0.84590  Biso   1.000  C
  C107     1.0000 0.86610  0.82190  0.34590  Biso   1.000  C
  C108     1.0000 0.13390  0.82190  0.15410  Biso   1.000  C
  H57      1.0000 0.12510  0.15850  0.70780  Biso   1.000  H
  H58      1.0000 0.87490  0.15850  0.79220  Biso   1.000  H
  H59      1.0000 0.87490  0.84150  0.29220  Biso   1.000  H
  H60      1.0000 0.12510  0.84150  0.20780  Biso   1.000  H
  C109     1.0000 0.19292  0.21120  0.65714  Biso   1.000  C
  C110     1.0000 0.80708  0.21120  0.84286  Biso   1.000  C
  C111     1.0000 0.80708  0.78880  0.34286  Biso   1.000  C
  C112     1.0000 0.19292  0.78880  0.15714  Biso   1.000  C
  C113     1.0000 0.08805  0.17340  0.57477  Biso   1.000  C
  C114     1.0000 0.91195  0.17340  0.92523  Biso   1.000  C
  C115     1.0000 0.91195  0.82660  0.42523  Biso   1.000  C
  C116     1.0000 0.08805  0.82660  0.07477  Biso   1.000  C
  H61      1.0000 0.04870  0.15110  0.57480  Biso   1.000  H
  H62      1.0000 0.95130  0.15110  0.92520  Biso   1.000  H
  H63      1.0000 0.95130  0.84890  0.42520  Biso   1.000  H
  H64      1.0000 0.04870  0.84890  0.07480  Biso   1.000  H
  C117     1.0000 0.22638  0.24660  0.82290  Biso   1.000  C
  C118     1.0000 0.77362  0.24660  0.67710  Biso   1.000  C
  C119     1.0000 0.77362  0.75340  0.17710  Biso   1.000  C
  C120     1.0000 0.22638  0.75340  0.32290  Biso   1.000  C
  H65      1.0000 0.18630  0.26730  0.81980  Biso   1.000  H
  H66      1.0000 0.81370  0.26730  0.68020  Biso   1.000  H
  H67      1.0000 0.81370  0.73270  0.18020  Biso   1.000  H
  H68      1.0000 0.18630  0.73270  0.31980  Biso   1.000  H
  C121     1.0000 0.30865  0.12410  0.33977  Biso   1.000  C
  C122     1.0000 0.69135  0.12410  0.16023  Biso   1.000  C
  C123     1.0000 0.69135  0.87590  0.66023  Biso   1.000  C
  C124     1.0000 0.30865  0.87590  0.83977  Biso   1.000  C
  C125     1.0000 0.45137  0.35870  0.70340  Biso   1.000  C
  C126     1.0000 0.54863  0.35870  0.79660  Biso   1.000  C
  C127     1.0000 0.54863  0.64130  0.29660  Biso   1.000  C
  C128     1.0000 0.45137  0.64130  0.20340  Biso   1.000  C
  H69      1.0000 0.41700  0.31620  0.67040  Biso   1.000  H
  H70      1.0000 0.58300  0.31620  0.82960  Biso   1.000  H
  H71      1.0000 0.58300  0.68380  0.32960  Biso   1.000  H
  H72      1.0000 0.41700  0.68380  0.17040  Biso   1.000  H
  C129     1.0000 0.26936  0.24760  0.90496  Biso   1.000  C
  C130     1.0000 0.73064  0.24760  0.59504  Biso   1.000  C
  C131     1.0000 0.73064  0.75240  0.09504  Biso   1.000  C
  C132     1.0000 0.26936  0.75240  0.40496  Biso   1.000  C
  H73      1.0000 0.25850  0.26970  0.95650  Biso   1.000  H
  H74      1.0000 0.74150  0.26970  0.54350  Biso   1.000  H
  H75      1.0000 0.74150  0.73030  0.04350  Biso   1.000  H
  H76      1.0000 0.25850  0.73030  0.45650  Biso   1.000  H
  C133     1.0000 0.27641  0.09860  0.17250  Biso   1.000  C
  C134     1.0000 0.72359  0.09860  0.32750  Biso   1.000  C
  C135     1.0000 0.72359  0.90140  0.82750  Biso   1.000  C
  C136     1.0000 0.27641  0.90140  0.67250  Biso   1.000  C
  H77      1.0000 0.31710  0.08590  0.17490  Biso   1.000  H
  H78      1.0000 0.68290  0.08590  0.32510  Biso   1.000  H
  H79      1.0000 0.68290  0.91410  0.82510  Biso   1.000  H
  H80      1.0000 0.31710  0.91410  0.67490  Biso   1.000  H
  C137     1.0000 0.23335  0.09340  0.09117  Biso   1.000  C
  C138     1.0000 0.76665  0.09340  0.40883  Biso   1.000  C
  C139     1.0000 0.76665  0.90660  0.90883  Biso   1.000  C
  C140     1.0000 0.23335  0.90660  0.59117  Biso   1.000  C
  H81      1.0000 0.24490  0.07800  0.03910  Biso   1.000  H
  H82      1.0000 0.75510  0.07800  0.46090  Biso   1.000  H
  H83      1.0000 0.75510  0.92200  0.96090  Biso   1.000  H
  H84      1.0000 0.24490  0.92200  0.53910  Biso   1.000  H
  C141     1.0000 0.04983  0.42810  0.29020  Biso   1.000  C
  C142     1.0000 0.95017  0.42810  0.20980  Biso   1.000  C
  C143     1.0000 0.95017  0.57190  0.70980  Biso   1.000  C
  C144     1.0000 0.04983  0.57190  0.79020  Biso   1.000  C
  H85      1.0000 0.08520  0.38520  0.31880  Biso   1.000  H
  H86      1.0000 0.91480  0.38520  0.18120  Biso   1.000  H
  H87      1.0000 0.91480  0.61480  0.68120  Biso   1.000  H
  H88      1.0000 0.08520  0.61480  0.81880  Biso   1.000  H
  O33      1.0000 0.15930  0.59650  0.47510  Biso   1.000  O
  O34      1.0000 0.84070  0.59650  0.02490  Biso   1.000  O
  O35      1.0000 0.84070  0.40350  0.52490  Biso   1.000  O
  O36      1.0000 0.15930  0.40350  0.97510  Biso   1.000  O
  C145     1.0000 0.16270  0.56690  0.55060  Biso   1.000  C
  C146     1.0000 0.83730  0.56690  0.94940  Biso   1.000  C
  C147     1.0000 0.83730  0.43310  0.44940  Biso   1.000  C
  C148     1.0000 0.16270  0.43310  0.05060  Biso   1.000  C
  C149     1.0000 0.22170  0.56220  0.61680  Biso   1.000  C
  C150     1.0000 0.77830  0.56220  0.88320  Biso   1.000  C
  C151     1.0000 0.77830  0.43780  0.38320  Biso   1.000  C
  C152     1.0000 0.22170  0.43780  0.11680  Biso   1.000  C
  H89      1.0000 0.25310  0.56540  0.58670  Biso   1.000  H
  H90      1.0000 0.74690  0.56540  0.91330  Biso   1.000  H
  H91      1.0000 0.74690  0.43460  0.41330  Biso   1.000  H
  H92      1.0000 0.25310  0.43460  0.08670  Biso   1.000  H
  H93      1.0000 0.22520  0.48760  0.65050  Biso   1.000  H
  H94      1.0000 0.77480  0.48760  0.84950  Biso   1.000  H
  H95      1.0000 0.77480  0.51240  0.34950  Biso   1.000  H
  H96      1.0000 0.22520  0.51240  0.15050  Biso   1.000  H
  H97      1.0000 0.22590  0.63030  0.65710  Biso   1.000  H
  H98      1.0000 0.77410  0.63030  0.84290  Biso   1.000  H
  H99      1.0000 0.77410  0.36970  0.34290  Biso   1.000  H
  H100     1.0000 0.22590  0.36970  0.15710  Biso   1.000  H
  C153     1.0000 0.10730  0.53850  0.57150  Biso   1.000  C
  C154     1.0000 0.89270  0.53850  0.92850  Biso   1.000  C
  C155     1.0000 0.89270  0.46150  0.42850  Biso   1.000  C
  C156     1.0000 0.10730  0.46150  0.07150  Biso   1.000  C
  H101     1.0000 0.07320  0.56000  0.52130  Biso   1.000  H
  H102     1.0000 0.92680  0.56000  0.97870  Biso   1.000  H
  H103     1.0000 0.92680  0.44000  0.47870  Biso   1.000  H
  H104     1.0000 0.07320  0.44000  0.02130  Biso   1.000  H
  H105     1.0000 0.10540  0.58360  0.62390  Biso   1.000  H
  H106     1.0000 0.89460  0.58360  0.87610  Biso   1.000  H
  H107     1.0000 0.89460  0.41640  0.37610  Biso   1.000  H
  H108     1.0000 0.10540  0.41640  0.12390  Biso   1.000  H
  H109     1.0000 0.10610  0.45270  0.58330  Biso   1.000  H
  H110     1.0000 0.89390  0.45270  0.91670  Biso   1.000  H
  H111     1.0000 0.89390  0.54730  0.41670  Biso   1.000  H
  H112     1.0000 0.10610  0.54730  0.08330  Biso   1.000  H
  O37      1.0000 0.33970  0.55330  0.02350  Biso   1.000  O
  O38      1.0000 0.66030  0.55330  0.47650  Biso   1.000  O
  O39      1.0000 0.66030  0.44670  0.97650  Biso   1.000  O
  O40      1.0000 0.33970  0.44670  0.52350  Biso   1.000  O
  C157     1.0000 0.27530  0.56660  0.88700  Biso   1.000  C
  C158     1.0000 0.72470  0.56660  0.61300  Biso   1.000  C
  C159     1.0000 0.72470  0.43340  0.11300  Biso   1.000  C
  C160     1.0000 0.27530  0.43340  0.38700  Biso   1.000  C
  H113     1.0000 0.24610  0.55760  0.92070  Biso   1.000  H
  H114     1.0000 0.75390  0.55760  0.57930  Biso   1.000  H
  H115     1.0000 0.75390  0.44240  0.07930  Biso   1.000  H
  H116     1.0000 0.24610  0.44240  0.42070  Biso   1.000  H
  H117     1.0000 0.26630  0.50930  0.83810  Biso   1.000  H
  H118     1.0000 0.73370  0.50930  0.66190  Biso   1.000  H
  H119     1.0000 0.73370  0.49070  0.16190  Biso   1.000  H
  H120     1.0000 0.26630  0.49070  0.33810  Biso   1.000  H
  H121     1.0000 0.27310  0.64800  0.86340  Biso   1.000  H
  H122     1.0000 0.72690  0.64800  0.63660  Biso   1.000  H
  H123     1.0000 0.72690  0.35200  0.13660  Biso   1.000  H
  H124     1.0000 0.27310  0.35200  0.36340  Biso   1.000  H
  C161     1.0000 0.33690  0.54370  0.94660  Biso   1.000  C
  C162     1.0000 0.66310  0.54370  0.55340  Biso   1.000  C
  C163     1.0000 0.66310  0.45630  0.05340  Biso   1.000  C
  C164     1.0000 0.33690  0.45630  0.44660  Biso   1.000  C
  C165     1.0000 0.38860  0.51870  0.92250  Biso   1.000  C
  C166     1.0000 0.61140  0.51870  0.57750  Biso   1.000  C
  C167     1.0000 0.61140  0.48130  0.07750  Biso   1.000  C
  C168     1.0000 0.38860  0.48130  0.42250  Biso   1.000  C
  H125     1.0000 0.42340  0.55190  0.96680  Biso   1.000  H
  H126     1.0000 0.57660  0.55190  0.53320  Biso   1.000  H
  H127     1.0000 0.57660  0.44810  0.03320  Biso   1.000  H
  H128     1.0000 0.42340  0.44810  0.46680  Biso   1.000  H
  H129     1.0000 0.38570  0.55450  0.86460  Biso   1.000  H
  H130     1.0000 0.61430  0.55450  0.63540  Biso   1.000  H
  H131     1.0000 0.61430  0.44550  0.13540  Biso   1.000  H
  H132     1.0000 0.38570  0.44550  0.36460  Biso   1.000  H
  H133     1.0000 0.39330  0.43190  0.91900  Biso   1.000  H
  H134     1.0000 0.60670  0.43190  0.58100  Biso   1.000  H
  H135     1.0000 0.60670  0.56810  0.08100  Biso   1.000  H
  H136     1.0000 0.39330  0.56810  0.41900  Biso   1.000  H
