data_image0
_cell_length_a       7.233
_cell_length_b       26.683
_cell_length_c       11.579
_cell_angle_alpha    90
_cell_angle_beta     105.214
_cell_angle_gamma    90

_symmetry_space_group_name_H-M    "P 1"
_symmetry_int_tables_number       1

loop_
  _symmetry_equiv_pos_as_xyz
  'x, y, z'

loop_
  _atom_site_label
  _atom_site_occupancy
  _atom_site_fract_x
  _atom_site_fract_y
  _atom_site_fract_z
  _atom_site_thermal_displace_type
  _atom_site_B_iso_or_equiv
  _atom_site_type_symbol
  Cu1      1.0000 0.24653  0.62885  0.51401  Biso   1.000  Cu
  Cu2      1.0000 0.75347  0.12885  0.98599  Biso   1.000  Cu
  Cu3      1.0000 0.75347  0.37115  0.48599  Biso   1.000  Cu
  Cu4      1.0000 0.24653  0.87115  0.01401  Biso   1.000  Cu
  N1       1.0000 0.25390  0.57240  0.63210  Biso   1.000  N
  N2       1.0000 0.74610  0.07240  0.86790  Biso   1.000  N
  N3       1.0000 0.74610  0.42760  0.36790  Biso   1.000  N
  N4       1.0000 0.25390  0.92760  0.13210  Biso   1.000  N
  N5       1.0000 0.23590  0.57195  0.40500  Biso   1.000  N
  N6       1.0000 0.76410  0.07195  0.09500  Biso   1.000  N
  N7       1.0000 0.76410  0.42805  0.59500  Biso   1.000  N
  N8       1.0000 0.23590  0.92805  0.90500  Biso   1.000  N
  N9       1.0000 0.25610  0.49030  0.38740  Biso   1.000  N
  N10      1.0000 0.74390  0.99030  0.11260  Biso   1.000  N
  N11      1.0000 0.74390  0.50970  0.61260  Biso   1.000  N
  N12      1.0000 0.25610  0.00970  0.88740  Biso   1.000  N
  H1       1.0000 0.26710  0.45900  0.40550  Biso   1.000  H
  H2       1.0000 0.73290  0.95900  0.09450  Biso   1.000  H
  H3       1.0000 0.73290  0.54100  0.59450  Biso   1.000  H
  H4       1.0000 0.26710  0.04100  0.90550  Biso   1.000  H
  N13      1.0000 0.15290  0.68533  0.39800  Biso   1.000  N
  N14      1.0000 0.84710  0.18533  0.10200  Biso   1.000  N
  N15      1.0000 0.84710  0.31467  0.60200  Biso   1.000  N
  N16      1.0000 0.15290  0.81467  0.89800  Biso   1.000  N
  N17      1.0000 0.34060  0.68320  0.62640  Biso   1.000  N
  N18      1.0000 0.65940  0.18320  0.87360  Biso   1.000  N
  N19      1.0000 0.65940  0.31680  0.37360  Biso   1.000  N
  N20      1.0000 0.34060  0.81680  0.12640  Biso   1.000  N
  N21      1.0000 0.39850  0.76340  0.65240  Biso   1.000  N
  N22      1.0000 0.60150  0.26340  0.84760  Biso   1.000  N
  N23      1.0000 0.60150  0.23660  0.34760  Biso   1.000  N
  N24      1.0000 0.39850  0.73660  0.15240  Biso   1.000  N
  H5       1.0000 0.39590  0.79500  0.63820  Biso   1.000  H
  H6       1.0000 0.60410  0.29500  0.86180  Biso   1.000  H
  H7       1.0000 0.60410  0.20500  0.36180  Biso   1.000  H
  H8       1.0000 0.39590  0.70500  0.13820  Biso   1.000  H
  C1       1.0000 0.24520  0.57560  0.74210  Biso   1.000  C
  C2       1.0000 0.75480  0.07560  0.75790  Biso   1.000  C
  C3       1.0000 0.75480  0.42440  0.25790  Biso   1.000  C
  C4       1.0000 0.24520  0.92440  0.24210  Biso   1.000  C
  H9       1.0000 0.23630  0.60730  0.77350  Biso   1.000  H
  H10      1.0000 0.76370  0.10730  0.72650  Biso   1.000  H
  H11      1.0000 0.76370  0.39270  0.22650  Biso   1.000  H
  H12      1.0000 0.23630  0.89270  0.27350  Biso   1.000  H
  C5       1.0000 0.24860  0.53440  0.81580  Biso   1.000  C
  C6       1.0000 0.75140  0.03440  0.68420  Biso   1.000  C
  C7       1.0000 0.75140  0.46560  0.18420  Biso   1.000  C
  C8       1.0000 0.24860  0.96560  0.31580  Biso   1.000  C
  H13      1.0000 0.25070  0.53830  0.89600  Biso   1.000  H
  H14      1.0000 0.74930  0.03830  0.60400  Biso   1.000  H
  H15      1.0000 0.74930  0.46170  0.10400  Biso   1.000  H
  H16      1.0000 0.25070  0.96170  0.39600  Biso   1.000  H
  C9       1.0000 0.24890  0.48970  0.76810  Biso   1.000  C
  C10      1.0000 0.75110  0.98970  0.73190  Biso   1.000  C
  C11      1.0000 0.75110  0.51030  0.23190  Biso   1.000  C
  C12      1.0000 0.24890  0.01030  0.26810  Biso   1.000  C
  H17      1.0000 0.24580  0.46120  0.81390  Biso   1.000  H
  H18      1.0000 0.75420  0.96120  0.68610  Biso   1.000  H
  H19      1.0000 0.75420  0.53880  0.18610  Biso   1.000  H
  H20      1.0000 0.24580  0.03880  0.31390  Biso   1.000  H
  C13      1.0000 0.25380  0.48490  0.64990  Biso   1.000  C
  C14      1.0000 0.74620  0.98490  0.85010  Biso   1.000  C
  C15      1.0000 0.74620  0.51510  0.35010  Biso   1.000  C
  C16      1.0000 0.25380  0.01510  0.14990  Biso   1.000  C
  H21      1.0000 0.26020  0.45330  0.61700  Biso   1.000  H
  H22      1.0000 0.73980  0.95330  0.88300  Biso   1.000  H
  H23      1.0000 0.73980  0.54670  0.38300  Biso   1.000  H
  H24      1.0000 0.26020  0.04670  0.11700  Biso   1.000  H
  C17      1.0000 0.24930  0.52720  0.58170  Biso   1.000  C
  C18      1.0000 0.75070  0.02720  0.91830  Biso   1.000  C
  C19      1.0000 0.75070  0.47280  0.41830  Biso   1.000  C
  C20      1.0000 0.24930  0.97280  0.08170  Biso   1.000  C
  C21      1.0000 0.24550  0.52850  0.46020  Biso   1.000  C
  C22      1.0000 0.75450  0.02850  0.03980  Biso   1.000  C
  C23      1.0000 0.75450  0.47150  0.53980  Biso   1.000  C
  C24      1.0000 0.24550  0.97150  0.96020  Biso   1.000  C
  C25      1.0000 0.23850  0.56230  0.29520  Biso   1.000  C
  C26      1.0000 0.76150  0.06230  0.20480  Biso   1.000  C
  C27      1.0000 0.76150  0.43770  0.70480  Biso   1.000  C
  C28      1.0000 0.23850  0.93770  0.79520  Biso   1.000  C
  H25      1.0000 0.23590  0.58630  0.23660  Biso   1.000  H
  H26      1.0000 0.76410  0.08630  0.26340  Biso   1.000  H
  H27      1.0000 0.76410  0.41370  0.76340  Biso   1.000  H
  H28      1.0000 0.23590  0.91370  0.73660  Biso   1.000  H
  C29      1.0000 0.24580  0.51130  0.27850  Biso   1.000  C
  C30      1.0000 0.75420  0.01130  0.22150  Biso   1.000  C
  C31      1.0000 0.75420  0.48870  0.72150  Biso   1.000  C
  C32      1.0000 0.24580  0.98870  0.77850  Biso   1.000  C
  H29      1.0000 0.24400  0.49460  0.20770  Biso   1.000  H
  H30      1.0000 0.75600  0.99460  0.29230  Biso   1.000  H
  H31      1.0000 0.75600  0.50540  0.79230  Biso   1.000  H
  H32      1.0000 0.24400  0.00540  0.70770  Biso   1.000  H
  C33      1.0000 0.04280  0.68340  0.29060  Biso   1.000  C
  C34      1.0000 0.95720  0.18340  0.20940  Biso   1.000  C
  C35      1.0000 0.95720  0.31660  0.70940  Biso   1.000  C
  C36      1.0000 0.04280  0.81660  0.79060  Biso   1.000  C
  H33      1.0000 0.01300  0.65250  0.25290  Biso   1.000  H
  H34      1.0000 0.98700  0.15250  0.24710  Biso   1.000  H
  H35      1.0000 0.98700  0.34750  0.74710  Biso   1.000  H
  H36      1.0000 0.01300  0.84750  0.75290  Biso   1.000  H
  C37      1.0000 0.97160  0.72530  0.23350  Biso   1.000  C
  C38      1.0000 0.02840  0.22530  0.26650  Biso   1.000  C
  C39      1.0000 0.02840  0.27470  0.76650  Biso   1.000  C
  C40      1.0000 0.97160  0.77470  0.73350  Biso   1.000  C
  H37      1.0000 0.89470  0.72490  0.15540  Biso   1.000  H
  H38      1.0000 0.10530  0.22490  0.34460  Biso   1.000  H
  H39      1.0000 0.10530  0.27510  0.84460  Biso   1.000  H
  H40      1.0000 0.89470  0.77510  0.65540  Biso   1.000  H
  C41      1.0000 0.01560  0.76710  0.29330  Biso   1.000  C
  C42      1.0000 0.98440  0.26710  0.20670  Biso   1.000  C
  C43      1.0000 0.98440  0.23290  0.70670  Biso   1.000  C
  C44      1.0000 0.01560  0.73290  0.79330  Biso   1.000  C
  H41      1.0000 0.96300  0.79610  0.25340  Biso   1.000  H
  H42      1.0000 0.03700  0.29610  0.24660  Biso   1.000  H
  H43      1.0000 0.03700  0.20390  0.74660  Biso   1.000  H
  H44      1.0000 0.96300  0.70390  0.75340  Biso   1.000  H
  C45      1.0000 0.11910  0.77310  0.39690  Biso   1.000  C
  C46      1.0000 0.88090  0.27310  0.10310  Biso   1.000  C
  C47      1.0000 0.88090  0.22690  0.60310  Biso   1.000  C
  C48      1.0000 0.11910  0.72690  0.89690  Biso   1.000  C
  H45      1.0000 0.14520  0.80460  0.43180  Biso   1.000  H
  H46      1.0000 0.85480  0.30460  0.06820  Biso   1.000  H
  H47      1.0000 0.85480  0.19540  0.56820  Biso   1.000  H
  H48      1.0000 0.14520  0.69540  0.93180  Biso   1.000  H
  C49      1.0000 0.19250  0.72960  0.45630  Biso   1.000  C
  C50      1.0000 0.80750  0.22960  0.04370  Biso   1.000  C
  C51      1.0000 0.80750  0.27040  0.54370  Biso   1.000  C
  C52      1.0000 0.19250  0.77040  0.95630  Biso   1.000  C
  C53      1.0000 0.30560  0.72590  0.57640  Biso   1.000  C
  C54      1.0000 0.69440  0.22590  0.92360  Biso   1.000  C
  C55      1.0000 0.69440  0.27410  0.42360  Biso   1.000  C
  C56      1.0000 0.30560  0.77410  0.07640  Biso   1.000  C
  C57      1.0000 0.45930  0.68980  0.73610  Biso   1.000  C
  C58      1.0000 0.54070  0.18980  0.76390  Biso   1.000  C
  C59      1.0000 0.54070  0.31020  0.26390  Biso   1.000  C
  C60      1.0000 0.45930  0.81020  0.23610  Biso   1.000  C
  H49      1.0000 0.50670  0.66360  0.78850  Biso   1.000  H
  H50      1.0000 0.49330  0.16360  0.71150  Biso   1.000  H
  H51      1.0000 0.49330  0.33640  0.21150  Biso   1.000  H
  H52      1.0000 0.50670  0.83640  0.28850  Biso   1.000  H
  C61      1.0000 0.50170  0.73780  0.76140  Biso   1.000  C
  C62      1.0000 0.49830  0.23780  0.73860  Biso   1.000  C
  C63      1.0000 0.49830  0.26220  0.23860  Biso   1.000  C
  C64      1.0000 0.50170  0.76220  0.26140  Biso   1.000  C
  H53      1.0000 0.57830  0.75160  0.83150  Biso   1.000  H
  H54      1.0000 0.42170  0.25160  0.66850  Biso   1.000  H
  H55      1.0000 0.42170  0.24840  0.16850  Biso   1.000  H
  H56      1.0000 0.57830  0.74840  0.33150  Biso   1.000  H
  Cl1      1.0000 0.73061  0.64516  0.49670  Biso   1.000  Cl
  Cl2      1.0000 0.26939  0.14516  0.00330  Biso   1.000  Cl
  Cl3      1.0000 0.26939  0.35484  0.50330  Biso   1.000  Cl
  Cl4      1.0000 0.73061  0.85484  0.99670  Biso   1.000  Cl
  O1       1.0000 0.89580  0.62420  0.51740  Biso   1.000  O
  O2       1.0000 0.10420  0.12420  0.98260  Biso   1.000  O
  O3       1.0000 0.10420  0.37580  0.48260  Biso   1.000  O
  O4       1.0000 0.89580  0.87580  0.01740  Biso   1.000  O
  O5       1.0000 0.71850  0.69510  0.52400  Biso   1.000  O
  O6       1.0000 0.28150  0.19510  0.97600  Biso   1.000  O
  O7       1.0000 0.28150  0.30490  0.47600  Biso   1.000  O
  O8       1.0000 0.71850  0.80490  0.02400  Biso   1.000  O
  O9       1.0000 0.66900  0.64160  0.37280  Biso   1.000  O
  O10      1.0000 0.33100  0.14160  0.12720  Biso   1.000  O
  O11      1.0000 0.33100  0.35840  0.62720  Biso   1.000  O
  O12      1.0000 0.66900  0.85840  0.87280  Biso   1.000  O
  O13      1.0000 0.61350  0.61430  0.54690  Biso   1.000  O
  O14      1.0000 0.38650  0.11430  0.95310  Biso   1.000  O
  O15      1.0000 0.38650  0.38570  0.45310  Biso   1.000  O
  O16      1.0000 0.61350  0.88570  0.04690  Biso   1.000  O
  Cl5      1.0000 0.84980  0.89622  0.46100  Biso   1.000  Cl
  Cl6      1.0000 0.15020  0.39622  0.03900  Biso   1.000  Cl
  Cl7      1.0000 0.15020  0.10378  0.53900  Biso   1.000  Cl
  Cl8      1.0000 0.84980  0.60378  0.96100  Biso   1.000  Cl
  O17      1.0000 0.76180  0.85720  0.49950  Biso   1.000  O
  O18      1.0000 0.23820  0.35720  0.00050  Biso   1.000  O
  O19      1.0000 0.23820  0.14280  0.50050  Biso   1.000  O
  O20      1.0000 0.76180  0.64280  0.99950  Biso   1.000  O
  O21      1.0000 0.83000  0.89150  0.34210  Biso   1.000  O
  O22      1.0000 0.17000  0.39150  0.15790  Biso   1.000  O
  O23      1.0000 0.17000  0.10850  0.65790  Biso   1.000  O
  O24      1.0000 0.83000  0.60850  0.84210  Biso   1.000  O
  O25      1.0000 0.75900  0.93950  0.47990  Biso   1.000  O
  O26      1.0000 0.24100  0.43950  0.02010  Biso   1.000  O
  O27      1.0000 0.24100  0.06050  0.52010  Biso   1.000  O
  O28      1.0000 0.75900  0.56050  0.97990  Biso   1.000  O
  O29      1.0000 0.03570  0.89820  0.51980  Biso   1.000  O
  O30      1.0000 0.96430  0.39820  0.98020  Biso   1.000  O
  O31      1.0000 0.96430  0.10180  0.48020  Biso   1.000  O
  O32      1.0000 0.03570  0.60180  0.01980  Biso   1.000  O
  O33      1.0000 0.41700  0.86250  0.59400  Biso   1.000  O
  O34      1.0000 0.58300  0.36250  0.90600  Biso   1.000  O
  O35      1.0000 0.58300  0.13750  0.40600  Biso   1.000  O
  O36      1.0000 0.41700  0.63750  0.09400  Biso   1.000  O
  H57      1.0000 0.50100  0.86600  0.54100  Biso   1.000  H
  H58      1.0000 0.49900  0.36600  0.95900  Biso   1.000  H
  H59      1.0000 0.49900  0.13400  0.45900  Biso   1.000  H
  H60      1.0000 0.50100  0.63400  0.04100  Biso   1.000  H
  H61      1.0000 0.30000  0.87900  0.55000  Biso   1.000  H
  H62      1.0000 0.70000  0.37900  0.95000  Biso   1.000  H
  H63      1.0000 0.70000  0.12100  0.45000  Biso   1.000  H
  H64      1.0000 0.30000  0.62100  0.05000  Biso   1.000  H
