data_image0
_cell_length_a       7.389
_cell_length_b       8.355
_cell_length_c       11.361
_cell_angle_alpha    78.54
_cell_angle_beta     85.95
_cell_angle_gamma    64.01

_symmetry_space_group_name_H-M    "P 1"
_symmetry_int_tables_number       1

loop_
  _symmetry_equiv_pos_as_xyz
  'x, y, z'

loop_
  _atom_site_label
  _atom_site_occupancy
  _atom_site_fract_x
  _atom_site_fract_y
  _atom_site_fract_z
  _atom_site_thermal_displace_type
  _atom_site_B_iso_or_equiv
  _atom_site_type_symbol
  Cu1      1.0000 0.97554  0.44035  0.41295  Biso   1.000  Cu
  Cu2      1.0000 0.14716  0.43367  0.60749  Biso   1.000  Cu
  O1       1.0000 0.25000  0.27800  0.36580  Biso   1.000  O
  O2       1.0000 0.87800  0.59650  0.64920  Biso   1.000  O
  O3       1.0000 0.72770  0.60880  0.48150  Biso   1.000  O
  O4       1.0000 0.38630  0.27590  0.53190  Biso   1.000  O
  N1       1.0000 0.29890  0.43500  0.76450  Biso   1.000  N
  O5       1.0000 0.94480  0.22850  0.51480  Biso   1.000  O
  C1       1.0000 0.60500  0.43400  0.06060  Biso   1.000  C
  O6       1.0000 0.16360  0.64670  0.51040  Biso   1.000  O
  N2       1.0000 0.81230  0.44600  0.25780  Biso   1.000  N
  O7       1.0000 0.02250  0.65590  0.33630  Biso   1.000  O
  O8       1.0000 0.08540  0.23140  0.67220  Biso   1.000  O
  C2       1.0000 0.50000  0.43300  0.95580  Biso   1.000  C
  C3       1.0000 0.59930  0.37100  0.86270  Biso   1.000  C
  H1       1.0000 0.73800  0.33210  0.86100  Biso   1.000  H
  C4       1.0000 0.50530  0.50700  0.16210  Biso   1.000  C
  H2       1.0000 0.36550  0.56100  0.16500  Biso   1.000  H
  C5       1.0000 0.51640  0.75900  0.62430  Biso   1.000  C
  H3       1.0000 0.52360  0.78640  0.70140  Biso   1.000  H
  H4       1.0000 0.44020  0.68940  0.63030  Biso   1.000  H
  H5       1.0000 0.45180  0.86930  0.56730  Biso   1.000  H
  C6       1.0000 0.50900  0.36000  0.77250  Biso   1.000  C
  H6       1.0000 0.58550  0.30240  0.71190  Biso   1.000  H
  C7       1.0000 0.62670  0.49580  0.26150  Biso   1.000  C
  H7       1.0000 0.56180  0.52730  0.33230  Biso   1.000  H
  C8       1.0000 0.01100  0.17190  0.61720  Biso   1.000  C
  C9       1.0000 0.72740  0.64970  0.58330  Biso   1.000  C
  C10      1.0000 0.82800  0.38100  0.06550  Biso   1.000  C
  H8       1.0000 0.90700  0.33970  0.00080  Biso   1.000  H
  C11      1.0000 0.91000  0.39200  0.15690  Biso   1.000  C
  H9       1.0000 0.04770  0.35980  0.15420  Biso   1.000  H
  C12      1.0000 0.20550  0.51400  0.84800  Biso   1.000  C
  H10      1.0000 0.06560  0.57170  0.84370  Biso   1.000  H
  C13      1.0000 0.30490  0.51800  0.94930  Biso   1.000  C
  H11      1.0000 0.23200  0.57930  0.00940  Biso   1.000  H
  C14      1.0000 0.59360  0.09210  0.39190  Biso   1.000  C
  H12      1.0000 0.70090  0.06150  0.44750  Biso   1.000  H
  H13      1.0000 0.62330  0.14470  0.31430  Biso   1.000  H
  H14      1.0000 0.58040  0.98460  0.38620  Biso   1.000  H
  C15      1.0000 0.39720  0.22800  0.43600  Biso   1.000  C
  C16      1.0000 0.14220  0.87180  0.34110  Biso   1.000  C
  H15      1.0000 0.21160  0.90510  0.39310  Biso   1.000  H
  H16      1.0000 0.01380  0.97170  0.31750  Biso   1.000  H
  H17      1.0000 0.22080  0.84160  0.27100  Biso   1.000  H
  C17      1.0000 0.97700  0.00000  0.67660  Biso   1.000  C
  H18      1.0000 0.03230  0.95750  0.75690  Biso   1.000  H
  H19      1.0000 0.04300  0.90640  0.63020  Biso   1.000  H
  H20      1.0000 0.83550  0.03210  0.67880  Biso   1.000  H
  C18      1.0000 0.11330  0.72000  0.40260  Biso   1.000  C
  N3       1.0000 0.57900  0.92700  0.01820  Biso   1.000  N
  C19      1.0000 0.53400  0.96700  0.12040  Biso   1.000  C
  H21      1.0000 0.65450  0.93950  0.16360  Biso   1.000  H
  H22      1.0000 0.46750  0.89740  0.16360  Biso   1.000  H
  H23      1.0000 0.44610  0.09370  0.11240  Biso   1.000  H
  C20      1.0000 0.71500  0.85400  0.93760  Biso   1.000  C
  H24      1.0000 0.84780  0.82020  0.96800  Biso   1.000  H
  H25      1.0000 0.69030  0.94150  0.86420  Biso   1.000  H
  H26      1.0000 0.70630  0.74910  0.92250  Biso   1.000  H
  O9       1.0000 0.22500  0.99900  0.02120  Biso   1.000  O
  C21      1.0000 0.37400  0.96900  0.96500  Biso   1.000  C
  H27      1.0000 0.36620  0.97110  0.88370  Biso   1.000  H
