data_image0
_cell_length_a       7.389
_cell_length_b       8.355
_cell_length_c       11.361
_cell_angle_alpha    78.54
_cell_angle_beta     85.95
_cell_angle_gamma    64.01

_symmetry_space_group_name_H-M    "P 1"
_symmetry_int_tables_number       1

loop_
  _symmetry_equiv_pos_as_xyz
  'x, y, z'

loop_
  _atom_site_label
  _atom_site_occupancy
  _atom_site_fract_x
  _atom_site_fract_y
  _atom_site_fract_z
  _atom_site_thermal_displace_type
  _atom_site_B_iso_or_equiv
  _atom_site_type_symbol
  Cu1      1.0000 0.41427  0.50318  0.40276  Biso   1.000  Cu
  Cu2      1.0000 0.58573  0.49682  0.59724  Biso   1.000  Cu
  O1       1.0000 0.16970  0.66730  0.47480  Biso   1.000  O
  O2       1.0000 0.83030  0.33270  0.52520  Biso   1.000  O
  O3       1.0000 0.31320  0.65870  0.64190  Biso   1.000  O
  O4       1.0000 0.68680  0.34130  0.35810  Biso   1.000  O
  O5       1.0000 0.39050  0.29160  0.50170  Biso   1.000  O
  O6       1.0000 0.60950  0.70840  0.49830  Biso   1.000  O
  O7       1.0000 0.53170  0.28760  0.66760  Biso   1.000  O
  O8       1.0000 0.46830  0.71240  0.33240  Biso   1.000  O
  O9       1.0000 0.64300  0.07540  0.00320  Biso   1.000  O
  O10      1.0000 0.35700  0.92460  0.99680  Biso   1.000  O
  N1       1.0000 0.25720  0.50530  0.24780  Biso   1.000  N
  N2       1.0000 0.74280  0.49470  0.75220  Biso   1.000  N
  N3       1.0000 0.97300  0.99790  0.99440  Biso   1.000  N
  N4       1.0000 0.02700  0.00210  0.00560  Biso   1.000  N
  C1       1.0000 0.16430  0.71090  0.57420  Biso   1.000  C
  C2       1.0000 0.83570  0.28910  0.42580  Biso   1.000  C
  C3       1.0000 0.96150  0.83670  0.61600  Biso   1.000  C
  C4       1.0000 0.03850  0.16330  0.38400  Biso   1.000  C
  H1       1.0000 0.93030  0.77830  0.69100  Biso   1.000  H
  H2       1.0000 0.06970  0.22170  0.30900  Biso   1.000  H
  H3       1.0000 0.85970  0.86550  0.55700  Biso   1.000  H
  H4       1.0000 0.14030  0.13450  0.44300  Biso   1.000  H
  H5       1.0000 0.96580  0.94620  0.62660  Biso   1.000  H
  H6       1.0000 0.03420  0.05380  0.37340  Biso   1.000  H
  C5       1.0000 0.44860  0.22650  0.60790  Biso   1.000  C
  C6       1.0000 0.55140  0.77350  0.39210  Biso   1.000  C
  C7       1.0000 0.41790  0.06570  0.66670  Biso   1.000  C
  C8       1.0000 0.58210  0.93430  0.33330  Biso   1.000  C
  H7       1.0000 0.28230  0.08670  0.65170  Biso   1.000  H
  H8       1.0000 0.71770  0.91330  0.34830  Biso   1.000  H
  H9       1.0000 0.44120  0.04420  0.75170  Biso   1.000  H
  H10      1.0000 0.55880  0.95580  0.24830  Biso   1.000  H
  H11      1.0000 0.51030  0.96170  0.63490  Biso   1.000  H
  H12      1.0000 0.48970  0.03830  0.36510  Biso   1.000  H
  C9       1.0000 0.05990  0.56460  0.24580  Biso   1.000  C
  C10      1.0000 0.94010  0.43540  0.75420  Biso   1.000  C
  H13      1.0000 0.98900  0.60660  0.31280  Biso   1.000  H
  H14      1.0000 0.01100  0.39340  0.68720  Biso   1.000  H
  C11      1.0000 0.95370  0.56780  0.15060  Biso   1.000  C
  C12      1.0000 0.04630  0.43220  0.84940  Biso   1.000  C
  H15      1.0000 0.81400  0.61460  0.15310  Biso   1.000  H
  H16      1.0000 0.18600  0.38540  0.84690  Biso   1.000  H
  C13      1.0000 0.05290  0.50200  0.05200  Biso   1.000  C
  C14      1.0000 0.94710  0.49800  0.94800  Biso   1.000  C
  C15      1.0000 0.25960  0.43100  0.05790  Biso   1.000  C
  C16      1.0000 0.74040  0.56900  0.94210  Biso   1.000  C
  H17      1.0000 0.33590  0.37990  0.99490  Biso   1.000  H
  H18      1.0000 0.66410  0.62010  0.00510  Biso   1.000  H
  C17      1.0000 0.35320  0.43550  0.15620  Biso   1.000  C
  C18      1.0000 0.64680  0.56450  0.84380  Biso   1.000  C
  H19      1.0000 0.49310  0.38600  0.15770  Biso   1.000  H
  H20      1.0000 0.50690  0.61400  0.84230  Biso   1.000  H
  C19      1.0000 0.79900  0.02400  0.94680  Biso   1.000  C
  C20      1.0000 0.20100  0.97600  0.05320  Biso   1.000  C
  H21      1.0000 0.79710  0.00280  0.86960  Biso   1.000  H
  H22      1.0000 0.20290  0.99720  0.13040  Biso   1.000  H
  C21      1.0000 0.98400  0.02900  0.11370  Biso   1.000  C
  C22      1.0000 0.01600  0.97100  0.88630  Biso   1.000  C
  H23      1.0000 0.06330  0.09490  0.11230  Biso   1.000  H
  H24      1.0000 0.93670  0.90510  0.88770  Biso   1.000  H
  H25      1.0000 0.04660  0.91450  0.16770  Biso   1.000  H
  H26      1.0000 0.95340  0.08550  0.83230  Biso   1.000  H
  H27      1.0000 0.85130  0.09760  0.14050  Biso   1.000  H
  H28      1.0000 0.14870  0.90240  0.85950  Biso   1.000  H
  C23      1.0000 0.15800  0.93700  0.92820  Biso   1.000  C
  C24      1.0000 0.84200  0.06300  0.07180  Biso   1.000  C
  H29      1.0000 0.13040  0.99400  0.84520  Biso   1.000  H
  H30      1.0000 0.86960  0.00600  0.15480  Biso   1.000  H
  H31      1.0000 0.21390  0.80760  0.93470  Biso   1.000  H
  H32      1.0000 0.78610  0.19240  0.06530  Biso   1.000  H
  H33      1.0000 0.25190  0.96780  0.96070  Biso   1.000  H
  H34      1.0000 0.74810  0.03220  0.03930  Biso   1.000  H
