data_image0
_cell_length_a       27.41
_cell_length_b       9.9388
_cell_length_c       17.7147
_cell_angle_alpha    90
_cell_angle_beta     108.238
_cell_angle_gamma    90

_symmetry_space_group_name_H-M    "P 1"
_symmetry_int_tables_number       1

loop_
  _symmetry_equiv_pos_as_xyz
  'x, y, z'

loop_
  _atom_site_label
  _atom_site_occupancy
  _atom_site_fract_x
  _atom_site_fract_y
  _atom_site_fract_z
  _atom_site_thermal_displace_type
  _atom_site_B_iso_or_equiv
  _atom_site_type_symbol
  Cu1      1.0000 0.23475  0.16393  0.04437  Biso   1.000  Cu
  Cu2      1.0000 0.76525  0.16393  0.45563  Biso   1.000  Cu
  Cu3      1.0000 0.73475  0.66393  0.04437  Biso   1.000  Cu
  Cu4      1.0000 0.26525  0.66393  0.45563  Biso   1.000  Cu
  Cu5      1.0000 0.76525  0.83607  0.95563  Biso   1.000  Cu
  Cu6      1.0000 0.23475  0.83607  0.54437  Biso   1.000  Cu
  Cu7      1.0000 0.26525  0.33607  0.95563  Biso   1.000  Cu
  Cu8      1.0000 0.73475  0.33607  0.54437  Biso   1.000  Cu
  O1       1.0000 0.81206  0.09140  0.55500  Biso   1.000  O
  O2       1.0000 0.18794  0.09140  0.94500  Biso   1.000  O
  O3       1.0000 0.31206  0.59140  0.55500  Biso   1.000  O
  O4       1.0000 0.68794  0.59140  0.94500  Biso   1.000  O
  O5       1.0000 0.18794  0.90860  0.44500  Biso   1.000  O
  O6       1.0000 0.81206  0.90860  0.05500  Biso   1.000  O
  O7       1.0000 0.68794  0.40860  0.44500  Biso   1.000  O
  O8       1.0000 0.31206  0.40860  0.05500  Biso   1.000  O
  O9       1.0000 0.18389  0.30110  0.04410  Biso   1.000  O
  O10      1.0000 0.81611  0.30110  0.45590  Biso   1.000  O
  O11      1.0000 0.68389  0.80110  0.04410  Biso   1.000  O
  O12      1.0000 0.31611  0.80110  0.45590  Biso   1.000  O
  O13      1.0000 0.81611  0.69890  0.95590  Biso   1.000  O
  O14      1.0000 0.18389  0.69890  0.54410  Biso   1.000  O
  O15      1.0000 0.31611  0.19890  0.95590  Biso   1.000  O
  O16      1.0000 0.68389  0.19890  0.54410  Biso   1.000  O
  O17      1.0000 0.22006  0.02610  0.12870  Biso   1.000  O
  O18      1.0000 0.77994  0.02610  0.37130  Biso   1.000  O
  O19      1.0000 0.72006  0.52610  0.12870  Biso   1.000  O
  O20      1.0000 0.27994  0.52610  0.37130  Biso   1.000  O
  O21      1.0000 0.77994  0.97390  0.87130  Biso   1.000  O
  O22      1.0000 0.22006  0.97390  0.62870  Biso   1.000  O
  O23      1.0000 0.27994  0.47390  0.87130  Biso   1.000  O
  O24      1.0000 0.72006  0.47390  0.62870  Biso   1.000  O
  O25      1.0000 0.78576  0.23920  0.62900  Biso   1.000  O
  O26      1.0000 0.21424  0.23920  0.87100  Biso   1.000  O
  O27      1.0000 0.28576  0.73920  0.62900  Biso   1.000  O
  O28      1.0000 0.71424  0.73920  0.87100  Biso   1.000  O
  O29      1.0000 0.21424  0.76080  0.37100  Biso   1.000  O
  O30      1.0000 0.78576  0.76080  0.12900  Biso   1.000  O
  O31      1.0000 0.71424  0.26080  0.37100  Biso   1.000  O
  O32      1.0000 0.28576  0.26080  0.12900  Biso   1.000  O
  O33      1.0000 0.20977  0.44850  0.96820  Biso   1.000  O
  O34      1.0000 0.79023  0.44850  0.53180  Biso   1.000  O
  O35      1.0000 0.70977  0.94850  0.96820  Biso   1.000  O
  O36      1.0000 0.29023  0.94850  0.53180  Biso   1.000  O
  O37      1.0000 0.79023  0.55150  0.03180  Biso   1.000  O
  O38      1.0000 0.20977  0.55150  0.46820  Biso   1.000  O
  O39      1.0000 0.29023  0.05150  0.03180  Biso   1.000  O
  O40      1.0000 0.70977  0.05150  0.46820  Biso   1.000  O
  C1       1.0000 0.81320  0.14260  0.62030  Biso   1.000  C
  C2       1.0000 0.18680  0.14260  0.87970  Biso   1.000  C
  C3       1.0000 0.31320  0.64260  0.62030  Biso   1.000  C
  C4       1.0000 0.68680  0.64260  0.87970  Biso   1.000  C
  C5       1.0000 0.18680  0.85740  0.37970  Biso   1.000  C
  C6       1.0000 0.81320  0.85740  0.12030  Biso   1.000  C
  C7       1.0000 0.68680  0.35740  0.37970  Biso   1.000  C
  C8       1.0000 0.31320  0.35740  0.12030  Biso   1.000  C
  C9       1.0000 0.84990  0.08610  0.69460  Biso   1.000  C
  C10      1.0000 0.15010  0.08610  0.80540  Biso   1.000  C
  C11      1.0000 0.34990  0.58610  0.69460  Biso   1.000  C
  C12      1.0000 0.65010  0.58610  0.80540  Biso   1.000  C
  C13      1.0000 0.15010  0.91390  0.30540  Biso   1.000  C
  C14      1.0000 0.84990  0.91390  0.19460  Biso   1.000  C
  C15      1.0000 0.65010  0.41390  0.30540  Biso   1.000  C
  C16      1.0000 0.34990  0.41390  0.19460  Biso   1.000  C
  C17      1.0000 0.85100  0.14120  0.76700  Biso   1.000  C
  C18      1.0000 0.14900  0.14120  0.73300  Biso   1.000  C
  C19      1.0000 0.35100  0.64120  0.76700  Biso   1.000  C
  C20      1.0000 0.64900  0.64120  0.73300  Biso   1.000  C
  C21      1.0000 0.14900  0.85880  0.23300  Biso   1.000  C
  C22      1.0000 0.85100  0.85880  0.26700  Biso   1.000  C
  C23      1.0000 0.64900  0.35880  0.23300  Biso   1.000  C
  C24      1.0000 0.35100  0.35880  0.26700  Biso   1.000  C
  H1       1.0000 0.83090  0.21580  0.76870  Biso   1.000  H
  H2       1.0000 0.16910  0.21580  0.73130  Biso   1.000  H
  H3       1.0000 0.33090  0.71580  0.76870  Biso   1.000  H
  H4       1.0000 0.66910  0.71580  0.73130  Biso   1.000  H
  H5       1.0000 0.16910  0.78420  0.23130  Biso   1.000  H
  H6       1.0000 0.83090  0.78420  0.26870  Biso   1.000  H
  H7       1.0000 0.66910  0.28420  0.23130  Biso   1.000  H
  H8       1.0000 0.33090  0.28420  0.26870  Biso   1.000  H
  C25      1.0000 0.88040  0.97830  0.69150  Biso   1.000  C
  C26      1.0000 0.11960  0.97830  0.80850  Biso   1.000  C
  C27      1.0000 0.38040  0.47830  0.69150  Biso   1.000  C
  C28      1.0000 0.61960  0.47830  0.80850  Biso   1.000  C
  C29      1.0000 0.11960  0.02170  0.30850  Biso   1.000  C
  C30      1.0000 0.88040  0.02170  0.19150  Biso   1.000  C
  C31      1.0000 0.61960  0.52170  0.30850  Biso   1.000  C
  C32      1.0000 0.38040  0.52170  0.19150  Biso   1.000  C
  H9       1.0000 0.88020  0.94440  0.64250  Biso   1.000  H
  H10      1.0000 0.11980  0.94440  0.85750  Biso   1.000  H
  H11      1.0000 0.38020  0.44440  0.64250  Biso   1.000  H
  H12      1.0000 0.61980  0.44440  0.85750  Biso   1.000  H
  H13      1.0000 0.11980  0.05560  0.35750  Biso   1.000  H
  H14      1.0000 0.88020  0.05560  0.14250  Biso   1.000  H
  H15      1.0000 0.61980  0.55560  0.35750  Biso   1.000  H
  H16      1.0000 0.38020  0.55560  0.14250  Biso   1.000  H
  C33      1.0000 0.91180  0.91870  0.76160  Biso   1.000  C
  C34      1.0000 0.08820  0.91870  0.73840  Biso   1.000  C
  C35      1.0000 0.41180  0.41870  0.76160  Biso   1.000  C
  C36      1.0000 0.58820  0.41870  0.73840  Biso   1.000  C
  C37      1.0000 0.08820  0.08130  0.23840  Biso   1.000  C
  C38      1.0000 0.91180  0.08130  0.26160  Biso   1.000  C
  C39      1.0000 0.58820  0.58130  0.23840  Biso   1.000  C
  C40      1.0000 0.41180  0.58130  0.26160  Biso   1.000  C
  H17      1.0000 0.93290  0.84650  0.75920  Biso   1.000  H
  H18      1.0000 0.06710  0.84650  0.74080  Biso   1.000  H
  H19      1.0000 0.43290  0.34650  0.75920  Biso   1.000  H
  H20      1.0000 0.56710  0.34650  0.74080  Biso   1.000  H
  H21      1.0000 0.06710  0.15350  0.24080  Biso   1.000  H
  H22      1.0000 0.93290  0.15350  0.25920  Biso   1.000  H
  H23      1.0000 0.56710  0.65350  0.24080  Biso   1.000  H
  H24      1.0000 0.43290  0.65350  0.25920  Biso   1.000  H
  C41      1.0000 0.91120  0.96920  0.83570  Biso   1.000  C
  C42      1.0000 0.08880  0.96920  0.66430  Biso   1.000  C
  C43      1.0000 0.41120  0.46920  0.83570  Biso   1.000  C
  C44      1.0000 0.58880  0.46920  0.66430  Biso   1.000  C
  C45      1.0000 0.08880  0.03080  0.16430  Biso   1.000  C
  C46      1.0000 0.91120  0.03080  0.33570  Biso   1.000  C
  C47      1.0000 0.58880  0.53080  0.16430  Biso   1.000  C
  C48      1.0000 0.41120  0.53080  0.33570  Biso   1.000  C
  C49      1.0000 0.88190  0.08490  0.83600  Biso   1.000  C
  C50      1.0000 0.11810  0.08490  0.66400  Biso   1.000  C
  C51      1.0000 0.38190  0.58490  0.83600  Biso   1.000  C
  C52      1.0000 0.61810  0.58490  0.66400  Biso   1.000  C
  C53      1.0000 0.11810  0.91510  0.16400  Biso   1.000  C
  C54      1.0000 0.88190  0.91510  0.33600  Biso   1.000  C
  C55      1.0000 0.61810  0.41510  0.16400  Biso   1.000  C
  C56      1.0000 0.38190  0.41510  0.33600  Biso   1.000  C
  H25      1.0000 0.88360  0.12440  0.88430  Biso   1.000  H
  H26      1.0000 0.11640  0.12440  0.61570  Biso   1.000  H
  H27      1.0000 0.38360  0.62440  0.88430  Biso   1.000  H
  H28      1.0000 0.61640  0.62440  0.61570  Biso   1.000  H
  H29      1.0000 0.11640  0.87560  0.11570  Biso   1.000  H
  H30      1.0000 0.88360  0.87560  0.38430  Biso   1.000  H
  H31      1.0000 0.61640  0.37560  0.11570  Biso   1.000  H
  H32      1.0000 0.38360  0.37560  0.38430  Biso   1.000  H
  C57      1.0000 0.18000  0.41170  0.00540  Biso   1.000  C
  C58      1.0000 0.82000  0.41170  0.49460  Biso   1.000  C
  C59      1.0000 0.68000  0.91170  0.00540  Biso   1.000  C
  C60      1.0000 0.32000  0.91170  0.49460  Biso   1.000  C
  C61      1.0000 0.82000  0.58830  0.99460  Biso   1.000  C
  C62      1.0000 0.18000  0.58830  0.50540  Biso   1.000  C
  C63      1.0000 0.32000  0.08830  0.99460  Biso   1.000  C
  C64      1.0000 0.68000  0.08830  0.50540  Biso   1.000  C
  C65      1.0000 0.13620  0.50140  0.00390  Biso   1.000  C
  C66      1.0000 0.86380  0.50140  0.49610  Biso   1.000  C
  C67      1.0000 0.63620  0.00140  0.00390  Biso   1.000  C
  C68      1.0000 0.36380  0.00140  0.49610  Biso   1.000  C
  C69      1.0000 0.86380  0.49860  0.99610  Biso   1.000  C
  C70      1.0000 0.13620  0.49860  0.50390  Biso   1.000  C
  C71      1.0000 0.36380  0.99860  0.99610  Biso   1.000  C
  C72      1.0000 0.63620  0.99860  0.50390  Biso   1.000  C
  C73      1.0000 0.06140  0.55180  0.04140  Biso   1.000  C
  C74      1.0000 0.93860  0.55180  0.45860  Biso   1.000  C
  C75      1.0000 0.56140  0.05180  0.04140  Biso   1.000  C
  C76      1.0000 0.43860  0.05180  0.45860  Biso   1.000  C
  C77      1.0000 0.93860  0.44820  0.95860  Biso   1.000  C
  C78      1.0000 0.06140  0.44820  0.54140  Biso   1.000  C
  C79      1.0000 0.43860  0.94820  0.95860  Biso   1.000  C
  C80      1.0000 0.56140  0.94820  0.54140  Biso   1.000  C
  H33      1.0000 0.03930  0.52910  0.06990  Biso   1.000  H
  H34      1.0000 0.96070  0.52910  0.43010  Biso   1.000  H
  H35      1.0000 0.53930  0.02910  0.06990  Biso   1.000  H
  H36      1.0000 0.46070  0.02910  0.43010  Biso   1.000  H
  H37      1.0000 0.96070  0.47090  0.93010  Biso   1.000  H
  H38      1.0000 0.03930  0.47090  0.56990  Biso   1.000  H
  H39      1.0000 0.46070  0.97090  0.93010  Biso   1.000  H
  H40      1.0000 0.53930  0.97090  0.56990  Biso   1.000  H
  C81      1.0000 0.05260  0.67050  0.99550  Biso   1.000  C
  C82      1.0000 0.94740  0.67050  0.50450  Biso   1.000  C
  C83      1.0000 0.55260  0.17050  0.99550  Biso   1.000  C
  C84      1.0000 0.44740  0.17050  0.50450  Biso   1.000  C
  C85      1.0000 0.94740  0.32950  0.00450  Biso   1.000  C
  C86      1.0000 0.05260  0.32950  0.49550  Biso   1.000  C
  C87      1.0000 0.44740  0.82950  0.00450  Biso   1.000  C
  C88      1.0000 0.55260  0.82950  0.49550  Biso   1.000  C
  C89      1.0000 0.12840  0.61980  0.95840  Biso   1.000  C
  C90      1.0000 0.87160  0.61980  0.54160  Biso   1.000  C
  C91      1.0000 0.62840  0.11980  0.95840  Biso   1.000  C
  C92      1.0000 0.37160  0.11980  0.54160  Biso   1.000  C
  C93      1.0000 0.87160  0.38020  0.04160  Biso   1.000  C
  C94      1.0000 0.12840  0.38020  0.45840  Biso   1.000  C
  C95      1.0000 0.37160  0.88020  0.04160  Biso   1.000  C
  C96      1.0000 0.62840  0.88020  0.45840  Biso   1.000  C
  H41      1.0000 0.15120  0.64330  0.93120  Biso   1.000  H
  H42      1.0000 0.84880  0.64330  0.56880  Biso   1.000  H
  H43      1.0000 0.65120  0.14330  0.93120  Biso   1.000  H
  H44      1.0000 0.34880  0.14330  0.56880  Biso   1.000  H
  H45      1.0000 0.84880  0.35670  0.06880  Biso   1.000  H
  H46      1.0000 0.15120  0.35670  0.43120  Biso   1.000  H
  H47      1.0000 0.34880  0.85670  0.06880  Biso   1.000  H
  H48      1.0000 0.65120  0.85670  0.43120  Biso   1.000  H
  C97      1.0000 0.10290  0.46770  0.04470  Biso   1.000  C
  C98      1.0000 0.89710  0.46770  0.45530  Biso   1.000  C
  C99      1.0000 0.60290  0.96770  0.04470  Biso   1.000  C
  C100     1.0000 0.39710  0.96770  0.45530  Biso   1.000  C
  C101     1.0000 0.89710  0.53230  0.95530  Biso   1.000  C
  C102     1.0000 0.10290  0.53230  0.54470  Biso   1.000  C
  C103     1.0000 0.39710  0.03230  0.95530  Biso   1.000  C
  C104     1.0000 0.60290  0.03230  0.54470  Biso   1.000  C
  H49      1.0000 0.10780  0.38890  0.07450  Biso   1.000  H
  H50      1.0000 0.89220  0.38890  0.42550  Biso   1.000  H
  H51      1.0000 0.60780  0.88890  0.07450  Biso   1.000  H
  H52      1.0000 0.39220  0.88890  0.42550  Biso   1.000  H
  H53      1.0000 0.89220  0.61110  0.92550  Biso   1.000  H
  H54      1.0000 0.10780  0.61110  0.57450  Biso   1.000  H
  H55      1.0000 0.39220  0.11110  0.92550  Biso   1.000  H
  H56      1.0000 0.60780  0.11110  0.57450  Biso   1.000  H
  C105     1.0000 0.08660  0.70150  0.95440  Biso   1.000  C
  C106     1.0000 0.91340  0.70150  0.54560  Biso   1.000  C
  C107     1.0000 0.58660  0.20150  0.95440  Biso   1.000  C
  C108     1.0000 0.41340  0.20150  0.54560  Biso   1.000  C
  C109     1.0000 0.91340  0.29850  0.04560  Biso   1.000  C
  C110     1.0000 0.08660  0.29850  0.45440  Biso   1.000  C
  C111     1.0000 0.41340  0.79850  0.04560  Biso   1.000  C
  C112     1.0000 0.58660  0.79850  0.45440  Biso   1.000  C
  H57      1.0000 0.08130  0.77890  0.92340  Biso   1.000  H
  H58      1.0000 0.91870  0.77890  0.57660  Biso   1.000  H
  H59      1.0000 0.58130  0.27890  0.92340  Biso   1.000  H
  H60      1.0000 0.41870  0.27890  0.57660  Biso   1.000  H
  H61      1.0000 0.91870  0.22110  0.07660  Biso   1.000  H
  H62      1.0000 0.08130  0.22110  0.42340  Biso   1.000  H
  H63      1.0000 0.41870  0.72110  0.07660  Biso   1.000  H
  H64      1.0000 0.58130  0.72110  0.42340  Biso   1.000  H
  C113     1.0000 0.00700  0.75610  0.98970  Biso   1.000  C
  C114     1.0000 0.99300  0.75610  0.51030  Biso   1.000  C
  C115     1.0000 0.50700  0.25610  0.98970  Biso   1.000  C
  C116     1.0000 0.49300  0.25610  0.51030  Biso   1.000  C
  C117     1.0000 0.99300  0.24390  0.01030  Biso   1.000  C
  C118     1.0000 0.00700  0.24390  0.48970  Biso   1.000  C
  C119     1.0000 0.49300  0.74390  0.01030  Biso   1.000  C
  C120     1.0000 0.50700  0.74390  0.48970  Biso   1.000  C
  C121     1.0000 0.98190  0.82450  0.92000  Biso   1.000  C
  C122     1.0000 0.01810  0.82450  0.58000  Biso   1.000  C
  C123     1.0000 0.48190  0.32450  0.92000  Biso   1.000  C
  C124     1.0000 0.51810  0.32450  0.58000  Biso   1.000  C
  C125     1.0000 0.01810  0.17550  0.08000  Biso   1.000  C
  C126     1.0000 0.98190  0.17550  0.42000  Biso   1.000  C
  C127     1.0000 0.51810  0.67550  0.08000  Biso   1.000  C
  C128     1.0000 0.48190  0.67550  0.42000  Biso   1.000  C
  H65      1.0000 0.99500  0.81870  0.87750  Biso   1.000  H
  H66      1.0000 0.00500  0.81870  0.62250  Biso   1.000  H
  H67      1.0000 0.49500  0.31870  0.87750  Biso   1.000  H
  H68      1.0000 0.50500  0.31870  0.62250  Biso   1.000  H
  H69      1.0000 0.00500  0.18130  0.12250  Biso   1.000  H
  H70      1.0000 0.99500  0.18130  0.37750  Biso   1.000  H
  H71      1.0000 0.50500  0.68130  0.12250  Biso   1.000  H
  H72      1.0000 0.49500  0.68130  0.37750  Biso   1.000  H
  C129     1.0000 0.93790  0.90130  0.91110  Biso   1.000  C
  C130     1.0000 0.06210  0.90130  0.58890  Biso   1.000  C
  C131     1.0000 0.43790  0.40130  0.91110  Biso   1.000  C
  C132     1.0000 0.56210  0.40130  0.58890  Biso   1.000  C
  C133     1.0000 0.06210  0.09870  0.08890  Biso   1.000  C
  C134     1.0000 0.93790  0.09870  0.41110  Biso   1.000  C
  C135     1.0000 0.56210  0.59870  0.08890  Biso   1.000  C
  C136     1.0000 0.43790  0.59870  0.41110  Biso   1.000  C
  C137     1.0000 0.94400  0.84360  0.04490  Biso   1.000  C
  C138     1.0000 0.05600  0.84360  0.45510  Biso   1.000  C
  C139     1.0000 0.44400  0.34360  0.04490  Biso   1.000  C
  C140     1.0000 0.55600  0.34360  0.45510  Biso   1.000  C
  C141     1.0000 0.05600  0.15640  0.95510  Biso   1.000  C
  C142     1.0000 0.94400  0.15640  0.54490  Biso   1.000  C
  C143     1.0000 0.55600  0.65640  0.95510  Biso   1.000  C
  C144     1.0000 0.44400  0.65640  0.54490  Biso   1.000  C
  H73      1.0000 0.93140  0.85090  0.08780  Biso   1.000  H
  H74      1.0000 0.06860  0.85090  0.41220  Biso   1.000  H
  H75      1.0000 0.43140  0.35090  0.08780  Biso   1.000  H
  H76      1.0000 0.56860  0.35090  0.41220  Biso   1.000  H
  H77      1.0000 0.06860  0.14910  0.91220  Biso   1.000  H
  H78      1.0000 0.93140  0.14910  0.58780  Biso   1.000  H
  H79      1.0000 0.56860  0.64910  0.91220  Biso   1.000  H
  H80      1.0000 0.43140  0.64910  0.58780  Biso   1.000  H
  C145     1.0000 0.91910  0.90870  0.97520  Biso   1.000  C
  C146     1.0000 0.08090  0.90870  0.52480  Biso   1.000  C
  C147     1.0000 0.41910  0.40870  0.97520  Biso   1.000  C
  C148     1.0000 0.58090  0.40870  0.52480  Biso   1.000  C
  C149     1.0000 0.08090  0.09130  0.02480  Biso   1.000  C
  C150     1.0000 0.91910  0.09130  0.47520  Biso   1.000  C
  C151     1.0000 0.58090  0.59130  0.02480  Biso   1.000  C
  C152     1.0000 0.41910  0.59130  0.47520  Biso   1.000  C
  H81      1.0000 0.88950  0.95810  0.97090  Biso   1.000  H
  H82      1.0000 0.11050  0.95810  0.52910  Biso   1.000  H
  H83      1.0000 0.38950  0.45810  0.97090  Biso   1.000  H
  H84      1.0000 0.61050  0.45810  0.52910  Biso   1.000  H
  H85      1.0000 0.11050  0.04190  0.02910  Biso   1.000  H
  H86      1.0000 0.88950  0.04190  0.47090  Biso   1.000  H
  H87      1.0000 0.61050  0.54190  0.02910  Biso   1.000  H
  H88      1.0000 0.38950  0.54190  0.47090  Biso   1.000  H
  C153     1.0000 0.98770  0.76680  0.05240  Biso   1.000  C
  C154     1.0000 0.01230  0.76680  0.44760  Biso   1.000  C
  C155     1.0000 0.48770  0.26680  0.05240  Biso   1.000  C
  C156     1.0000 0.51230  0.26680  0.44760  Biso   1.000  C
  C157     1.0000 0.01230  0.23320  0.94760  Biso   1.000  C
  C158     1.0000 0.98770  0.23320  0.55240  Biso   1.000  C
  C159     1.0000 0.51230  0.73320  0.94760  Biso   1.000  C
  C160     1.0000 0.48770  0.73320  0.55240  Biso   1.000  C
  H89      1.0000 0.00390  0.72260  0.10000  Biso   1.000  H
  H90      1.0000 0.99610  0.72260  0.40000  Biso   1.000  H
  H91      1.0000 0.50390  0.22260  0.10000  Biso   1.000  H
  H92      1.0000 0.49610  0.22260  0.40000  Biso   1.000  H
  H93      1.0000 0.99610  0.27740  0.90000  Biso   1.000  H
  H94      1.0000 0.00390  0.27740  0.60000  Biso   1.000  H
  H95      1.0000 0.49610  0.77740  0.90000  Biso   1.000  H
  H96      1.0000 0.50390  0.77740  0.60000  Biso   1.000  H
  C161     1.0000 0.28590  0.00960  0.27380  Biso   1.000  C
  C162     1.0000 0.71410  0.00960  0.22620  Biso   1.000  C
  C163     1.0000 0.78590  0.50960  0.27380  Biso   1.000  C
  C164     1.0000 0.21410  0.50960  0.22620  Biso   1.000  C
  C165     1.0000 0.71410  0.99040  0.72620  Biso   1.000  C
  C166     1.0000 0.28590  0.99040  0.77380  Biso   1.000  C
  C167     1.0000 0.21410  0.49040  0.72620  Biso   1.000  C
  C168     1.0000 0.78590  0.49040  0.77380  Biso   1.000  C
  H97      1.0000 0.26870  0.08860  0.24730  Biso   1.000  H
  H98      1.0000 0.73130  0.08860  0.25270  Biso   1.000  H
  H99      1.0000 0.76870  0.58860  0.24730  Biso   1.000  H
  H100     1.0000 0.23130  0.58860  0.25270  Biso   1.000  H
  H101     1.0000 0.73130  0.91140  0.75270  Biso   1.000  H
  H102     1.0000 0.26870  0.91140  0.74730  Biso   1.000  H
  H103     1.0000 0.23130  0.41140  0.75270  Biso   1.000  H
  H104     1.0000 0.76870  0.41140  0.74730  Biso   1.000  H
  H105     1.0000 0.32210  0.02690  0.29460  Biso   1.000  H
  H106     1.0000 0.67790  0.02690  0.20540  Biso   1.000  H
  H107     1.0000 0.82210  0.52690  0.29460  Biso   1.000  H
  H108     1.0000 0.17790  0.52690  0.20540  Biso   1.000  H
  H109     1.0000 0.67790  0.97310  0.70540  Biso   1.000  H
  H110     1.0000 0.32210  0.97310  0.79460  Biso   1.000  H
  H111     1.0000 0.17790  0.47310  0.70540  Biso   1.000  H
  H112     1.0000 0.82210  0.47310  0.79460  Biso   1.000  H
  H113     1.0000 0.27290  0.98650  0.31650  Biso   1.000  H
  H114     1.0000 0.72710  0.98650  0.18350  Biso   1.000  H
  H115     1.0000 0.77290  0.48650  0.31650  Biso   1.000  H
  H116     1.0000 0.22710  0.48650  0.18350  Biso   1.000  H
  H117     1.0000 0.72710  0.01350  0.68350  Biso   1.000  H
  H118     1.0000 0.27290  0.01350  0.81650  Biso   1.000  H
  H119     1.0000 0.22710  0.51350  0.68350  Biso   1.000  H
  H120     1.0000 0.77290  0.51350  0.81650  Biso   1.000  H
  C169     1.0000 0.24320  0.92010  0.14730  Biso   1.000  C
  C170     1.0000 0.75680  0.92010  0.35270  Biso   1.000  C
  C171     1.0000 0.74320  0.42010  0.14730  Biso   1.000  C
  C172     1.0000 0.25680  0.42010  0.35270  Biso   1.000  C
  C173     1.0000 0.75680  0.07990  0.85270  Biso   1.000  C
  C174     1.0000 0.24320  0.07990  0.64730  Biso   1.000  C
  C175     1.0000 0.25680  0.57990  0.85270  Biso   1.000  C
  C176     1.0000 0.74320  0.57990  0.64730  Biso   1.000  C
  N1       1.0000 0.27680  0.89830  0.21730  Biso   1.000  N
  N2       1.0000 0.72320  0.89830  0.28270  Biso   1.000  N
  N3       1.0000 0.77680  0.39830  0.21730  Biso   1.000  N
  N4       1.0000 0.22320  0.39830  0.28270  Biso   1.000  N
  N5       1.0000 0.72320  0.10170  0.78270  Biso   1.000  N
  N6       1.0000 0.27680  0.10170  0.71730  Biso   1.000  N
  N7       1.0000 0.22320  0.60170  0.78270  Biso   1.000  N
  N8       1.0000 0.77680  0.60170  0.71730  Biso   1.000  N
  C177     1.0000 0.23290  0.80580  0.08910  Biso   1.000  C
  C178     1.0000 0.76710  0.80580  0.41090  Biso   1.000  C
  C179     1.0000 0.73290  0.30580  0.08910  Biso   1.000  C
  C180     1.0000 0.26710  0.30580  0.41090  Biso   1.000  C
  C181     1.0000 0.76710  0.19420  0.91090  Biso   1.000  C
  C182     1.0000 0.23290  0.19420  0.58910  Biso   1.000  C
  C183     1.0000 0.26710  0.69420  0.91090  Biso   1.000  C
  C184     1.0000 0.73290  0.69420  0.58910  Biso   1.000  C
  H121     1.0000 0.21080  0.74140  0.10240  Biso   1.000  H
  H122     1.0000 0.78920  0.74140  0.39760  Biso   1.000  H
  H123     1.0000 0.71080  0.24140  0.10240  Biso   1.000  H
  H124     1.0000 0.28920  0.24140  0.39760  Biso   1.000  H
  H125     1.0000 0.78920  0.25860  0.89760  Biso   1.000  H
  H126     1.0000 0.21080  0.25860  0.60240  Biso   1.000  H
  H127     1.0000 0.28920  0.75860  0.89760  Biso   1.000  H
  H128     1.0000 0.71080  0.75860  0.60240  Biso   1.000  H
  H129     1.0000 0.26480  0.76320  0.09130  Biso   1.000  H
  H130     1.0000 0.73520  0.76320  0.40870  Biso   1.000  H
  H131     1.0000 0.76480  0.26320  0.09130  Biso   1.000  H
  H132     1.0000 0.23520  0.26320  0.40870  Biso   1.000  H
  H133     1.0000 0.73520  0.23680  0.90870  Biso   1.000  H
  H134     1.0000 0.26480  0.23680  0.59130  Biso   1.000  H
  H135     1.0000 0.23520  0.73680  0.90870  Biso   1.000  H
  H136     1.0000 0.76480  0.73680  0.59130  Biso   1.000  H
  H137     1.0000 0.21660  0.83950  0.03640  Biso   1.000  H
  H138     1.0000 0.78340  0.83950  0.46360  Biso   1.000  H
  H139     1.0000 0.71660  0.33950  0.03640  Biso   1.000  H
  H140     1.0000 0.28340  0.33950  0.46360  Biso   1.000  H
  H141     1.0000 0.78340  0.16050  0.96360  Biso   1.000  H
  H142     1.0000 0.21660  0.16050  0.53640  Biso   1.000  H
  H143     1.0000 0.28340  0.66050  0.96360  Biso   1.000  H
  H144     1.0000 0.71660  0.66050  0.53640  Biso   1.000  H
  C185     1.0000 0.30620  0.77910  0.24710  Biso   1.000  C
  C186     1.0000 0.69380  0.77910  0.25290  Biso   1.000  C
  C187     1.0000 0.80620  0.27910  0.24710  Biso   1.000  C
  C188     1.0000 0.19380  0.27910  0.25290  Biso   1.000  C
  C189     1.0000 0.69380  0.22090  0.75290  Biso   1.000  C
  C190     1.0000 0.30620  0.22090  0.74710  Biso   1.000  C
  C191     1.0000 0.19380  0.72090  0.75290  Biso   1.000  C
  C192     1.0000 0.80620  0.72090  0.74710  Biso   1.000  C
  H145     1.0000 0.34210  0.79770  0.25720  Biso   1.000  H
  H146     1.0000 0.65790  0.79770  0.24280  Biso   1.000  H
  H147     1.0000 0.84210  0.29770  0.25720  Biso   1.000  H
  H148     1.0000 0.15790  0.29770  0.24280  Biso   1.000  H
  H149     1.0000 0.65790  0.20230  0.74280  Biso   1.000  H
  H150     1.0000 0.34210  0.20230  0.75720  Biso   1.000  H
  H151     1.0000 0.15790  0.70230  0.74280  Biso   1.000  H
  H152     1.0000 0.84210  0.70230  0.75720  Biso   1.000  H
  H153     1.0000 0.29570  0.70840  0.20840  Biso   1.000  H
  H154     1.0000 0.70430  0.70840  0.29160  Biso   1.000  H
  H155     1.0000 0.79570  0.20840  0.20840  Biso   1.000  H
  H156     1.0000 0.20430  0.20840  0.29160  Biso   1.000  H
  H157     1.0000 0.70430  0.29160  0.79160  Biso   1.000  H
  H158     1.0000 0.29570  0.29160  0.70840  Biso   1.000  H
  H159     1.0000 0.20430  0.79160  0.79160  Biso   1.000  H
  H160     1.0000 0.79570  0.79160  0.70840  Biso   1.000  H
  H161     1.0000 0.30050  0.75150  0.29550  Biso   1.000  H
  H162     1.0000 0.69950  0.75150  0.20450  Biso   1.000  H
  H163     1.0000 0.80050  0.25150  0.29550  Biso   1.000  H
  H164     1.0000 0.19950  0.25150  0.20450  Biso   1.000  H
  H165     1.0000 0.69950  0.24850  0.70450  Biso   1.000  H
  H166     1.0000 0.30050  0.24850  0.79550  Biso   1.000  H
  H167     1.0000 0.19950  0.74850  0.70450  Biso   1.000  H
  H168     1.0000 0.80050  0.74850  0.79550  Biso   1.000  H
