data_image0
_cell_length_a       17.182
_cell_length_b       6.677
_cell_length_c       8.095
_cell_angle_alpha    90
_cell_angle_beta     90.247
_cell_angle_gamma    90

_symmetry_space_group_name_H-M    "P 1"
_symmetry_int_tables_number       1

loop_
  _symmetry_equiv_pos_as_xyz
  'x, y, z'

loop_
  _atom_site_label
  _atom_site_occupancy
  _atom_site_fract_x
  _atom_site_fract_y
  _atom_site_fract_z
  _atom_site_thermal_displace_type
  _atom_site_B_iso_or_equiv
  _atom_site_type_symbol
  O1       1.0000 0.72460  0.22460  0.92960  Biso   1.000  O
  O2       1.0000 0.27540  0.72460  0.57040  Biso   1.000  O
  O3       1.0000 0.27540  0.77540  0.07040  Biso   1.000  O
  O4       1.0000 0.72460  0.27540  0.42960  Biso   1.000  O
  O5       1.0000 0.64920  0.76120  0.30870  Biso   1.000  O
  O6       1.0000 0.35080  0.26120  0.19130  Biso   1.000  O
  O7       1.0000 0.35080  0.23880  0.69130  Biso   1.000  O
  O8       1.0000 0.64920  0.73880  0.80870  Biso   1.000  O
  O9       1.0000 0.65860  0.12190  0.14840  Biso   1.000  O
  O10      1.0000 0.34140  0.62190  0.35160  Biso   1.000  O
  O11      1.0000 0.34140  0.87810  0.85160  Biso   1.000  O
  O12      1.0000 0.65860  0.37810  0.64840  Biso   1.000  O
  C1       1.0000 0.71500  0.11250  0.05250  Biso   1.000  C
  C2       1.0000 0.28500  0.61250  0.44750  Biso   1.000  C
  C3       1.0000 0.28500  0.88750  0.94750  Biso   1.000  C
  C4       1.0000 0.71500  0.38750  0.55250  Biso   1.000  C
  Cu1      1.0000 0.66111  0.45932  0.87917  Biso   1.000  Cu
  Cu2      1.0000 0.33889  0.95932  0.62083  Biso   1.000  Cu
  Cu3      1.0000 0.33889  0.54068  0.12083  Biso   1.000  Cu
  Cu4      1.0000 0.66111  0.04068  0.37917  Biso   1.000  Cu
  C5       1.0000 0.77760  0.95840  0.08030  Biso   1.000  C
  C6       1.0000 0.22240  0.45840  0.41970  Biso   1.000  C
  C7       1.0000 0.22240  0.04160  0.91970  Biso   1.000  C
  C8       1.0000 0.77760  0.54160  0.58030  Biso   1.000  C
  C9       1.0000 0.85330  0.00810  0.04060  Biso   1.000  C
  C10      1.0000 0.14670  0.50810  0.45940  Biso   1.000  C
  C11      1.0000 0.14670  0.99190  0.95940  Biso   1.000  C
  C12      1.0000 0.85330  0.49190  0.54060  Biso   1.000  C
  H1       1.0000 0.86410  0.13600  0.00150  Biso   1.000  H
  H2       1.0000 0.13590  0.63600  0.49850  Biso   1.000  H
  H3       1.0000 0.13590  0.86400  0.99850  Biso   1.000  H
  H4       1.0000 0.86410  0.36400  0.50150  Biso   1.000  H
  C13      1.0000 0.76140  0.76150  0.13430  Biso   1.000  C
  C14      1.0000 0.23860  0.26150  0.36570  Biso   1.000  C
  C15      1.0000 0.23860  0.23850  0.86570  Biso   1.000  C
  C16      1.0000 0.76140  0.73850  0.63430  Biso   1.000  C
  C17      1.0000 0.82080  0.62160  0.14220  Biso   1.000  C
  C18      1.0000 0.17920  0.12160  0.35780  Biso   1.000  C
  C19      1.0000 0.17920  0.37840  0.85780  Biso   1.000  C
  C20      1.0000 0.82080  0.87840  0.64220  Biso   1.000  C
  H5       1.0000 0.80960  0.49010  0.17160  Biso   1.000  H
  H6       1.0000 0.19040  0.99010  0.32840  Biso   1.000  H
  H7       1.0000 0.19040  0.50990  0.82840  Biso   1.000  H
  H8       1.0000 0.80960  0.00990  0.67160  Biso   1.000  H
  C21      1.0000 0.68070  0.68840  0.18270  Biso   1.000  C
  C22      1.0000 0.31930  0.18840  0.31730  Biso   1.000  C
  C23      1.0000 0.31930  0.31160  0.81730  Biso   1.000  C
  C24      1.0000 0.68070  0.81160  0.68270  Biso   1.000  C
  O13      1.0000 0.65030  0.54610  0.10510  Biso   1.000  O
  O14      1.0000 0.34970  0.04610  0.39490  Biso   1.000  O
  O15      1.0000 0.34970  0.45390  0.89490  Biso   1.000  O
  O16      1.0000 0.65030  0.95390  0.60510  Biso   1.000  O
  C25      1.0000 0.91250  0.87280  0.05780  Biso   1.000  C
  C26      1.0000 0.08750  0.37280  0.44220  Biso   1.000  C
  C27      1.0000 0.08750  0.12720  0.94220  Biso   1.000  C
  C28      1.0000 0.91250  0.62720  0.55780  Biso   1.000  C
  N1       1.0000 0.99320  0.91380  0.02560  Biso   1.000  N
  N2       1.0000 0.00680  0.41380  0.47440  Biso   1.000  N
  N3       1.0000 0.00680  0.08620  0.97440  Biso   1.000  N
  N4       1.0000 0.99320  0.58620  0.52560  Biso   1.000  N
  C29      1.0000 0.89520  0.67520  0.10730  Biso   1.000  C
  C30      1.0000 0.10480  0.17520  0.39270  Biso   1.000  C
  C31      1.0000 0.10480  0.32480  0.89270  Biso   1.000  C
  C32      1.0000 0.89520  0.82480  0.60730  Biso   1.000  C
  H9       1.0000 0.93490  0.58120  0.11620  Biso   1.000  H
  H10      1.0000 0.06510  0.08120  0.38380  Biso   1.000  H
  H11      1.0000 0.06510  0.41880  0.88380  Biso   1.000  H
  H12      1.0000 0.93490  0.91880  0.61620  Biso   1.000  H
  O17      1.0000 0.53710  0.36720  0.88790  Biso   1.000  O
  O18      1.0000 0.46290  0.86720  0.61210  Biso   1.000  O
  O19      1.0000 0.46290  0.63280  0.11210  Biso   1.000  O
  O20      1.0000 0.53710  0.13280  0.38790  Biso   1.000  O
  H13      1.0000 0.51920  0.41680  0.80030  Biso   1.000  H
  H14      1.0000 0.48080  0.91680  0.69970  Biso   1.000  H
  H15      1.0000 0.48080  0.58320  0.19970  Biso   1.000  H
  H16      1.0000 0.51920  0.08320  0.30030  Biso   1.000  H
  H17      1.0000 0.51420  0.41290  0.97120  Biso   1.000  H
  H18      1.0000 0.48580  0.91290  0.52880  Biso   1.000  H
  H19      1.0000 0.48580  0.58710  0.02880  Biso   1.000  H
  H20      1.0000 0.51420  0.08710  0.47120  Biso   1.000  H
  O21      1.0000 0.48120  0.45150  0.58000  Biso   1.000  O
  O22      1.0000 0.51880  0.95150  0.92000  Biso   1.000  O
  O23      1.0000 0.51880  0.54850  0.42000  Biso   1.000  O
  O24      1.0000 0.48120  0.04850  0.08000  Biso   1.000  O
  H21      1.0000 0.44380  0.38610  0.61900  Biso   1.000  H
  H22      1.0000 0.55620  0.88610  0.88100  Biso   1.000  H
  H23      1.0000 0.55620  0.61390  0.38100  Biso   1.000  H
  H24      1.0000 0.44380  0.11390  0.11900  Biso   1.000  H
  H25      1.0000 0.47410  0.57550  0.58950  Biso   1.000  H
  H26      1.0000 0.52590  0.07550  0.91050  Biso   1.000  H
  H27      1.0000 0.52590  0.42450  0.41050  Biso   1.000  H
  H28      1.0000 0.47410  0.92450  0.08950  Biso   1.000  H
