data_image0
_cell_length_a       10.988
_cell_length_b       11.121
_cell_length_c       11.2
_cell_angle_alpha    110.64
_cell_angle_beta     110.51
_cell_angle_gamma    95.42

_symmetry_space_group_name_H-M    "P 1"
_symmetry_int_tables_number       1

loop_
  _symmetry_equiv_pos_as_xyz
  'x, y, z'

loop_
  _atom_site_label
  _atom_site_occupancy
  _atom_site_fract_x
  _atom_site_fract_y
  _atom_site_fract_z
  _atom_site_thermal_displace_type
  _atom_site_B_iso_or_equiv
  _atom_site_type_symbol
  Cu1      1.0000 0.70365  0.69393  0.54339  Biso   1.000  Cu
  Cu2      1.0000 0.29635  0.30607  0.45661  Biso   1.000  Cu
  N1       1.0000 0.75370  0.52340  0.53510  Biso   1.000  N
  N2       1.0000 0.24630  0.47660  0.46490  Biso   1.000  N
  N3       1.0000 0.90000  0.77070  0.67160  Biso   1.000  N
  N4       1.0000 0.10000  0.22930  0.32840  Biso   1.000  N
  C1       1.0000 0.67530  0.40160  0.46620  Biso   1.000  C
  C2       1.0000 0.32470  0.59840  0.53380  Biso   1.000  C
  H1       1.0000 0.58360  0.38900  0.41820  Biso   1.000  H
  H2       1.0000 0.41640  0.61100  0.58180  Biso   1.000  H
  C3       1.0000 0.72750  0.29130  0.46410  Biso   1.000  C
  C4       1.0000 0.27250  0.70870  0.53590  Biso   1.000  C
  H3       1.0000 0.67080  0.20640  0.41430  Biso   1.000  H
  H4       1.0000 0.32920  0.79360  0.58570  Biso   1.000  H
  C5       1.0000 0.86130  0.30820  0.53490  Biso   1.000  C
  C6       1.0000 0.13870  0.69180  0.46510  Biso   1.000  C
  H5       1.0000 0.89590  0.23460  0.53280  Biso   1.000  H
  H6       1.0000 0.10410  0.76540  0.46720  Biso   1.000  H
  C7       1.0000 0.94700  0.43540  0.61070  Biso   1.000  C
  C8       1.0000 0.05300  0.56460  0.38930  Biso   1.000  C
  C9       1.0000 0.08910  0.46620  0.68740  Biso   1.000  C
  C10      1.0000 0.91090  0.53380  0.31260  Biso   1.000  C
  H7       1.0000 0.13070  0.39740  0.68880  Biso   1.000  H
  H8       1.0000 0.86930  0.60260  0.31120  Biso   1.000  H
  C11      1.0000 0.16450  0.59300  0.75810  Biso   1.000  C
  C12      1.0000 0.83550  0.40700  0.24190  Biso   1.000  C
  H9       1.0000 0.25640  0.60920  0.80840  Biso   1.000  H
  H10      1.0000 0.74360  0.39080  0.19160  Biso   1.000  H
  C13      1.0000 0.10550  0.70330  0.75730  Biso   1.000  C
  C14      1.0000 0.89450  0.29670  0.24270  Biso   1.000  C
  C15      1.0000 0.17630  0.83640  0.82720  Biso   1.000  C
  C16      1.0000 0.82370  0.16360  0.17280  Biso   1.000  C
  H11      1.0000 0.26880  0.85980  0.87830  Biso   1.000  H
  H12      1.0000 0.73120  0.14020  0.12170  Biso   1.000  H
  C17      1.0000 0.10820  0.93200  0.81960  Biso   1.000  C
  C18      1.0000 0.89180  0.06800  0.18040  Biso   1.000  C
  H13      1.0000 0.15370  0.02120  0.86730  Biso   1.000  H
  H14      1.0000 0.84630  0.97880  0.13270  Biso   1.000  H
  C19      1.0000 0.97270  0.89550  0.74140  Biso   1.000  C
  C20      1.0000 0.02730  0.10450  0.25860  Biso   1.000  C
  H15      1.0000 0.92870  0.96220  0.73670  Biso   1.000  H
  H16      1.0000 0.07130  0.03780  0.26330  Biso   1.000  H
  C21      1.0000 0.96680  0.67520  0.68100  Biso   1.000  C
  C22      1.0000 0.03320  0.32480  0.31900  Biso   1.000  C
  C23      1.0000 0.88710  0.54220  0.60780  Biso   1.000  C
  C24      1.0000 0.11290  0.45780  0.39220  Biso   1.000  C
  C25      1.0000 0.53700  0.59380  0.28250  Biso   1.000  C
  C26      1.0000 0.46300  0.40620  0.71750  Biso   1.000  C
  C27      1.0000 0.41650  0.52230  0.14510  Biso   1.000  C
  C28      1.0000 0.58350  0.47770  0.85490  Biso   1.000  C
  H17      1.0000 0.44280  0.45630  0.08180  Biso   1.000  H
  H18      1.0000 0.55720  0.54370  0.91820  Biso   1.000  H
  H19      1.0000 0.39220  0.58590  0.10550  Biso   1.000  H
  H20      1.0000 0.60780  0.41410  0.89450  Biso   1.000  H
  C29      1.0000 0.29310  0.45390  0.14800  Biso   1.000  C
  C30      1.0000 0.70690  0.54610  0.85200  Biso   1.000  C
  H21      1.0000 0.27000  0.51690  0.21700  Biso   1.000  H
  H22      1.0000 0.73000  0.48310  0.78300  Biso   1.000  H
  H23      1.0000 0.31290  0.38280  0.17680  Biso   1.000  H
  H24      1.0000 0.68710  0.61720  0.82320  Biso   1.000  H
  C31      1.0000 0.17380  0.39730  0.00710  Biso   1.000  C
  C32      1.0000 0.82620  0.60270  0.99290  Biso   1.000  C
  H25      1.0000 0.19940  0.33830  0.93770  Biso   1.000  H
  H26      1.0000 0.80060  0.66170  0.06230  Biso   1.000  H
  H27      1.0000 0.15250  0.46960  0.98080  Biso   1.000  H
  H28      1.0000 0.84750  0.53040  0.01920  Biso   1.000  H
  C33      1.0000 0.04860  0.32180  0.00220  Biso   1.000  C
  C34      1.0000 0.95140  0.67820  0.99780  Biso   1.000  C
  H29      1.0000 0.06850  0.24720  0.02460  Biso   1.000  H
  H30      1.0000 0.93150  0.75280  0.97540  Biso   1.000  H
  H31      1.0000 0.02440  0.37950  0.07360  Biso   1.000  H
  H32      1.0000 0.97560  0.62050  0.92640  Biso   1.000  H
  C35      1.0000 0.93050  0.27100  0.86290  Biso   1.000  C
  C36      1.0000 0.06950  0.72900  0.13710  Biso   1.000  C
  H33      1.0000 0.95630  0.21680  0.79110  Biso   1.000  H
  H34      1.0000 0.04370  0.78320  0.20890  Biso   1.000  H
  H35      1.0000 0.90830  0.34610  0.84270  Biso   1.000  H
  H36      1.0000 0.09170  0.65390  0.15730  Biso   1.000  H
  C37      1.0000 0.80610  0.18990  0.85410  Biso   1.000  C
  C38      1.0000 0.19390  0.81010  0.14590  Biso   1.000  C
  H37      1.0000 0.82810  0.11380  0.87210  Biso   1.000  H
  H38      1.0000 0.17190  0.88620  0.12790  Biso   1.000  H
  H39      1.0000 0.78250  0.24350  0.92810  Biso   1.000  H
  H40      1.0000 0.21750  0.75650  0.07190  Biso   1.000  H
  C39      1.0000 0.68450  0.14090  0.71690  Biso   1.000  C
  C40      1.0000 0.31550  0.85910  0.28310  Biso   1.000  C
  H41      1.0000 0.71300  0.11050  0.64080  Biso   1.000  H
  H42      1.0000 0.28700  0.88950  0.35920  Biso   1.000  H
  H43      1.0000 0.64510  0.21430  0.71190  Biso   1.000  H
  H44      1.0000 0.35490  0.78570  0.28810  Biso   1.000  H
  C41      1.0000 0.57880  0.02950  0.69650  Biso   1.000  C
  C42      1.0000 0.42120  0.97050  0.30350  Biso   1.000  C
  H45      1.0000 0.49600  0.01750  0.61900  Biso   1.000  H
  H46      1.0000 0.50400  0.98250  0.38100  Biso   1.000  H
  H47      1.0000 0.56160  0.05290  0.78000  Biso   1.000  H
  H48      1.0000 0.43840  0.94710  0.22000  Biso   1.000  H
  C43      1.0000 0.62250  0.90010  0.66670  Biso   1.000  C
  C44      1.0000 0.37750  0.09990  0.33330  Biso   1.000  C
  O1       1.0000 0.52500  0.60100  0.39430  Biso   1.000  O
  O2       1.0000 0.47500  0.39900  0.60570  Biso   1.000  O
  O3       1.0000 0.64460  0.64240  0.28520  Biso   1.000  O
  O4       1.0000 0.35540  0.35760  0.71480  Biso   1.000  O
  O5       1.0000 0.67160  0.86990  0.57710  Biso   1.000  O
  O6       1.0000 0.32840  0.13010  0.42290  Biso   1.000  O
  O7       1.0000 0.60880  0.82810  0.72610  Biso   1.000  O
  O8       1.0000 0.39120  0.17190  0.27390  Biso   1.000  O
  O9       1.0000 0.67140  0.82880  0.17550  Biso   1.000  O
  O10      1.0000 0.32860  0.17120  0.82450  Biso   1.000  O
  O11      1.0000 0.52080  0.87500  0.94600  Biso   1.000  O
  O12      1.0000 0.47920  0.12500  0.05400  Biso   1.000  O
  O13      1.0000 0.85850  0.98300  0.45440  Biso   1.000  O
  O14      1.0000 0.14150  0.01700  0.54560  Biso   1.000  O
  H49      1.0000 0.64010  0.75450  0.18530  Biso   1.000  H
  H50      1.0000 0.35990  0.24550  0.81470  Biso   1.000  H
  H51      1.0000 0.72650  0.87480  0.25970  Biso   1.000  H
  H52      1.0000 0.27350  0.12520  0.74030  Biso   1.000  H
  H53      1.0000 0.58220  0.86010  0.00030  Biso   1.000  H
  H54      1.0000 0.41780  0.13990  0.99970  Biso   1.000  H
  H55      1.0000 0.55050  0.85810  0.87950  Biso   1.000  H
  H56      1.0000 0.44950  0.14190  0.12050  Biso   1.000  H
  H57      1.0000 0.78440  0.97930  0.38570  Biso   1.000  H
  H58      1.0000 0.21560  0.02070  0.61430  Biso   1.000  H
  H59      1.0000 0.83770  0.92440  0.47610  Biso   1.000  H
  H60      1.0000 0.16230  0.07560  0.52390  Biso   1.000  H
