data_image0
_cell_length_a       6.6132
_cell_length_b       16.7375
_cell_length_c       11.7077
_cell_angle_alpha    90
_cell_angle_beta     95.212
_cell_angle_gamma    90

_symmetry_space_group_name_H-M    "P 1"
_symmetry_int_tables_number       1

loop_
  _symmetry_equiv_pos_as_xyz
  'x, y, z'

loop_
  _atom_site_label
  _atom_site_occupancy
  _atom_site_fract_x
  _atom_site_fract_y
  _atom_site_fract_z
  _atom_site_thermal_displace_type
  _atom_site_B_iso_or_equiv
  _atom_site_type_symbol
  Cu1      1.0000 0.00000  0.50000  0.50000  Biso   1.000  Cu
  Cu2      1.0000 0.50000  0.00000  0.00000  Biso   1.000  Cu
  Cu3      1.0000 0.50000  0.50000  0.50000  Biso   1.000  Cu
  Cu4      1.0000 0.00000  0.00000  0.00000  Biso   1.000  Cu
  S1       1.0000 0.43959  0.26082  0.28673  Biso   1.000  S
  S2       1.0000 0.06041  0.76082  0.21327  Biso   1.000  S
  S3       1.0000 0.56041  0.73918  0.71327  Biso   1.000  S
  S4       1.0000 0.93959  0.23918  0.78673  Biso   1.000  S
  O1       1.0000 0.05960  0.41266  0.39919  Biso   1.000  O
  O2       1.0000 0.44040  0.91266  0.10081  Biso   1.000  O
  O3       1.0000 0.94040  0.58734  0.60081  Biso   1.000  O
  O4       1.0000 0.55960  0.08734  0.89919  Biso   1.000  O
  O5       1.0000 0.40040  0.40231  0.42600  Biso   1.000  O
  O6       1.0000 0.09960  0.90231  0.07400  Biso   1.000  O
  O7       1.0000 0.59960  0.59769  0.57400  Biso   1.000  O
  O8       1.0000 0.90040  0.09769  0.92600  Biso   1.000  O
  O9       1.0000 0.34140  0.07508  0.08757  Biso   1.000  O
  O10      1.0000 0.15860  0.57508  0.41243  Biso   1.000  O
  O11      1.0000 0.65860  0.92492  0.91243  Biso   1.000  O
  O12      1.0000 0.84140  0.42492  0.58757  Biso   1.000  O
  O13      1.0000 0.62220  0.13810  0.16210  Biso   1.000  O
  O14      1.0000 0.87780  0.63810  0.33790  Biso   1.000  O
  O15      1.0000 0.37780  0.86190  0.83790  Biso   1.000  O
  O16      1.0000 0.12220  0.36190  0.66210  Biso   1.000  O
  O17      1.0000 0.33340  0.48493  0.62445  Biso   1.000  O
  O18      1.0000 0.16660  0.98493  0.87555  Biso   1.000  O
  O19      1.0000 0.66660  0.51507  0.37555  Biso   1.000  O
  O20      1.0000 0.83340  0.01507  0.12445  Biso   1.000  O
  H1       1.0000 0.28400  0.44060  0.63400  Biso   1.000  H
  H2       1.0000 0.21600  0.94060  0.86600  Biso   1.000  H
  H3       1.0000 0.71600  0.55940  0.36600  Biso   1.000  H
  H4       1.0000 0.78400  0.05940  0.13400  Biso   1.000  H
  H5       1.0000 0.36100  0.51080  0.68340  Biso   1.000  H
  H6       1.0000 0.13900  0.01080  0.81660  Biso   1.000  H
  H7       1.0000 0.63900  0.48920  0.31660  Biso   1.000  H
  H8       1.0000 0.86100  0.98920  0.18340  Biso   1.000  H
  C1       1.0000 0.22640  0.38106  0.38390  Biso   1.000  C
  C2       1.0000 0.27360  0.88106  0.11610  Biso   1.000  C
  C3       1.0000 0.77360  0.61894  0.61610  Biso   1.000  C
  C4       1.0000 0.72640  0.11894  0.88390  Biso   1.000  C
  C5       1.0000 0.21960  0.31027  0.30740  Biso   1.000  C
  C6       1.0000 0.28040  0.81027  0.19260  Biso   1.000  C
  C7       1.0000 0.78040  0.68973  0.69260  Biso   1.000  C
  C8       1.0000 0.71960  0.18973  0.80740  Biso   1.000  C
  C9       1.0000 0.05540  0.27659  0.24600  Biso   1.000  C
  C10      1.0000 0.44460  0.77659  0.25400  Biso   1.000  C
  C11      1.0000 0.94460  0.72341  0.75400  Biso   1.000  C
  C12      1.0000 0.55540  0.22341  0.74600  Biso   1.000  C
  H9       1.0000 0.92342  0.29575  0.24642  Biso   1.000  H
  H10      1.0000 0.57658  0.79575  0.25358  Biso   1.000  H
  H11      1.0000 0.07658  0.70425  0.75358  Biso   1.000  H
  H12      1.0000 0.42342  0.20425  0.74642  Biso   1.000  H
  C13      1.0000 0.10830  0.20963  0.18200  Biso   1.000  C
  C14      1.0000 0.39170  0.70963  0.31800  Biso   1.000  C
  C15      1.0000 0.89170  0.79037  0.81800  Biso   1.000  C
  C16      1.0000 0.60830  0.29037  0.68200  Biso   1.000  C
  H13      1.0000 0.01539  0.17969  0.13544  Biso   1.000  H
  H14      1.0000 0.48461  0.67969  0.36456  Biso   1.000  H
  H15      1.0000 0.98461  0.82031  0.86456  Biso   1.000  H
  H16      1.0000 0.51539  0.32031  0.63544  Biso   1.000  H
  C17      1.0000 0.31140  0.19375  0.19620  Biso   1.000  C
  C18      1.0000 0.18860  0.69375  0.30380  Biso   1.000  C
  C19      1.0000 0.68860  0.80625  0.80380  Biso   1.000  C
  C20      1.0000 0.81140  0.30625  0.69620  Biso   1.000  C
  C21      1.0000 0.43430  0.13086  0.14440  Biso   1.000  C
  C22      1.0000 0.06570  0.63086  0.35560  Biso   1.000  C
  C23      1.0000 0.56570  0.86914  0.85560  Biso   1.000  C
  C24      1.0000 0.93430  0.36914  0.64440  Biso   1.000  C
  O21      1.0000 0.37230  0.55710  0.82410  Biso   1.000  O
  O22      1.0000 0.12770  0.05710  0.67590  Biso   1.000  O
  O23      1.0000 0.62770  0.44290  0.17590  Biso   1.000  O
  O24      1.0000 0.87230  0.94290  0.32410  Biso   1.000  O
  N1       1.0000 0.55110  0.61670  0.96640  Biso   1.000  N
  N2       1.0000 0.94890  0.11670  0.53360  Biso   1.000  N
  N3       1.0000 0.44890  0.38330  0.03360  Biso   1.000  N
  N4       1.0000 0.05110  0.88330  0.46640  Biso   1.000  N
  C25      1.0000 0.53740  0.56660  0.88590  Biso   1.000  C
  C26      1.0000 0.96260  0.06660  0.61410  Biso   1.000  C
  C27      1.0000 0.46260  0.43340  0.11410  Biso   1.000  C
  C28      1.0000 0.03740  0.93340  0.38590  Biso   1.000  C
  C29      1.0000 0.72490  0.51590  0.86680  Biso   1.000  C
  C30      1.0000 0.77510  0.01590  0.63320  Biso   1.000  C
  C31      1.0000 0.27510  0.48410  0.13320  Biso   1.000  C
  C32      1.0000 0.22490  0.98410  0.36680  Biso   1.000  C
  H17      1.0000 0.77128  0.48908  0.93684  Biso   1.000  H
  H18      1.0000 0.72872  0.98908  0.56316  Biso   1.000  H
  H19      1.0000 0.22872  0.51092  0.06316  Biso   1.000  H
  H20      1.0000 0.27128  0.01092  0.43684  Biso   1.000  H
  H21      1.0000 0.83082  0.54985  0.84367  Biso   1.000  H
  H22      1.0000 0.66918  0.04985  0.65633  Biso   1.000  H
  H23      1.0000 0.16918  0.45015  0.15633  Biso   1.000  H
  H24      1.0000 0.33082  0.95015  0.34367  Biso   1.000  H
  H25      1.0000 0.68989  0.47703  0.80802  Biso   1.000  H
  H26      1.0000 0.81011  0.97703  0.69198  Biso   1.000  H
  H27      1.0000 0.31011  0.52297  0.19198  Biso   1.000  H
  H28      1.0000 0.18989  0.02297  0.30802  Biso   1.000  H
  C33      1.0000 0.36920  0.66720  0.98340  Biso   1.000  C
  C34      1.0000 0.13080  0.16720  0.51660  Biso   1.000  C
  C35      1.0000 0.63080  0.33280  0.01660  Biso   1.000  C
  C36      1.0000 0.86920  0.83280  0.48340  Biso   1.000  C
  H29      1.0000 0.25318  0.64663  0.93744  Biso   1.000  H
  H30      1.0000 0.24682  0.14663  0.56256  Biso   1.000  H
  H31      1.0000 0.74682  0.35337  0.06256  Biso   1.000  H
  H32      1.0000 0.75318  0.85337  0.43744  Biso   1.000  H
  H33      1.0000 0.39429  0.72122  0.96081  Biso   1.000  H
  H34      1.0000 0.10571  0.22122  0.53919  Biso   1.000  H
  H35      1.0000 0.60571  0.27878  0.03919  Biso   1.000  H
  H36      1.0000 0.89429  0.77878  0.46081  Biso   1.000  H
  H37      1.0000 0.34351  0.66621  0.06275  Biso   1.000  H
  H38      1.0000 0.15649  0.16621  0.43725  Biso   1.000  H
  H39      1.0000 0.65649  0.33379  0.93725  Biso   1.000  H
  H40      1.0000 0.84351  0.83379  0.56275  Biso   1.000  H
  C37      1.0000 0.73740  0.63200  0.04110  Biso   1.000  C
  C38      1.0000 0.76260  0.13200  0.45890  Biso   1.000  C
  C39      1.0000 0.26260  0.36800  0.95890  Biso   1.000  C
  C40      1.0000 0.23740  0.86800  0.54110  Biso   1.000  C
  H41      1.0000 0.84789  0.60273  0.01345  Biso   1.000  H
  H42      1.0000 0.65211  0.10273  0.48655  Biso   1.000  H
  H43      1.0000 0.15211  0.39727  0.98655  Biso   1.000  H
  H44      1.0000 0.34789  0.89727  0.51345  Biso   1.000  H
  H45      1.0000 0.71859  0.61517  0.11782  Biso   1.000  H
  H46      1.0000 0.78141  0.11517  0.38218  Biso   1.000  H
  H47      1.0000 0.28141  0.38483  0.88218  Biso   1.000  H
  H48      1.0000 0.21859  0.88483  0.61782  Biso   1.000  H
  H49      1.0000 0.76773  0.68810  0.04100  Biso   1.000  H
  H50      1.0000 0.73227  0.18810  0.45900  Biso   1.000  H
  H51      1.0000 0.23227  0.31190  0.95900  Biso   1.000  H
  H52      1.0000 0.26773  0.81190  0.54100  Biso   1.000  H
