data_image0
_cell_length_a       6.5886
_cell_length_b       16.7607
_cell_length_c       11.7157
_cell_angle_alpha    90
_cell_angle_beta     95.644
_cell_angle_gamma    90

_symmetry_space_group_name_H-M    "P 1"
_symmetry_int_tables_number       1

loop_
  _symmetry_equiv_pos_as_xyz
  'x, y, z'

loop_
  _atom_site_label
  _atom_site_occupancy
  _atom_site_fract_x
  _atom_site_fract_y
  _atom_site_fract_z
  _atom_site_thermal_displace_type
  _atom_site_B_iso_or_equiv
  _atom_site_type_symbol
  Cu1      1.0000 0.00000  0.50000  0.00000  Biso   1.000  Cu
  Cu2      1.0000 0.50000  0.00000  0.50000  Biso   1.000  Cu
  Cu3      1.0000 0.00000  0.00000  0.50000  Biso   1.000  Cu
  Cu4      1.0000 0.50000  0.50000  0.00000  Biso   1.000  Cu
  C1       1.0000 0.06680  0.63179  0.85570  Biso   1.000  C
  C2       1.0000 0.43320  0.13179  0.64430  Biso   1.000  C
  C3       1.0000 0.93320  0.36821  0.14430  Biso   1.000  C
  C4       1.0000 0.56680  0.86821  0.35570  Biso   1.000  C
  C5       1.0000 0.18970  0.69393  0.80460  Biso   1.000  C
  C6       1.0000 0.31030  0.19393  0.69540  Biso   1.000  C
  C7       1.0000 0.81030  0.30607  0.19540  Biso   1.000  C
  C8       1.0000 0.68970  0.80607  0.30460  Biso   1.000  C
  C9       1.0000 0.39460  0.70894  0.81790  Biso   1.000  C
  C10      1.0000 0.10540  0.20894  0.68210  Biso   1.000  C
  C11      1.0000 0.60540  0.29106  0.18210  Biso   1.000  C
  C12      1.0000 0.89460  0.79106  0.31790  Biso   1.000  C
  H1       1.0000 0.48810  0.67870  0.86410  Biso   1.000  H
  H2       1.0000 0.01190  0.17870  0.63590  Biso   1.000  H
  H3       1.0000 0.51190  0.32130  0.13590  Biso   1.000  H
  H4       1.0000 0.98810  0.82130  0.36410  Biso   1.000  H
  C13      1.0000 0.44830  0.77540  0.75370  Biso   1.000  C
  C14      1.0000 0.05170  0.27540  0.74630  Biso   1.000  C
  C15      1.0000 0.55170  0.22460  0.24630  Biso   1.000  C
  C16      1.0000 0.94830  0.72460  0.25370  Biso   1.000  C
  H5       1.0000 0.58130  0.79370  0.75240  Biso   1.000  H
  H6       1.0000 0.91870  0.29370  0.74760  Biso   1.000  H
  H7       1.0000 0.41870  0.20630  0.24760  Biso   1.000  H
  H8       1.0000 0.08130  0.70630  0.25240  Biso   1.000  H
  C17      1.0000 0.28220  0.81016  0.69310  Biso   1.000  C
  C18      1.0000 0.21780  0.31016  0.80690  Biso   1.000  C
  C19      1.0000 0.71780  0.18984  0.30690  Biso   1.000  C
  C20      1.0000 0.78220  0.68984  0.19310  Biso   1.000  C
  C21      1.0000 0.27430  0.88098  0.61660  Biso   1.000  C
  C22      1.0000 0.22570  0.38098  0.88340  Biso   1.000  C
  C23      1.0000 0.72570  0.11902  0.38340  Biso   1.000  C
  C24      1.0000 0.77430  0.61902  0.11660  Biso   1.000  C
  S1       1.0000 0.06051  0.76143  0.71450  Biso   1.000  S
  S2       1.0000 0.43949  0.26143  0.78550  Biso   1.000  S
  S3       1.0000 0.93949  0.23857  0.28550  Biso   1.000  S
  S4       1.0000 0.56051  0.73857  0.21450  Biso   1.000  S
  O1       1.0000 0.83350  0.01585  0.62413  Biso   1.000  O
  O2       1.0000 0.66650  0.51585  0.87587  Biso   1.000  O
  O3       1.0000 0.16650  0.98415  0.37587  Biso   1.000  O
  O4       1.0000 0.33350  0.48415  0.12413  Biso   1.000  O
  H9       1.0000 0.84580  0.99080  0.68750  Biso   1.000  H
  H10      1.0000 0.65420  0.49080  0.81250  Biso   1.000  H
  H11      1.0000 0.15420  0.00920  0.31250  Biso   1.000  H
  H12      1.0000 0.34580  0.50920  0.18750  Biso   1.000  H
  H13      1.0000 0.78020  0.05900  0.64500  Biso   1.000  H
  H14      1.0000 0.71980  0.55900  0.85500  Biso   1.000  H
  H15      1.0000 0.21980  0.94100  0.35500  Biso   1.000  H
  H16      1.0000 0.28020  0.44100  0.14500  Biso   1.000  H
  O5       1.0000 0.16010  0.57509  0.91220  Biso   1.000  O
  O6       1.0000 0.33990  0.07509  0.58780  Biso   1.000  O
  O7       1.0000 0.83990  0.42491  0.08780  Biso   1.000  O
  O8       1.0000 0.66010  0.92491  0.41220  Biso   1.000  O
  O9       1.0000 0.87820  0.63937  0.83941  Biso   1.000  O
  O10      1.0000 0.62180  0.13937  0.66059  Biso   1.000  O
  O11      1.0000 0.12180  0.36063  0.16059  Biso   1.000  O
  O12      1.0000 0.37820  0.86063  0.33941  Biso   1.000  O
  O13      1.0000 0.44290  0.91237  0.60146  Biso   1.000  O
  O14      1.0000 0.05710  0.41237  0.89854  Biso   1.000  O
  O15      1.0000 0.55710  0.08763  0.39854  Biso   1.000  O
  O16      1.0000 0.94290  0.58763  0.10146  Biso   1.000  O
  O17      1.0000 0.09990  0.90240  0.57475  Biso   1.000  O
  O18      1.0000 0.40010  0.40240  0.92525  Biso   1.000  O
  O19      1.0000 0.90010  0.09760  0.42525  Biso   1.000  O
  O20      1.0000 0.59990  0.59760  0.07475  Biso   1.000  O
  C25      1.0000 0.26200  0.36640  0.45820  Biso   1.000  C
  C26      1.0000 0.23800  0.86640  0.04180  Biso   1.000  C
  C27      1.0000 0.73800  0.63360  0.54180  Biso   1.000  C
  C28      1.0000 0.76200  0.13360  0.95820  Biso   1.000  C
  H17      1.0000 0.15710  0.40270  0.47630  Biso   1.000  H
  H18      1.0000 0.34290  0.90270  0.02370  Biso   1.000  H
  H19      1.0000 0.84290  0.59730  0.52370  Biso   1.000  H
  H20      1.0000 0.65710  0.09730  0.97630  Biso   1.000  H
  H21      1.0000 0.21910  0.31260  0.47080  Biso   1.000  H
  H22      1.0000 0.28090  0.81260  0.02920  Biso   1.000  H
  H23      1.0000 0.78090  0.68740  0.52920  Biso   1.000  H
  H24      1.0000 0.71910  0.18740  0.97080  Biso   1.000  H
  H25      1.0000 0.28650  0.37280  0.37940  Biso   1.000  H
  H26      1.0000 0.21350  0.87280  0.12060  Biso   1.000  H
  H27      1.0000 0.71350  0.62720  0.62060  Biso   1.000  H
  H28      1.0000 0.78650  0.12720  0.87940  Biso   1.000  H
  C29      1.0000 0.63570  0.33350  0.51700  Biso   1.000  C
  C30      1.0000 0.86430  0.83350  0.98300  Biso   1.000  C
  C31      1.0000 0.36430  0.66650  0.48300  Biso   1.000  C
  C32      1.0000 0.13570  0.16650  0.01700  Biso   1.000  C
  H29      1.0000 0.74710  0.35040  0.57060  Biso   1.000  H
  H30      1.0000 0.75290  0.85040  0.92940  Biso   1.000  H
  H31      1.0000 0.25290  0.64960  0.42940  Biso   1.000  H
  H32      1.0000 0.24710  0.14960  0.07060  Biso   1.000  H
  H33      1.0000 0.67240  0.34000  0.44030  Biso   1.000  H
  H34      1.0000 0.82760  0.84000  0.05970  Biso   1.000  H
  H35      1.0000 0.32760  0.66000  0.55970  Biso   1.000  H
  H36      1.0000 0.17240  0.16000  0.94030  Biso   1.000  H
  H37      1.0000 0.60590  0.27840  0.53020  Biso   1.000  H
  H38      1.0000 0.89410  0.77840  0.96980  Biso   1.000  H
  H39      1.0000 0.39410  0.72160  0.46980  Biso   1.000  H
  H40      1.0000 0.10590  0.22160  0.03020  Biso   1.000  H
  C33      1.0000 0.27450  0.48270  0.63280  Biso   1.000  C
  C34      1.0000 0.22550  0.98270  0.86720  Biso   1.000  C
  C35      1.0000 0.72550  0.51730  0.36720  Biso   1.000  C
  C36      1.0000 0.77450  0.01730  0.13280  Biso   1.000  C
  H41      1.0000 0.30390  0.51820  0.69660  Biso   1.000  H
  H42      1.0000 0.19610  0.01820  0.80340  Biso   1.000  H
  H43      1.0000 0.69610  0.48180  0.30340  Biso   1.000  H
  H44      1.0000 0.80390  0.98180  0.19660  Biso   1.000  H
  H45      1.0000 0.16600  0.44720  0.64820  Biso   1.000  H
  H46      1.0000 0.33400  0.94720  0.85180  Biso   1.000  H
  H47      1.0000 0.83400  0.55280  0.35180  Biso   1.000  H
  H48      1.0000 0.66600  0.05280  0.14820  Biso   1.000  H
  H49      1.0000 0.23400  0.51320  0.56490  Biso   1.000  H
  H50      1.0000 0.26600  0.01320  0.93510  Biso   1.000  H
  H51      1.0000 0.76600  0.48680  0.43510  Biso   1.000  H
  H52      1.0000 0.73400  0.98680  0.06490  Biso   1.000  H
  C37      1.0000 0.46460  0.43420  0.61460  Biso   1.000  C
  C38      1.0000 0.03540  0.93420  0.88540  Biso   1.000  C
  C39      1.0000 0.53540  0.56580  0.38540  Biso   1.000  C
  C40      1.0000 0.96460  0.06580  0.11460  Biso   1.000  C
  O21      1.0000 0.62990  0.44349  0.67660  Biso   1.000  O
  O22      1.0000 0.87010  0.94349  0.82340  Biso   1.000  O
  O23      1.0000 0.37010  0.55651  0.32340  Biso   1.000  O
  O24      1.0000 0.12990  0.05651  0.17660  Biso   1.000  O
  N1       1.0000 0.45140  0.38320  0.53260  Biso   1.000  N
  N2       1.0000 0.04860  0.88320  0.96740  Biso   1.000  N
  N3       1.0000 0.54860  0.61680  0.46740  Biso   1.000  N
  N4       1.0000 0.95140  0.11680  0.03260  Biso   1.000  N
