data_image0
_cell_length_a       7.0968
_cell_length_b       11.209
_cell_length_c       20.829
_cell_angle_alpha    90
_cell_angle_beta     98.302
_cell_angle_gamma    90

_symmetry_space_group_name_H-M    "P 1"
_symmetry_int_tables_number       1

loop_
  _symmetry_equiv_pos_as_xyz
  'x, y, z'

loop_
  _atom_site_label
  _atom_site_occupancy
  _atom_site_fract_x
  _atom_site_fract_y
  _atom_site_fract_z
  _atom_site_thermal_displace_type
  _atom_site_B_iso_or_equiv
  _atom_site_type_symbol
  Cu1      1.0000 0.29467  0.60226  0.18294  Biso   1.000  Cu
  Cu2      1.0000 0.70533  0.10226  0.31706  Biso   1.000  Cu
  Cu3      1.0000 0.70533  0.39774  0.81706  Biso   1.000  Cu
  Cu4      1.0000 0.29467  0.89774  0.68294  Biso   1.000  Cu
  O1       1.0000 0.18530  0.73350  0.22586  Biso   1.000  O
  O2       1.0000 0.81470  0.23350  0.27414  Biso   1.000  O
  O3       1.0000 0.81470  0.26650  0.77414  Biso   1.000  O
  O4       1.0000 0.18530  0.76650  0.72586  Biso   1.000  O
  O5       1.0000 0.99980  0.78500  0.29831  Biso   1.000  O
  O6       1.0000 0.00020  0.28500  0.20169  Biso   1.000  O
  O7       1.0000 0.00020  0.21500  0.70169  Biso   1.000  O
  O8       1.0000 0.99980  0.71500  0.79831  Biso   1.000  O
  O9       1.0000 0.05720  0.51440  0.22012  Biso   1.000  O
  O10      1.0000 0.94280  0.01440  0.27988  Biso   1.000  O
  O11      1.0000 0.94280  0.48560  0.77988  Biso   1.000  O
  O12      1.0000 0.05720  0.98560  0.72012  Biso   1.000  O
  O13      1.0000 0.49520  0.56420  0.25668  Biso   1.000  O
  O14      1.0000 0.50480  0.06420  0.24332  Biso   1.000  O
  O15      1.0000 0.50480  0.43580  0.74332  Biso   1.000  O
  O16      1.0000 0.49520  0.93580  0.75668  Biso   1.000  O
  O17      1.0000 0.68230  0.66110  0.19758  Biso   1.000  O
  O18      1.0000 0.31770  0.16110  0.30242  Biso   1.000  O
  O19      1.0000 0.31770  0.33890  0.80242  Biso   1.000  O
  O20      1.0000 0.68230  0.83890  0.69758  Biso   1.000  O
  O21      1.0000 0.43550  0.38770  0.34820  Biso   1.000  O
  O22      1.0000 0.56450  0.88770  0.15180  Biso   1.000  O
  O23      1.0000 0.56450  0.61230  0.65180  Biso   1.000  O
  O24      1.0000 0.43550  0.11230  0.84820  Biso   1.000  O
  O25      1.0000 0.26450  0.01320  0.94590  Biso   1.000  O
  O26      1.0000 0.73550  0.51320  0.55410  Biso   1.000  O
  O27      1.0000 0.73550  0.98680  0.05410  Biso   1.000  O
  O28      1.0000 0.26450  0.48680  0.44590  Biso   1.000  O
  H1       1.0000 0.22480  0.04760  0.91180  Biso   1.000  H
  H2       1.0000 0.77520  0.54760  0.58820  Biso   1.000  H
  H3       1.0000 0.77520  0.95240  0.08820  Biso   1.000  H
  H4       1.0000 0.22480  0.45240  0.41180  Biso   1.000  H
  N1       1.0000 0.36320  0.45990  0.13251  Biso   1.000  N
  N2       1.0000 0.63680  0.95990  0.36749  Biso   1.000  N
  N3       1.0000 0.63680  0.54010  0.86749  Biso   1.000  N
  N4       1.0000 0.36320  0.04010  0.63251  Biso   1.000  N
  N5       1.0000 0.20280  0.66520  0.09321  Biso   1.000  N
  N6       1.0000 0.79720  0.16520  0.40679  Biso   1.000  N
  N7       1.0000 0.79720  0.33480  0.90679  Biso   1.000  N
  N8       1.0000 0.20280  0.83480  0.59321  Biso   1.000  N
  C1       1.0000 0.44310  0.35840  0.15430  Biso   1.000  C
  C2       1.0000 0.55690  0.85840  0.34570  Biso   1.000  C
  C3       1.0000 0.55690  0.64160  0.84570  Biso   1.000  C
  C4       1.0000 0.44310  0.14160  0.65430  Biso   1.000  C
  H5       1.0000 0.48130  0.34880  0.19860  Biso   1.000  H
  H6       1.0000 0.51870  0.84880  0.30140  Biso   1.000  H
  H7       1.0000 0.51870  0.65120  0.80140  Biso   1.000  H
  H8       1.0000 0.48130  0.15120  0.69860  Biso   1.000  H
  C5       1.0000 0.47150  0.26470  0.11210  Biso   1.000  C
  C6       1.0000 0.52850  0.76470  0.38790  Biso   1.000  C
  C7       1.0000 0.52850  0.73530  0.88790  Biso   1.000  C
  C8       1.0000 0.47150  0.23530  0.61210  Biso   1.000  C
  H9       1.0000 0.52550  0.19350  0.12870  Biso   1.000  H
  H10      1.0000 0.47450  0.69350  0.37130  Biso   1.000  H
  H11      1.0000 0.47450  0.80650  0.87130  Biso   1.000  H
  H12      1.0000 0.52550  0.30650  0.62870  Biso   1.000  H
  C9       1.0000 0.42070  0.27760  0.04720  Biso   1.000  C
  C10      1.0000 0.57930  0.77760  0.45280  Biso   1.000  C
  C11      1.0000 0.57930  0.72240  0.95280  Biso   1.000  C
  C12      1.0000 0.42070  0.22240  0.54720  Biso   1.000  C
  H13      1.0000 0.44050  0.21540  0.01940  Biso   1.000  H
  H14      1.0000 0.55950  0.71540  0.48060  Biso   1.000  H
  H15      1.0000 0.55950  0.78460  0.98060  Biso   1.000  H
  H16      1.0000 0.44050  0.28460  0.51940  Biso   1.000  H
  C13      1.0000 0.33840  0.38430  0.02210  Biso   1.000  C
  C14      1.0000 0.66160  0.88430  0.47790  Biso   1.000  C
  C15      1.0000 0.66160  0.61570  0.97790  Biso   1.000  C
  C16      1.0000 0.33840  0.11570  0.52210  Biso   1.000  C
  C17      1.0000 0.28010  0.40860  0.95510  Biso   1.000  C
  C18      1.0000 0.71990  0.90860  0.54490  Biso   1.000  C
  C19      1.0000 0.71990  0.59140  0.04490  Biso   1.000  C
  C20      1.0000 0.28010  0.09140  0.45510  Biso   1.000  C
  H17      1.0000 0.29860  0.35100  0.92440  Biso   1.000  H
  H18      1.0000 0.70140  0.85100  0.57560  Biso   1.000  H
  H19      1.0000 0.70140  0.64900  0.07560  Biso   1.000  H
  H20      1.0000 0.29860  0.14900  0.42440  Biso   1.000  H
  C21      1.0000 0.19840  0.51370  0.93510  Biso   1.000  C
  C22      1.0000 0.80160  0.01370  0.56490  Biso   1.000  C
  C23      1.0000 0.80160  0.48630  0.06490  Biso   1.000  C
  C24      1.0000 0.19840  0.98630  0.43510  Biso   1.000  C
  H21      1.0000 0.16000  0.52610  0.89100  Biso   1.000  H
  H22      1.0000 0.84000  0.02610  0.60900  Biso   1.000  H
  H23      1.0000 0.84000  0.47390  0.10900  Biso   1.000  H
  H24      1.0000 0.16000  0.97390  0.39100  Biso   1.000  H
  C25      1.0000 0.16940  0.60610  0.97980  Biso   1.000  C
  C26      1.0000 0.83060  0.10610  0.52020  Biso   1.000  C
  C27      1.0000 0.83060  0.39390  0.02020  Biso   1.000  C
  C28      1.0000 0.16940  0.89390  0.47980  Biso   1.000  C
  C29      1.0000 0.08770  0.71610  0.96260  Biso   1.000  C
  C30      1.0000 0.91230  0.21610  0.53740  Biso   1.000  C
  C31      1.0000 0.91230  0.28390  0.03740  Biso   1.000  C
  C32      1.0000 0.08770  0.78390  0.46260  Biso   1.000  C
  H25      1.0000 0.04860  0.73470  0.91920  Biso   1.000  H
  H26      1.0000 0.95140  0.23470  0.58080  Biso   1.000  H
  H27      1.0000 0.95140  0.26530  0.08080  Biso   1.000  H
  H28      1.0000 0.04860  0.76530  0.41920  Biso   1.000  H
  C33      1.0000 0.06550  0.79630  0.00990  Biso   1.000  C
  C34      1.0000 0.93450  0.29630  0.49010  Biso   1.000  C
  C35      1.0000 0.93450  0.20370  0.99010  Biso   1.000  C
  C36      1.0000 0.06550  0.70370  0.50990  Biso   1.000  C
  H29      1.0000 0.01250  0.87070  0.99880  Biso   1.000  H
  H30      1.0000 0.98750  0.37070  0.50120  Biso   1.000  H
  H31      1.0000 0.98750  0.12930  0.00120  Biso   1.000  H
  H32      1.0000 0.01250  0.62930  0.49880  Biso   1.000  H
  C37      1.0000 0.12200  0.76750  0.07510  Biso   1.000  C
  C38      1.0000 0.87800  0.26750  0.42490  Biso   1.000  C
  C39      1.0000 0.87800  0.23250  0.92490  Biso   1.000  C
  C40      1.0000 0.12200  0.73250  0.57510  Biso   1.000  C
  H33      1.0000 0.10160  0.82260  0.10680  Biso   1.000  H
  H34      1.0000 0.89840  0.32260  0.39320  Biso   1.000  H
  H35      1.0000 0.89840  0.17740  0.89320  Biso   1.000  H
  H36      1.0000 0.10160  0.67740  0.60680  Biso   1.000  H
  C41      1.0000 0.22620  0.58430  0.04620  Biso   1.000  C
  C42      1.0000 0.77380  0.08430  0.45380  Biso   1.000  C
  C43      1.0000 0.77380  0.41570  0.95380  Biso   1.000  C
  C44      1.0000 0.22620  0.91570  0.54620  Biso   1.000  C
  C45      1.0000 0.31160  0.47350  0.06740  Biso   1.000  C
  C46      1.0000 0.68840  0.97350  0.43260  Biso   1.000  C
  C47      1.0000 0.68840  0.52650  0.93260  Biso   1.000  C
  C48      1.0000 0.31160  0.02650  0.56740  Biso   1.000  C
  C49      1.0000 0.06860  0.71000  0.26500  Biso   1.000  C
  C50      1.0000 0.93140  0.21000  0.23500  Biso   1.000  C
  C51      1.0000 0.93140  0.29000  0.73500  Biso   1.000  C
  C52      1.0000 0.06860  0.79000  0.76500  Biso   1.000  C
  C53      1.0000 0.02140  0.57860  0.27590  Biso   1.000  C
  C54      1.0000 0.97860  0.07860  0.22410  Biso   1.000  C
  C55      1.0000 0.97860  0.42140  0.72410  Biso   1.000  C
  C56      1.0000 0.02140  0.92140  0.77590  Biso   1.000  C
  C57      1.0000 0.82520  0.55690  0.29290  Biso   1.000  C
  C58      1.0000 0.17480  0.05690  0.20710  Biso   1.000  C
  C59      1.0000 0.17480  0.44310  0.70710  Biso   1.000  C
  C60      1.0000 0.82520  0.94310  0.79290  Biso   1.000  C
  C61      1.0000 0.65980  0.59910  0.24450  Biso   1.000  C
  C62      1.0000 0.34020  0.09910  0.25550  Biso   1.000  C
  C63      1.0000 0.34020  0.40090  0.75550  Biso   1.000  C
  C64      1.0000 0.65980  0.90090  0.74450  Biso   1.000  C
  C65      1.0000 0.48500  0.03140  0.96200  Biso   1.000  C
  C66      1.0000 0.51500  0.53140  0.53800  Biso   1.000  C
  C67      1.0000 0.51500  0.96860  0.03800  Biso   1.000  C
  C68      1.0000 0.48500  0.46860  0.46200  Biso   1.000  C
  H37      1.0000 0.52060  0.11510  0.96310  Biso   1.000  H
  H38      1.0000 0.47940  0.61510  0.53690  Biso   1.000  H
  H39      1.0000 0.47940  0.88490  0.03690  Biso   1.000  H
  H40      1.0000 0.52060  0.38490  0.46310  Biso   1.000  H
  H41      1.0000 0.55410  0.98860  0.93230  Biso   1.000  H
  H42      1.0000 0.44590  0.48860  0.56770  Biso   1.000  H
  H43      1.0000 0.44590  0.01140  0.06770  Biso   1.000  H
  H44      1.0000 0.55410  0.51140  0.43230  Biso   1.000  H
  H45      1.0000 0.11100  0.54700  0.31200  Biso   1.000  H
  H46      1.0000 0.88900  0.04700  0.18800  Biso   1.000  H
  H47      1.0000 0.88900  0.45300  0.68800  Biso   1.000  H
  H48      1.0000 0.11100  0.95300  0.81200  Biso   1.000  H
  H49      1.0000 0.81700  0.47800  0.29600  Biso   1.000  H
  H50      1.0000 0.18300  0.97800  0.20400  Biso   1.000  H
  H51      1.0000 0.18300  0.52200  0.70400  Biso   1.000  H
  H52      1.0000 0.81700  0.02200  0.79600  Biso   1.000  H
  H53      1.0000 0.81200  0.59300  0.32900  Biso   1.000  H
  H54      1.0000 0.18800  0.09300  0.17100  Biso   1.000  H
  H55      1.0000 0.18800  0.40700  0.67100  Biso   1.000  H
  H56      1.0000 0.81200  0.90700  0.82900  Biso   1.000  H
  H57      1.0000 0.05000  0.43510  0.21700  Biso   1.000  H
  H58      1.0000 0.95000  0.93510  0.28300  Biso   1.000  H
  H59      1.0000 0.95000  0.56490  0.78300  Biso   1.000  H
  H60      1.0000 0.05000  0.06490  0.71700  Biso   1.000  H
  H61      1.0000 0.47700  0.43300  0.31600  Biso   1.000  H
  H62      1.0000 0.52300  0.93300  0.18400  Biso   1.000  H
  H63      1.0000 0.52300  0.56700  0.68400  Biso   1.000  H
  H64      1.0000 0.47700  0.06700  0.81600  Biso   1.000  H
  H65      1.0000 0.30500  0.38100  0.34500  Biso   1.000  H
  H66      1.0000 0.69500  0.88100  0.15500  Biso   1.000  H
  H67      1.0000 0.69500  0.61900  0.65500  Biso   1.000  H
  H68      1.0000 0.30500  0.11900  0.84500  Biso   1.000  H
