data_image0
_cell_length_a       13.749
_cell_length_b       14.762
_cell_length_c       19.432
_cell_angle_alpha    90
_cell_angle_beta     90
_cell_angle_gamma    90

_symmetry_space_group_name_H-M    "P 1"
_symmetry_int_tables_number       1

loop_
  _symmetry_equiv_pos_as_xyz
  'x, y, z'

loop_
  _atom_site_label
  _atom_site_occupancy
  _atom_site_fract_x
  _atom_site_fract_y
  _atom_site_fract_z
  _atom_site_thermal_displace_type
  _atom_site_B_iso_or_equiv
  _atom_site_type_symbol
  Cu1      1.0000 0.67685  0.65427  0.90080  Biso   1.000  Cu
  Cu2      1.0000 0.82315  0.34573  0.40080  Biso   1.000  Cu
  Cu3      1.0000 0.17685  0.84573  0.09920  Biso   1.000  Cu
  Cu4      1.0000 0.32315  0.15427  0.59920  Biso   1.000  Cu
  Cu5      1.0000 0.26313  0.35067  0.13200  Biso   1.000  Cu
  Cu6      1.0000 0.23687  0.64933  0.63200  Biso   1.000  Cu
  Cu7      1.0000 0.76313  0.14933  0.86800  Biso   1.000  Cu
  Cu8      1.0000 0.73687  0.85067  0.36800  Biso   1.000  Cu
  N1       1.0000 0.43580  0.56260  0.02100  Biso   1.000  N
  N2       1.0000 0.06420  0.43740  0.52100  Biso   1.000  N
  N3       1.0000 0.93580  0.93740  0.97900  Biso   1.000  N
  N4       1.0000 0.56420  0.06260  0.47900  Biso   1.000  N
  N5       1.0000 0.42500  0.72190  0.01640  Biso   1.000  N
  N6       1.0000 0.07500  0.27810  0.51640  Biso   1.000  N
  N7       1.0000 0.92500  0.77810  0.98360  Biso   1.000  N
  N8       1.0000 0.57500  0.22190  0.48360  Biso   1.000  N
  N9       1.0000 0.39820  0.64470  0.12240  Biso   1.000  N
  N10      1.0000 0.10180  0.35530  0.62240  Biso   1.000  N
  N11      1.0000 0.89820  0.85530  0.87760  Biso   1.000  N
  N12      1.0000 0.60180  0.14470  0.37760  Biso   1.000  N
  N13      1.0000 0.45750  0.63810  0.92050  Biso   1.000  N
  N14      1.0000 0.04250  0.36190  0.42050  Biso   1.000  N
  N15      1.0000 0.95750  0.86190  0.07950  Biso   1.000  N
  N16      1.0000 0.54250  0.13810  0.57950  Biso   1.000  N
  N17      1.0000 0.56960  0.73990  0.87390  Biso   1.000  N
  N18      1.0000 0.93040  0.26010  0.37390  Biso   1.000  N
  N19      1.0000 0.06960  0.76010  0.12610  Biso   1.000  N
  N20      1.0000 0.43040  0.23990  0.62610  Biso   1.000  N
  N21      1.0000 0.58160  0.54480  0.87580  Biso   1.000  N
  N22      1.0000 0.91840  0.45520  0.37580  Biso   1.000  N
  N23      1.0000 0.08160  0.95520  0.12420  Biso   1.000  N
  N24      1.0000 0.41840  0.04480  0.62420  Biso   1.000  N
  N25      1.0000 0.42000  0.48940  0.12380  Biso   1.000  N
  N26      1.0000 0.08000  0.51060  0.62380  Biso   1.000  N
  N27      1.0000 0.92000  0.01060  0.87620  Biso   1.000  N
  N28      1.0000 0.58000  0.98940  0.37620  Biso   1.000  N
  N29      1.0000 0.32660  0.42050  0.20640  Biso   1.000  N
  N30      1.0000 0.17340  0.57950  0.70640  Biso   1.000  N
  N31      1.0000 0.82660  0.07950  0.79360  Biso   1.000  N
  N32      1.0000 0.67340  0.92050  0.29360  Biso   1.000  N
  N33      1.0000 0.39210  0.34060  0.08720  Biso   1.000  N
  N34      1.0000 0.10790  0.65940  0.58720  Biso   1.000  N
  N35      1.0000 0.89210  0.15940  0.91280  Biso   1.000  N
  N36      1.0000 0.60790  0.84060  0.41280  Biso   1.000  N
  N37      1.0000 0.38400  0.80030  0.11410  Biso   1.000  N
  N38      1.0000 0.11600  0.19970  0.61410  Biso   1.000  N
  N39      1.0000 0.88400  0.69970  0.88590  Biso   1.000  N
  N40      1.0000 0.61600  0.30030  0.38590  Biso   1.000  N
  N41      1.0000 0.29140  0.91430  0.06370  Biso   1.000  N
  N42      1.0000 0.20860  0.08570  0.56370  Biso   1.000  N
  N43      1.0000 0.79140  0.58570  0.93630  Biso   1.000  N
  N44      1.0000 0.70860  0.41430  0.43630  Biso   1.000  N
  N45      1.0000 0.25170  0.82610  0.18770  Biso   1.000  N
  N46      1.0000 0.24830  0.17390  0.68770  Biso   1.000  N
  N47      1.0000 0.75170  0.67390  0.81230  Biso   1.000  N
  N48      1.0000 0.74830  0.32610  0.31230  Biso   1.000  N
  N49      1.0000 0.66720  0.74150  0.02610  Biso   1.000  N
  N50      1.0000 0.83280  0.25850  0.52610  Biso   1.000  N
  N51      1.0000 0.16720  0.75850  0.97390  Biso   1.000  N
  N52      1.0000 0.33280  0.24150  0.47390  Biso   1.000  N
  O1       1.0000 0.64270  0.66550  0.00170  Biso   1.000  O
  O2       1.0000 0.85730  0.33450  0.50170  Biso   1.000  O
  O3       1.0000 0.14270  0.83450  0.99830  Biso   1.000  O
  O4       1.0000 0.35730  0.16550  0.49830  Biso   1.000  O
  O5       1.0000 0.65240  0.75650  0.08770  Biso   1.000  O
  O6       1.0000 0.84760  0.24350  0.58770  Biso   1.000  O
  O7       1.0000 0.15240  0.74350  0.91230  Biso   1.000  O
  O8       1.0000 0.34760  0.25650  0.41230  Biso   1.000  O
  O9       1.0000 0.70510  0.79490  0.98770  Biso   1.000  O
  O10      1.0000 0.79490  0.20510  0.48770  Biso   1.000  O
  O11      1.0000 0.20510  0.70510  0.01230  Biso   1.000  O
  O12      1.0000 0.29490  0.29490  0.51230  Biso   1.000  O
  N53      1.0000 0.32590  0.16370  0.19580  Biso   1.000  N
  N54      1.0000 0.17410  0.83630  0.69580  Biso   1.000  N
  N55      1.0000 0.82590  0.33630  0.80420  Biso   1.000  N
  N56      1.0000 0.67410  0.66370  0.30420  Biso   1.000  N
  O13      1.0000 0.26710  0.20090  0.15810  Biso   1.000  O
  O14      1.0000 0.23290  0.79910  0.65810  Biso   1.000  O
  O15      1.0000 0.76710  0.29910  0.84190  Biso   1.000  O
  O16      1.0000 0.73290  0.70090  0.34190  Biso   1.000  O
  O17      1.0000 0.38440  0.20920  0.22260  Biso   1.000  O
  O18      1.0000 0.11560  0.79080  0.72260  Biso   1.000  O
  O19      1.0000 0.88440  0.29080  0.77740  Biso   1.000  O
  O20      1.0000 0.61560  0.70920  0.27740  Biso   1.000  O
  O21      1.0000 0.32670  0.08210  0.20670  Biso   1.000  O
  O22      1.0000 0.17330  0.91790  0.70670  Biso   1.000  O
  O23      1.0000 0.82670  0.41790  0.79330  Biso   1.000  O
  O24      1.0000 0.67330  0.58210  0.29330  Biso   1.000  O
  N57      1.0000 0.20780  0.38230  0.00060  Biso   1.000  N
  N58      1.0000 0.29220  0.61770  0.50060  Biso   1.000  N
  N59      1.0000 0.70780  0.11770  0.99940  Biso   1.000  N
  N60      1.0000 0.79220  0.88230  0.49940  Biso   1.000  N
  O25      1.0000 0.20440  0.31440  0.04350  Biso   1.000  O
  O26      1.0000 0.29560  0.68560  0.54350  Biso   1.000  O
  O27      1.0000 0.70440  0.18560  0.95650  Biso   1.000  O
  O28      1.0000 0.79560  0.81440  0.45650  Biso   1.000  O
  O29      1.0000 0.22950  0.45700  0.02150  Biso   1.000  O
  O30      1.0000 0.27050  0.54300  0.52150  Biso   1.000  O
  O31      1.0000 0.72950  0.04300  0.97850  Biso   1.000  O
  O32      1.0000 0.77050  0.95700  0.47850  Biso   1.000  O
  O33      1.0000 0.18990  0.36610  0.94080  Biso   1.000  O
  O34      1.0000 0.31010  0.63390  0.44080  Biso   1.000  O
  O35      1.0000 0.68990  0.13390  0.05920  Biso   1.000  O
  O36      1.0000 0.81010  0.86610  0.55920  Biso   1.000  O
  N61      1.0000 0.06450  0.37070  0.17830  Biso   1.000  N
  N62      1.0000 0.43550  0.62930  0.67830  Biso   1.000  N
  N63      1.0000 0.56450  0.12930  0.82170  Biso   1.000  N
  N64      1.0000 0.93550  0.87070  0.32170  Biso   1.000  N
  O37      1.0000 0.12890  0.42410  0.16010  Biso   1.000  O
  O38      1.0000 0.37110  0.57590  0.66010  Biso   1.000  O
  O39      1.0000 0.62890  0.07590  0.83990  Biso   1.000  O
  O40      1.0000 0.87110  0.92410  0.33990  Biso   1.000  O
  O41      1.0000 0.14860  0.32660  0.18750  Biso   1.000  O
  O42      1.0000 0.35140  0.67340  0.68750  Biso   1.000  O
  O43      1.0000 0.64860  0.17340  0.81250  Biso   1.000  O
  O44      1.0000 0.85140  0.82660  0.31250  Biso   1.000  O
  O45      1.0000 0.01880  0.35250  0.22530  Biso   1.000  O
  O46      1.0000 0.48120  0.64750  0.72530  Biso   1.000  O
  O47      1.0000 0.51880  0.14750  0.77470  Biso   1.000  O
  O48      1.0000 0.98120  0.85250  0.27470  Biso   1.000  O
  O49      1.0000 0.02120  0.36970  0.12860  Biso   1.000  O
  O50      1.0000 0.47880  0.63030  0.62860  Biso   1.000  O
  O51      1.0000 0.52120  0.13030  0.87140  Biso   1.000  O
  O52      1.0000 0.97880  0.86970  0.37140  Biso   1.000  O
  C1       1.0000 0.43800  0.64180  0.98960  Biso   1.000  C
  C2       1.0000 0.06200  0.35820  0.48960  Biso   1.000  C
  C3       1.0000 0.93800  0.85820  0.01040  Biso   1.000  C
  C4       1.0000 0.56200  0.14180  0.51040  Biso   1.000  C
  C5       1.0000 0.40330  0.71820  0.08310  Biso   1.000  C
  C6       1.0000 0.09670  0.28180  0.58310  Biso   1.000  C
  C7       1.0000 0.90330  0.78180  0.91690  Biso   1.000  C
  C8       1.0000 0.59670  0.21820  0.41690  Biso   1.000  C
  C9       1.0000 0.41870  0.57040  0.08880  Biso   1.000  C
  C10      1.0000 0.08130  0.42960  0.58880  Biso   1.000  C
  C11      1.0000 0.91870  0.92960  0.91120  Biso   1.000  C
  C12      1.0000 0.58130  0.07040  0.41120  Biso   1.000  C
  C13      1.0000 0.47660  0.72100  0.88610  Biso   1.000  C
  C14      1.0000 0.02340  0.27900  0.38610  Biso   1.000  C
  C15      1.0000 0.97660  0.77900  0.11390  Biso   1.000  C
  C16      1.0000 0.52340  0.22100  0.61390  Biso   1.000  C
  C17      1.0000 0.40020  0.77770  0.86940  Biso   1.000  C
  C18      1.0000 0.09980  0.22230  0.36940  Biso   1.000  C
  C19      1.0000 0.90020  0.72230  0.13060  Biso   1.000  C
  C20      1.0000 0.59980  0.27770  0.63060  Biso   1.000  C
  H1       1.0000 0.33580  0.76120  0.87710  Biso   1.000  H
  H2       1.0000 0.16420  0.23880  0.37710  Biso   1.000  H
  H3       1.0000 0.83580  0.73880  0.12290  Biso   1.000  H
  H4       1.0000 0.66420  0.26120  0.62290  Biso   1.000  H
  C21      1.0000 0.42490  0.86110  0.84020  Biso   1.000  C
  C22      1.0000 0.07510  0.13890  0.34020  Biso   1.000  C
  C23      1.0000 0.92490  0.63890  0.15980  Biso   1.000  C
  C24      1.0000 0.57510  0.36110  0.65980  Biso   1.000  C
  H5       1.0000 0.37660  0.90220  0.82820  Biso   1.000  H
  H6       1.0000 0.12340  0.09780  0.32820  Biso   1.000  H
  H7       1.0000 0.87660  0.59780  0.17180  Biso   1.000  H
  H8       1.0000 0.62340  0.40220  0.67180  Biso   1.000  H
  C25      1.0000 0.52250  0.88210  0.82940  Biso   1.000  C
  C26      1.0000 0.97750  0.11790  0.32940  Biso   1.000  C
  C27      1.0000 0.02250  0.61790  0.17060  Biso   1.000  C
  C28      1.0000 0.47750  0.38210  0.67060  Biso   1.000  C
  H9       1.0000 0.53880  0.93780  0.81030  Biso   1.000  H
  H10      1.0000 0.96120  0.06220  0.31030  Biso   1.000  H
  H11      1.0000 0.03880  0.56220  0.18970  Biso   1.000  H
  H12      1.0000 0.46120  0.43780  0.68970  Biso   1.000  H
  C29      1.0000 0.59350  0.82340  0.84600  Biso   1.000  C
  C30      1.0000 0.90650  0.17660  0.34600  Biso   1.000  C
  C31      1.0000 0.09350  0.67660  0.15400  Biso   1.000  C
  C32      1.0000 0.40650  0.32340  0.65400  Biso   1.000  C
  H13      1.0000 0.65830  0.83880  0.83880  Biso   1.000  H
  H14      1.0000 0.84170  0.16120  0.33880  Biso   1.000  H
  H15      1.0000 0.15830  0.66120  0.16120  Biso   1.000  H
  H16      1.0000 0.34170  0.33880  0.66120  Biso   1.000  H
  C33      1.0000 0.48720  0.55460  0.88980  Biso   1.000  C
  C34      1.0000 0.01280  0.44540  0.38980  Biso   1.000  C
  C35      1.0000 0.98720  0.94540  0.11020  Biso   1.000  C
  C36      1.0000 0.51280  0.05460  0.61020  Biso   1.000  C
  C37      1.0000 0.60960  0.46550  0.84880  Biso   1.000  C
  C38      1.0000 0.89040  0.53450  0.34880  Biso   1.000  C
  C39      1.0000 0.10960  0.03450  0.15120  Biso   1.000  C
  C40      1.0000 0.39040  0.96550  0.65120  Biso   1.000  C
  H17      1.0000 0.67420  0.45860  0.83590  Biso   1.000  H
  H18      1.0000 0.82580  0.54140  0.33590  Biso   1.000  H
  H19      1.0000 0.17420  0.04140  0.16410  Biso   1.000  H
  H20      1.0000 0.32580  0.95860  0.66410  Biso   1.000  H
  C41      1.0000 0.54570  0.39260  0.83930  Biso   1.000  C
  C42      1.0000 0.95430  0.60740  0.33930  Biso   1.000  C
  C43      1.0000 0.04570  0.10740  0.16070  Biso   1.000  C
  C44      1.0000 0.45430  0.89260  0.66070  Biso   1.000  C
  H21      1.0000 0.56810  0.33740  0.82250  Biso   1.000  H
  H22      1.0000 0.93190  0.66260  0.32250  Biso   1.000  H
  H23      1.0000 0.06810  0.16260  0.17750  Biso   1.000  H
  H24      1.0000 0.43190  0.83740  0.67750  Biso   1.000  H
  C45      1.0000 0.45040  0.40450  0.85510  Biso   1.000  C
  C46      1.0000 0.04960  0.59550  0.35510  Biso   1.000  C
  C47      1.0000 0.95040  0.09550  0.14490  Biso   1.000  C
  C48      1.0000 0.54960  0.90450  0.64490  Biso   1.000  C
  H25      1.0000 0.40600  0.35780  0.84830  Biso   1.000  H
  H26      1.0000 0.09400  0.64220  0.34830  Biso   1.000  H
  H27      1.0000 0.90600  0.14220  0.15170  Biso   1.000  H
  H28      1.0000 0.59400  0.85780  0.65170  Biso   1.000  H
  C49      1.0000 0.41960  0.48770  0.88180  Biso   1.000  C
  C50      1.0000 0.08040  0.51230  0.38180  Biso   1.000  C
  C51      1.0000 0.91960  0.01230  0.11820  Biso   1.000  C
  C52      1.0000 0.58040  0.98770  0.61820  Biso   1.000  C
  H29      1.0000 0.35490  0.49710  0.89380  Biso   1.000  H
  H30      1.0000 0.14510  0.50290  0.39380  Biso   1.000  H
  H31      1.0000 0.85490  0.00290  0.10620  Biso   1.000  H
  H32      1.0000 0.64510  0.99710  0.60620  Biso   1.000  H
  C53      1.0000 0.39340  0.48260  0.19400  Biso   1.000  C
  C54      1.0000 0.10660  0.51740  0.69400  Biso   1.000  C
  C55      1.0000 0.89340  0.01740  0.80600  Biso   1.000  C
  C56      1.0000 0.60660  0.98260  0.30600  Biso   1.000  C
  C57      1.0000 0.43960  0.53080  0.24280  Biso   1.000  C
  C58      1.0000 0.06040  0.46920  0.74280  Biso   1.000  C
  C59      1.0000 0.93960  0.96920  0.75720  Biso   1.000  C
  C60      1.0000 0.56040  0.03080  0.25720  Biso   1.000  C
  H33      1.0000 0.48950  0.57050  0.23130  Biso   1.000  H
  H34      1.0000 0.01050  0.42950  0.73130  Biso   1.000  H
  H35      1.0000 0.98950  0.92950  0.76870  Biso   1.000  H
  H36      1.0000 0.51050  0.07050  0.26870  Biso   1.000  H
  C61      1.0000 0.41090  0.51980  0.31080  Biso   1.000  C
  C62      1.0000 0.08910  0.48020  0.81080  Biso   1.000  C
  C63      1.0000 0.91090  0.98020  0.68920  Biso   1.000  C
  C64      1.0000 0.58910  0.01980  0.18920  Biso   1.000  C
  H37      1.0000 0.43870  0.55510  0.34520  Biso   1.000  H
  H38      1.0000 0.06130  0.44490  0.84520  Biso   1.000  H
  H39      1.0000 0.93870  0.94490  0.65480  Biso   1.000  H
  H40      1.0000 0.56130  0.05510  0.15480  Biso   1.000  H
  C65      1.0000 0.34390  0.45880  0.32650  Biso   1.000  C
  C66      1.0000 0.15610  0.54120  0.82650  Biso   1.000  C
  C67      1.0000 0.84390  0.04120  0.67350  Biso   1.000  C
  C68      1.0000 0.65610  0.95880  0.17350  Biso   1.000  C
  H41      1.0000 0.32540  0.44970  0.37200  Biso   1.000  H
  H42      1.0000 0.17460  0.55030  0.87200  Biso   1.000  H
  H43      1.0000 0.82540  0.05030  0.62800  Biso   1.000  H
  H44      1.0000 0.67460  0.94970  0.12800  Biso   1.000  H
  C69      1.0000 0.30210  0.40950  0.27500  Biso   1.000  C
  C70      1.0000 0.19790  0.59050  0.77500  Biso   1.000  C
  C71      1.0000 0.80210  0.09050  0.72500  Biso   1.000  C
  C72      1.0000 0.69790  0.90950  0.22500  Biso   1.000  C
  H45      1.0000 0.25530  0.36660  0.28640  Biso   1.000  H
  H46      1.0000 0.24470  0.63340  0.78640  Biso   1.000  H
  H47      1.0000 0.75530  0.13340  0.71360  Biso   1.000  H
  H48      1.0000 0.74470  0.86660  0.21360  Biso   1.000  H
  C73      1.0000 0.45330  0.41140  0.08780  Biso   1.000  C
  C74      1.0000 0.04670  0.58860  0.58780  Biso   1.000  C
  C75      1.0000 0.95330  0.08860  0.91220  Biso   1.000  C
  C76      1.0000 0.54670  0.91140  0.41220  Biso   1.000  C
  C77      1.0000 0.54520  0.40790  0.05770  Biso   1.000  C
  C78      1.0000 0.95480  0.59210  0.55770  Biso   1.000  C
  C79      1.0000 0.04520  0.09210  0.94230  Biso   1.000  C
  C80      1.0000 0.45480  0.90790  0.44230  Biso   1.000  C
  H49      1.0000 0.58880  0.45580  0.06200  Biso   1.000  H
  H50      1.0000 0.91120  0.54420  0.56200  Biso   1.000  H
  H51      1.0000 0.08880  0.04420  0.93800  Biso   1.000  H
  H52      1.0000 0.41120  0.95580  0.43800  Biso   1.000  H
  C81      1.0000 0.56870  0.33280  0.02240  Biso   1.000  C
  C82      1.0000 0.93130  0.66720  0.52240  Biso   1.000  C
  C83      1.0000 0.06870  0.16720  0.97760  Biso   1.000  C
  C84      1.0000 0.43130  0.83280  0.47760  Biso   1.000  C
  H53      1.0000 0.62890  0.32970  0.00060  Biso   1.000  H
  H54      1.0000 0.87110  0.67030  0.50060  Biso   1.000  H
  H55      1.0000 0.12890  0.17030  0.99940  Biso   1.000  H
  H56      1.0000 0.37110  0.82970  0.49940  Biso   1.000  H
  C85      1.0000 0.50710  0.26130  0.01770  Biso   1.000  C
  C86      1.0000 0.99290  0.73870  0.51770  Biso   1.000  C
  C87      1.0000 0.00710  0.23870  0.98230  Biso   1.000  C
  C88      1.0000 0.49290  0.76130  0.48230  Biso   1.000  C
  H57      1.0000 0.52410  0.21010  0.99240  Biso   1.000  H
  H58      1.0000 0.97590  0.78990  0.49240  Biso   1.000  H
  H59      1.0000 0.02410  0.28990  0.00760  Biso   1.000  H
  H60      1.0000 0.47590  0.71010  0.50760  Biso   1.000  H
  C89      1.0000 0.41990  0.26580  0.05070  Biso   1.000  C
  C90      1.0000 0.08010  0.73420  0.55070  Biso   1.000  C
  C91      1.0000 0.91990  0.23420  0.94930  Biso   1.000  C
  C92      1.0000 0.58010  0.76580  0.44930  Biso   1.000  C
  H61      1.0000 0.37780  0.21660  0.04820  Biso   1.000  H
  H62      1.0000 0.12220  0.78340  0.54820  Biso   1.000  H
  H63      1.0000 0.87780  0.28340  0.95180  Biso   1.000  H
  H64      1.0000 0.62220  0.71660  0.45180  Biso   1.000  H
  C93      1.0000 0.37670  0.88030  0.07340  Biso   1.000  C
  C94      1.0000 0.12330  0.11970  0.57340  Biso   1.000  C
  C95      1.0000 0.87670  0.61970  0.92660  Biso   1.000  C
  C96      1.0000 0.62330  0.38030  0.42660  Biso   1.000  C
  C97      1.0000 0.28110  0.98680  0.02530  Biso   1.000  C
  C98      1.0000 0.21890  0.01320  0.52530  Biso   1.000  C
  C99      1.0000 0.78110  0.51320  0.97470  Biso   1.000  C
  C100     1.0000 0.71890  0.48680  0.47470  Biso   1.000  C
  H65      1.0000 0.21980  0.01230  0.01970  Biso   1.000  H
  H66      1.0000 0.28020  0.98770  0.51970  Biso   1.000  H
  H67      1.0000 0.71980  0.48770  0.98030  Biso   1.000  H
  H68      1.0000 0.78020  0.51230  0.48030  Biso   1.000  H
  C101     1.0000 0.36040  0.02540  0.99300  Biso   1.000  C
  C102     1.0000 0.13960  0.97460  0.49300  Biso   1.000  C
  C103     1.0000 0.86040  0.47460  0.00700  Biso   1.000  C
  C104     1.0000 0.63960  0.52540  0.50700  Biso   1.000  C
  H69      1.0000 0.35220  0.07560  0.96470  Biso   1.000  H
  H70      1.0000 0.14780  0.92440  0.46470  Biso   1.000  H
  H71      1.0000 0.85220  0.42440  0.03530  Biso   1.000  H
  H72      1.0000 0.64780  0.57560  0.53530  Biso   1.000  H
  C105     1.0000 0.45160  0.98930  0.00300  Biso   1.000  C
  C106     1.0000 0.04840  0.01070  0.50300  Biso   1.000  C
  C107     1.0000 0.95160  0.51070  0.99700  Biso   1.000  C
  C108     1.0000 0.54840  0.48930  0.49700  Biso   1.000  C
  H73      1.0000 0.50580  0.01400  0.98150  Biso   1.000  H
  H74      1.0000 0.99420  0.98600  0.48150  Biso   1.000  H
  H75      1.0000 0.00580  0.48600  0.01850  Biso   1.000  H
  H76      1.0000 0.49420  0.51400  0.51850  Biso   1.000  H
  C109     1.0000 0.45980  0.91660  0.04540  Biso   1.000  C
  C110     1.0000 0.04020  0.08340  0.54540  Biso   1.000  C
  C111     1.0000 0.95980  0.58340  0.95460  Biso   1.000  C
  C112     1.0000 0.54020  0.41660  0.45460  Biso   1.000  C
  H77      1.0000 0.52040  0.89190  0.05520  Biso   1.000  H
  H78      1.0000 0.97960  0.10810  0.55520  Biso   1.000  H
  H79      1.0000 0.02040  0.60810  0.94480  Biso   1.000  H
  H80      1.0000 0.47960  0.39190  0.44480  Biso   1.000  H
  C113     1.0000 0.34660  0.80390  0.18260  Biso   1.000  C
  C114     1.0000 0.15340  0.19610  0.68260  Biso   1.000  C
  C115     1.0000 0.84660  0.69610  0.81740  Biso   1.000  C
  C116     1.0000 0.65340  0.30390  0.31740  Biso   1.000  C
  C117     1.0000 0.40460  0.78110  0.23760  Biso   1.000  C
  C118     1.0000 0.09540  0.21890  0.73760  Biso   1.000  C
  C119     1.0000 0.90460  0.71890  0.76240  Biso   1.000  C
  C120     1.0000 0.59540  0.28110  0.26240  Biso   1.000  C
  H81      1.0000 0.46930  0.76440  0.23190  Biso   1.000  H
  H82      1.0000 0.03070  0.23560  0.73190  Biso   1.000  H
  H83      1.0000 0.96930  0.73560  0.76810  Biso   1.000  H
  H84      1.0000 0.53070  0.26440  0.26810  Biso   1.000  H
  C121     1.0000 0.36170  0.78420  0.30110  Biso   1.000  C
  C122     1.0000 0.13830  0.21580  0.80110  Biso   1.000  C
  C123     1.0000 0.86170  0.71580  0.69890  Biso   1.000  C
  C124     1.0000 0.63830  0.28420  0.19890  Biso   1.000  C
  H85      1.0000 0.39750  0.76920  0.34010  Biso   1.000  H
  H86      1.0000 0.10250  0.23080  0.84010  Biso   1.000  H
  H87      1.0000 0.89750  0.73080  0.65990  Biso   1.000  H
  H88      1.0000 0.60250  0.26920  0.15990  Biso   1.000  H
  C125     1.0000 0.26560  0.80970  0.30760  Biso   1.000  C
  C126     1.0000 0.23440  0.19030  0.80760  Biso   1.000  C
  C127     1.0000 0.76560  0.69030  0.69240  Biso   1.000  C
  C128     1.0000 0.73440  0.30970  0.19240  Biso   1.000  C
  H89      1.0000 0.23630  0.81320  0.35060  Biso   1.000  H
  H90      1.0000 0.26370  0.18680  0.85060  Biso   1.000  H
  H91      1.0000 0.73630  0.68680  0.64940  Biso   1.000  H
  H92      1.0000 0.76370  0.31320  0.14940  Biso   1.000  H
  C129     1.0000 0.21530  0.82930  0.25030  Biso   1.000  C
  C130     1.0000 0.28470  0.17070  0.75030  Biso   1.000  C
  C131     1.0000 0.71530  0.67070  0.74970  Biso   1.000  C
  C132     1.0000 0.78470  0.32930  0.24970  Biso   1.000  C
  H93      1.0000 0.15050  0.84620  0.25520  Biso   1.000  H
  H94      1.0000 0.34950  0.15380  0.75520  Biso   1.000  H
  H95      1.0000 0.65050  0.65380  0.74480  Biso   1.000  H
  H96      1.0000 0.84950  0.34620  0.24480  Biso   1.000  H
  O53      1.0000 0.66970  0.56450  0.14310  Biso   1.000  O
  O54      1.0000 0.83030  0.43550  0.64310  Biso   1.000  O
  O55      1.0000 0.16970  0.93550  0.85690  Biso   1.000  O
  O56      1.0000 0.33030  0.06450  0.35690  Biso   1.000  O
