data_image0
_cell_length_a       9.8389
_cell_length_b       11.2975
_cell_length_c       14.234
_cell_angle_alpha    90
_cell_angle_beta     100.988
_cell_angle_gamma    90

_symmetry_space_group_name_H-M    "P 1"
_symmetry_int_tables_number       1

loop_
  _symmetry_equiv_pos_as_xyz
  'x, y, z'

loop_
  _atom_site_label
  _atom_site_occupancy
  _atom_site_fract_x
  _atom_site_fract_y
  _atom_site_fract_z
  _atom_site_thermal_displace_type
  _atom_site_B_iso_or_equiv
  _atom_site_type_symbol
  Cu1      1.0000 0.65279  0.88099  0.23482  Biso   1.000  Cu
  Cu2      1.0000 0.65279  0.61901  0.73482  Biso   1.000  Cu
  Cu3      1.0000 0.34721  0.11901  0.76518  Biso   1.000  Cu
  Cu4      1.0000 0.34721  0.38099  0.26518  Biso   1.000  Cu
  N1       1.0000 0.83390  0.81750  0.30654  Biso   1.000  N
  N2       1.0000 0.83390  0.68250  0.80654  Biso   1.000  N
  N3       1.0000 0.16610  0.18250  0.69346  Biso   1.000  N
  N4       1.0000 0.16610  0.31750  0.19346  Biso   1.000  N
  N5       1.0000 0.74570  0.03720  0.27649  Biso   1.000  N
  N6       1.0000 0.74570  0.46280  0.77649  Biso   1.000  N
  N7       1.0000 0.25430  0.96280  0.72351  Biso   1.000  N
  N8       1.0000 0.25430  0.53720  0.22351  Biso   1.000  N
  N9       1.0000 0.49150  0.95890  0.15740  Biso   1.000  N
  N10      1.0000 0.49150  0.54110  0.65740  Biso   1.000  N
  N11      1.0000 0.50850  0.04110  0.84260  Biso   1.000  N
  N12      1.0000 0.50850  0.45890  0.34260  Biso   1.000  N
  N13      1.0000 0.26560  0.98830  0.05940  Biso   1.000  N
  N14      1.0000 0.26560  0.51170  0.55940  Biso   1.000  N
  N15      1.0000 0.73440  0.01170  0.94060  Biso   1.000  N
  N16      1.0000 0.73440  0.48830  0.44060  Biso   1.000  N
  N17      1.0000 0.19230  0.09550  0.91180  Biso   1.000  N
  N18      1.0000 0.19230  0.40450  0.41180  Biso   1.000  N
  N19      1.0000 0.80770  0.90450  0.08820  Biso   1.000  N
  N20      1.0000 0.80770  0.59550  0.58820  Biso   1.000  N
  N21      1.0000 0.59820  0.72600  0.17018  Biso   1.000  N
  N22      1.0000 0.59820  0.77400  0.67018  Biso   1.000  N
  N23      1.0000 0.40180  0.27400  0.82982  Biso   1.000  N
  N24      1.0000 0.40180  0.22600  0.32982  Biso   1.000  N
  N25      1.0000 0.47350  0.65280  0.01740  Biso   1.000  N
  N26      1.0000 0.47350  0.84720  0.51740  Biso   1.000  N
  N27      1.0000 0.52650  0.34720  0.98260  Biso   1.000  N
  N28      1.0000 0.52650  0.15280  0.48260  Biso   1.000  N
  N29      1.0000 0.55140  0.64510  0.86510  Biso   1.000  N
  N30      1.0000 0.55140  0.85490  0.36510  Biso   1.000  N
  N31      1.0000 0.44860  0.35490  0.13490  Biso   1.000  N
  N32      1.0000 0.44860  0.14510  0.63490  Biso   1.000  N
  C1       1.0000 0.87130  0.70640  0.32420  Biso   1.000  C
  C2       1.0000 0.87130  0.79360  0.82420  Biso   1.000  C
  C3       1.0000 0.12870  0.29360  0.67580  Biso   1.000  C
  C4       1.0000 0.12870  0.20640  0.17580  Biso   1.000  C
  H1       1.0000 0.80970  0.64620  0.30070  Biso   1.000  H
  H2       1.0000 0.80970  0.85380  0.80070  Biso   1.000  H
  H3       1.0000 0.19030  0.35380  0.69930  Biso   1.000  H
  H4       1.0000 0.19030  0.14620  0.19930  Biso   1.000  H
  C5       1.0000 0.00200  0.67710  0.37780  Biso   1.000  C
  C6       1.0000 0.00200  0.82290  0.87780  Biso   1.000  C
  C7       1.0000 0.99800  0.32290  0.62220  Biso   1.000  C
  C8       1.0000 0.99800  0.17710  0.12220  Biso   1.000  C
  H5       1.0000 0.02520  0.59800  0.39010  Biso   1.000  H
  H6       1.0000 0.02520  0.90200  0.89010  Biso   1.000  H
  H7       1.0000 0.97480  0.40200  0.60990  Biso   1.000  H
  H8       1.0000 0.97480  0.09800  0.10990  Biso   1.000  H
  C9       1.0000 0.09400  0.76220  0.41170  Biso   1.000  C
  C10      1.0000 0.09400  0.73780  0.91170  Biso   1.000  C
  C11      1.0000 0.90600  0.23780  0.58830  Biso   1.000  C
  C12      1.0000 0.90600  0.26220  0.08830  Biso   1.000  C
  H9       1.0000 0.18100  0.74210  0.44610  Biso   1.000  H
  H10      1.0000 0.18100  0.75790  0.94610  Biso   1.000  H
  H11      1.0000 0.81900  0.25790  0.55390  Biso   1.000  H
  H12      1.0000 0.81900  0.24210  0.05390  Biso   1.000  H
  C13      1.0000 0.05800  0.88160  0.39480  Biso   1.000  C
  C14      1.0000 0.05800  0.61840  0.89480  Biso   1.000  C
  C15      1.0000 0.94200  0.11840  0.60520  Biso   1.000  C
  C16      1.0000 0.94200  0.38160  0.10520  Biso   1.000  C
  C17      1.0000 0.14420  0.98070  0.42840  Biso   1.000  C
  C18      1.0000 0.14420  0.51930  0.92840  Biso   1.000  C
  C19      1.0000 0.85580  0.01930  0.57160  Biso   1.000  C
  C20      1.0000 0.85580  0.48070  0.07160  Biso   1.000  C
  H13      1.0000 0.23340  0.96710  0.46220  Biso   1.000  H
  H14      1.0000 0.23340  0.53290  0.96220  Biso   1.000  H
  H15      1.0000 0.76660  0.03290  0.53780  Biso   1.000  H
  H16      1.0000 0.76660  0.46710  0.03780  Biso   1.000  H
  C21      1.0000 0.10020  0.09260  0.41260  Biso   1.000  C
  C22      1.0000 0.10020  0.40740  0.91260  Biso   1.000  C
  C23      1.0000 0.89980  0.90740  0.58740  Biso   1.000  C
  C24      1.0000 0.89980  0.59260  0.08740  Biso   1.000  C
  H17      1.0000 0.15950  0.15460  0.43560  Biso   1.000  H
  H18      1.0000 0.15950  0.34540  0.93560  Biso   1.000  H
  H19      1.0000 0.84050  0.84540  0.56440  Biso   1.000  H
  H20      1.0000 0.84050  0.65460  0.06440  Biso   1.000  H
  C25      1.0000 0.96270  0.11880  0.36080  Biso   1.000  C
  C26      1.0000 0.96270  0.38120  0.86080  Biso   1.000  C
  C27      1.0000 0.03730  0.88120  0.63920  Biso   1.000  C
  C28      1.0000 0.03730  0.61880  0.13920  Biso   1.000  C
  C29      1.0000 0.90810  0.23290  0.34420  Biso   1.000  C
  C30      1.0000 0.90810  0.26710  0.84420  Biso   1.000  C
  C31      1.0000 0.09190  0.76710  0.65580  Biso   1.000  C
  C32      1.0000 0.09190  0.73290  0.15580  Biso   1.000  C
  H21      1.0000 0.96120  0.29870  0.36670  Biso   1.000  H
  H22      1.0000 0.96120  0.20130  0.86670  Biso   1.000  H
  H23      1.0000 0.03880  0.70130  0.63330  Biso   1.000  H
  H24      1.0000 0.03880  0.79870  0.13330  Biso   1.000  H
  C33      1.0000 0.77530  0.24630  0.29450  Biso   1.000  C
  C34      1.0000 0.77530  0.25370  0.79450  Biso   1.000  C
  C35      1.0000 0.22470  0.75370  0.70550  Biso   1.000  C
  C36      1.0000 0.22470  0.74630  0.20550  Biso   1.000  C
  H25      1.0000 0.73750  0.32150  0.28270  Biso   1.000  H
  H26      1.0000 0.73750  0.17850  0.78270  Biso   1.000  H
  H27      1.0000 0.26250  0.67850  0.71730  Biso   1.000  H
  H28      1.0000 0.26250  0.82150  0.21730  Biso   1.000  H
  C37      1.0000 0.69700  0.14640  0.26160  Biso   1.000  C
  C38      1.0000 0.69700  0.35360  0.76160  Biso   1.000  C
  C39      1.0000 0.30300  0.85360  0.73840  Biso   1.000  C
  C40      1.0000 0.30300  0.64640  0.23840  Biso   1.000  C
  H29      1.0000 0.60710  0.15680  0.22780  Biso   1.000  H
  H30      1.0000 0.60710  0.34320  0.72780  Biso   1.000  H
  H31      1.0000 0.39290  0.84320  0.77220  Biso   1.000  H
  H32      1.0000 0.39290  0.65680  0.27220  Biso   1.000  H
  C41      1.0000 0.87800  0.02300  0.32609  Biso   1.000  C
  C42      1.0000 0.87800  0.47700  0.82609  Biso   1.000  C
  C43      1.0000 0.12200  0.97700  0.67391  Biso   1.000  C
  C44      1.0000 0.12200  0.52300  0.17391  Biso   1.000  C
  C45      1.0000 0.92480  0.90450  0.34204  Biso   1.000  C
  C46      1.0000 0.92480  0.59550  0.84204  Biso   1.000  C
  C47      1.0000 0.07520  0.09550  0.65796  Biso   1.000  C
  C48      1.0000 0.07520  0.40450  0.15796  Biso   1.000  C
  C49      1.0000 0.39210  0.97910  0.10700  Biso   1.000  C
  C50      1.0000 0.39210  0.52090  0.60700  Biso   1.000  C
  C51      1.0000 0.60790  0.02090  0.89300  Biso   1.000  C
  C52      1.0000 0.60790  0.47910  0.39300  Biso   1.000  C
  C53      1.0000 0.23800  0.05220  0.97950  Biso   1.000  C
  C54      1.0000 0.23800  0.44780  0.47950  Biso   1.000  C
  C55      1.0000 0.76200  0.94780  0.02050  Biso   1.000  C
  C56      1.0000 0.76200  0.55220  0.52050  Biso   1.000  C
  C57      1.0000 0.54430  0.69260  0.09620  Biso   1.000  C
  C58      1.0000 0.54430  0.80740  0.59620  Biso   1.000  C
  C59      1.0000 0.45570  0.30740  0.90380  Biso   1.000  C
  C60      1.0000 0.45570  0.19260  0.40380  Biso   1.000  C
  C61      1.0000 0.52200  0.65080  0.93840  Biso   1.000  C
  C62      1.0000 0.52200  0.84920  0.43840  Biso   1.000  C
  C63      1.0000 0.47800  0.34920  0.06160  Biso   1.000  C
  C64      1.0000 0.47800  0.15080  0.56160  Biso   1.000  C
