data_image0
_cell_length_a       9.8458
_cell_length_b       11.3029
_cell_length_c       14.2391
_cell_angle_alpha    90
_cell_angle_beta     100.95
_cell_angle_gamma    90

_symmetry_space_group_name_H-M    "P 1"
_symmetry_int_tables_number       1

loop_
  _symmetry_equiv_pos_as_xyz
  'x, y, z'

loop_
  _atom_site_label
  _atom_site_occupancy
  _atom_site_fract_x
  _atom_site_fract_y
  _atom_site_fract_z
  _atom_site_thermal_displace_type
  _atom_site_B_iso_or_equiv
  _atom_site_type_symbol
  Cu1      1.0000 0.65280  0.11910  0.73480  Biso   1.000  Cu
  Cu2      1.0000 0.34720  0.61910  0.76520  Biso   1.000  Cu
  Cu3      1.0000 0.34720  0.88090  0.26520  Biso   1.000  Cu
  Cu4      1.0000 0.65280  0.38090  0.23480  Biso   1.000  Cu
  C1       1.0000 0.87800  0.97670  0.82600  Biso   1.000  C
  C2       1.0000 0.12200  0.47670  0.67400  Biso   1.000  C
  C3       1.0000 0.12200  0.02330  0.17400  Biso   1.000  C
  C4       1.0000 0.87800  0.52330  0.32600  Biso   1.000  C
  C5       1.0000 0.96250  0.88100  0.86050  Biso   1.000  C
  C6       1.0000 0.03750  0.38100  0.63950  Biso   1.000  C
  C7       1.0000 0.03750  0.11900  0.13950  Biso   1.000  C
  C8       1.0000 0.96250  0.61900  0.36050  Biso   1.000  C
  N1       1.0000 0.83430  0.18270  0.80640  Biso   1.000  N
  N2       1.0000 0.16570  0.68270  0.69360  Biso   1.000  N
  N3       1.0000 0.16570  0.81730  0.19360  Biso   1.000  N
  N4       1.0000 0.83430  0.31730  0.30640  Biso   1.000  N
  C9       1.0000 0.92490  0.09560  0.84220  Biso   1.000  C
  C10      1.0000 0.07510  0.59560  0.65780  Biso   1.000  C
  C11      1.0000 0.07510  0.90440  0.15780  Biso   1.000  C
  C12      1.0000 0.92490  0.40440  0.34220  Biso   1.000  C
  C13      1.0000 0.05820  0.11860  0.89500  Biso   1.000  C
  C14      1.0000 0.94180  0.61860  0.60500  Biso   1.000  C
  C15      1.0000 0.94180  0.88140  0.10500  Biso   1.000  C
  C16      1.0000 0.05820  0.38140  0.39500  Biso   1.000  C
  N5       1.0000 0.74560  0.96320  0.77650  Biso   1.000  N
  N6       1.0000 0.25440  0.46320  0.72350  Biso   1.000  N
  N7       1.0000 0.25440  0.03680  0.22350  Biso   1.000  N
  N8       1.0000 0.74560  0.53680  0.27650  Biso   1.000  N
  N9       1.0000 0.49180  0.04020  0.65770  Biso   1.000  N
  N10      1.0000 0.50820  0.54020  0.84230  Biso   1.000  N
  N11      1.0000 0.50820  0.95980  0.34230  Biso   1.000  N
  N12      1.0000 0.49180  0.45980  0.15770  Biso   1.000  N
  C17      1.0000 0.90770  0.76730  0.84450  Biso   1.000  C
  C18      1.0000 0.09230  0.26730  0.65550  Biso   1.000  C
  C19      1.0000 0.09230  0.23270  0.15550  Biso   1.000  C
  C20      1.0000 0.90770  0.73270  0.34450  Biso   1.000  C
  C21      1.0000 0.87130  0.29350  0.82450  Biso   1.000  C
  C22      1.0000 0.12870  0.79350  0.67550  Biso   1.000  C
  C23      1.0000 0.12870  0.70650  0.17550  Biso   1.000  C
  C24      1.0000 0.87130  0.20650  0.32450  Biso   1.000  C
  C25      1.0000 0.14390  0.01920  0.92820  Biso   1.000  C
  C26      1.0000 0.85610  0.51920  0.57180  Biso   1.000  C
  C27      1.0000 0.85610  0.98080  0.07180  Biso   1.000  C
  C28      1.0000 0.14390  0.48080  0.42820  Biso   1.000  C
  C29      1.0000 0.69710  0.85400  0.76160  Biso   1.000  C
  C30      1.0000 0.30290  0.35400  0.73840  Biso   1.000  C
  C31      1.0000 0.30290  0.14600  0.23840  Biso   1.000  C
  C32      1.0000 0.69710  0.64600  0.26160  Biso   1.000  C
  C33      1.0000 0.52270  0.15020  0.93810  Biso   1.000  C
  C34      1.0000 0.47730  0.65020  0.56190  Biso   1.000  C
  C35      1.0000 0.47730  0.84980  0.06190  Biso   1.000  C
  C36      1.0000 0.52270  0.34980  0.43810  Biso   1.000  C
  N13      1.0000 0.55110  0.14480  0.86500  Biso   1.000  N
  N14      1.0000 0.44890  0.64480  0.63500  Biso   1.000  N
  N15      1.0000 0.44890  0.85520  0.13500  Biso   1.000  N
  N16      1.0000 0.55110  0.35520  0.36500  Biso   1.000  N
  C37      1.0000 0.23830  0.94780  0.47980  Biso   1.000  C
  C38      1.0000 0.76170  0.44780  0.02020  Biso   1.000  C
  C39      1.0000 0.76170  0.05220  0.52020  Biso   1.000  C
  C40      1.0000 0.23830  0.55220  0.97980  Biso   1.000  C
  C41      1.0000 0.77520  0.75380  0.79490  Biso   1.000  C
  C42      1.0000 0.22480  0.25380  0.70510  Biso   1.000  C
  C43      1.0000 0.22480  0.24620  0.20510  Biso   1.000  C
  C44      1.0000 0.77520  0.74620  0.29490  Biso   1.000  C
  N17      1.0000 0.47380  0.15290  0.01770  Biso   1.000  N
  N18      1.0000 0.52620  0.65290  0.48230  Biso   1.000  N
  N19      1.0000 0.52620  0.84710  0.98230  Biso   1.000  N
  N20      1.0000 0.47380  0.34710  0.51770  Biso   1.000  N
  C45      1.0000 0.09990  0.90810  0.91270  Biso   1.000  C
  C46      1.0000 0.90010  0.40810  0.58730  Biso   1.000  C
  C47      1.0000 0.90010  0.09190  0.08730  Biso   1.000  C
  C48      1.0000 0.09990  0.59190  0.41270  Biso   1.000  C
  C49      1.0000 0.09380  0.23780  0.91130  Biso   1.000  C
  C50      1.0000 0.90620  0.73780  0.58870  Biso   1.000  C
  C51      1.0000 0.90620  0.76220  0.08870  Biso   1.000  C
  C52      1.0000 0.09380  0.26220  0.41130  Biso   1.000  C
  C53      1.0000 0.39290  0.02110  0.60660  Biso   1.000  C
  C54      1.0000 0.60710  0.52110  0.89340  Biso   1.000  C
  C55      1.0000 0.60710  0.97890  0.39340  Biso   1.000  C
  C56      1.0000 0.39290  0.47890  0.10660  Biso   1.000  C
  N21      1.0000 0.26600  0.01160  0.55870  Biso   1.000  N
  N22      1.0000 0.73400  0.51160  0.94130  Biso   1.000  N
  N23      1.0000 0.73400  0.98840  0.44130  Biso   1.000  N
  N24      1.0000 0.26600  0.48840  0.05870  Biso   1.000  N
  N25      1.0000 0.19300  0.90440  0.41210  Biso   1.000  N
  N26      1.0000 0.80700  0.40440  0.08790  Biso   1.000  N
  N27      1.0000 0.80700  0.09560  0.58790  Biso   1.000  N
  N28      1.0000 0.19300  0.59560  0.91210  Biso   1.000  N
  C57      1.0000 0.00220  0.32340  0.87860  Biso   1.000  C
  C58      1.0000 0.99780  0.82340  0.62140  Biso   1.000  C
  C59      1.0000 0.99780  0.67660  0.12140  Biso   1.000  C
  C60      1.0000 0.00220  0.17660  0.37860  Biso   1.000  C
  C61      1.0000 0.54450  0.19270  0.09620  Biso   1.000  C
  C62      1.0000 0.45550  0.69270  0.40380  Biso   1.000  C
  C63      1.0000 0.45550  0.80730  0.90380  Biso   1.000  C
  C64      1.0000 0.54450  0.30730  0.59620  Biso   1.000  C
  N29      1.0000 0.59770  0.22550  0.17030  Biso   1.000  N
  N30      1.0000 0.40230  0.72550  0.32970  Biso   1.000  N
  N31      1.0000 0.40230  0.77450  0.82970  Biso   1.000  N
  N32      1.0000 0.59770  0.27450  0.67030  Biso   1.000  N
  H1       1.0000 0.96050  0.70150  0.86730  Biso   1.000  H
  H2       1.0000 0.03950  0.20150  0.63270  Biso   1.000  H
  H3       1.0000 0.03950  0.29850  0.13270  Biso   1.000  H
  H4       1.0000 0.96050  0.79850  0.36730  Biso   1.000  H
  H5       1.0000 0.80960  0.35360  0.80110  Biso   1.000  H
  H6       1.0000 0.19040  0.85360  0.69890  Biso   1.000  H
  H7       1.0000 0.19040  0.64640  0.19890  Biso   1.000  H
  H8       1.0000 0.80960  0.14640  0.30110  Biso   1.000  H
  H9       1.0000 0.23330  0.03250  0.96180  Biso   1.000  H
  H10      1.0000 0.76670  0.53250  0.53820  Biso   1.000  H
  H11      1.0000 0.76670  0.96750  0.03820  Biso   1.000  H
  H12      1.0000 0.23330  0.46750  0.46180  Biso   1.000  H
  H13      1.0000 0.60750  0.84350  0.72760  Biso   1.000  H
  H14      1.0000 0.39250  0.34350  0.77240  Biso   1.000  H
  H15      1.0000 0.39250  0.15650  0.27240  Biso   1.000  H
  H16      1.0000 0.60750  0.65650  0.22760  Biso   1.000  H
  H17      1.0000 0.73730  0.67860  0.78340  Biso   1.000  H
  H18      1.0000 0.26270  0.17860  0.71660  Biso   1.000  H
  H19      1.0000 0.26270  0.32140  0.21660  Biso   1.000  H
  H20      1.0000 0.73730  0.82140  0.28340  Biso   1.000  H
  H21      1.0000 0.15910  0.84630  0.93600  Biso   1.000  H
  H22      1.0000 0.84090  0.34630  0.56400  Biso   1.000  H
  H23      1.0000 0.84090  0.15370  0.06400  Biso   1.000  H
  H24      1.0000 0.15910  0.65370  0.43600  Biso   1.000  H
  H25      1.0000 0.18120  0.25790  0.94500  Biso   1.000  H
  H26      1.0000 0.81880  0.75790  0.55500  Biso   1.000  H
  H27      1.0000 0.81880  0.74210  0.05500  Biso   1.000  H
  H28      1.0000 0.18120  0.24210  0.44500  Biso   1.000  H
  H29      1.0000 0.02510  0.40230  0.89150  Biso   1.000  H
  H30      1.0000 0.97490  0.90230  0.60850  Biso   1.000  H
  H31      1.0000 0.97490  0.59770  0.10850  Biso   1.000  H
  H32      1.0000 0.02510  0.09770  0.39150  Biso   1.000  H
