data_image0
_cell_length_a       11.273
_cell_length_b       6.451
_cell_length_c       9.685
_cell_angle_alpha    90
_cell_angle_beta     90.925
_cell_angle_gamma    90

_symmetry_space_group_name_H-M    "P 1"
_symmetry_int_tables_number       1

loop_
  _symmetry_equiv_pos_as_xyz
  'x, y, z'

loop_
  _atom_site_label
  _atom_site_occupancy
  _atom_site_fract_x
  _atom_site_fract_y
  _atom_site_fract_z
  _atom_site_thermal_displace_type
  _atom_site_B_iso_or_equiv
  _atom_site_type_symbol
  Cu1      1.0000 0.00000  0.50000  0.00000  Biso   1.000  Cu
  Cu2      1.0000 0.00000  0.00000  0.50000  Biso   1.000  Cu
  O1       1.0000 0.89290  0.07900  0.73010  Biso   1.000  O
  O2       1.0000 0.10710  0.57900  0.76990  Biso   1.000  O
  O3       1.0000 0.10710  0.92100  0.26990  Biso   1.000  O
  O4       1.0000 0.89290  0.42100  0.23010  Biso   1.000  O
  N1       1.0000 0.25440  0.07700  0.93810  Biso   1.000  N
  N2       1.0000 0.74560  0.57700  0.56190  Biso   1.000  N
  N3       1.0000 0.74560  0.92300  0.06190  Biso   1.000  N
  N4       1.0000 0.25440  0.42300  0.43810  Biso   1.000  N
  O5       1.0000 0.91580  0.26630  0.91540  Biso   1.000  O
  O6       1.0000 0.08420  0.76630  0.58460  Biso   1.000  O
  O7       1.0000 0.08420  0.73370  0.08460  Biso   1.000  O
  O8       1.0000 0.91580  0.23370  0.41540  Biso   1.000  O
  N5       1.0000 0.07020  0.08000  0.82340  Biso   1.000  N
  N6       1.0000 0.92980  0.58000  0.67660  Biso   1.000  N
  N7       1.0000 0.92980  0.92000  0.17660  Biso   1.000  N
  N8       1.0000 0.07020  0.42000  0.32340  Biso   1.000  N
  N9       1.0000 0.31200  0.18230  0.04100  Biso   1.000  N
  N10      1.0000 0.68800  0.68230  0.45900  Biso   1.000  N
  N11      1.0000 0.68800  0.81770  0.95900  Biso   1.000  N
  N12      1.0000 0.31200  0.31770  0.54100  Biso   1.000  N
  N13      1.0000 0.96020  0.14450  0.82350  Biso   1.000  N
  N14      1.0000 0.03980  0.64450  0.67650  Biso   1.000  N
  N15      1.0000 0.03980  0.85550  0.17650  Biso   1.000  N
  N16      1.0000 0.96020  0.35550  0.32350  Biso   1.000  N
  C1       1.0000 0.31270  0.91780  0.85570  Biso   1.000  C
  C2       1.0000 0.68730  0.41780  0.64430  Biso   1.000  C
  C3       1.0000 0.68730  0.08220  0.14430  Biso   1.000  C
  C4       1.0000 0.31270  0.58220  0.35570  Biso   1.000  C
  H1       1.0000 0.37660  0.98230  0.80150  Biso   1.000  H
  H2       1.0000 0.62340  0.48230  0.69850  Biso   1.000  H
  H3       1.0000 0.62340  0.01770  0.19850  Biso   1.000  H
  H4       1.0000 0.37660  0.51770  0.30150  Biso   1.000  H
  H5       1.0000 0.25440  0.85630  0.79010  Biso   1.000  H
  H6       1.0000 0.74560  0.35630  0.70990  Biso   1.000  H
  H7       1.0000 0.74560  0.14370  0.20990  Biso   1.000  H
  H8       1.0000 0.25440  0.64370  0.29010  Biso   1.000  H
  C5       1.0000 0.14410  0.15560  0.92390  Biso   1.000  C
  C6       1.0000 0.85590  0.65560  0.57610  Biso   1.000  C
  C7       1.0000 0.85590  0.84440  0.07610  Biso   1.000  C
  C8       1.0000 0.14410  0.34440  0.42390  Biso   1.000  C
  C9       1.0000 0.36490  0.74860  0.94650  Biso   1.000  C
  C10      1.0000 0.63510  0.24860  0.55350  Biso   1.000  C
  C11      1.0000 0.63510  0.25140  0.05350  Biso   1.000  C
  C12      1.0000 0.36490  0.75140  0.44650  Biso   1.000  C
  H9       1.0000 0.30390  0.69310  0.00890  Biso   1.000  H
  H10      1.0000 0.69610  0.19310  0.49110  Biso   1.000  H
  H11      1.0000 0.69610  0.30690  0.99110  Biso   1.000  H
  H12      1.0000 0.30390  0.80690  0.50890  Biso   1.000  H
  H13      1.0000 0.43150  0.80380  0.00330  Biso   1.000  H
  H14      1.0000 0.56850  0.30380  0.49670  Biso   1.000  H
  H15      1.0000 0.56850  0.19620  0.99670  Biso   1.000  H
  H16      1.0000 0.43150  0.69620  0.50330  Biso   1.000  H
  N17      1.0000 0.13340  0.30700  0.01590  Biso   1.000  N
  N18      1.0000 0.86660  0.80700  0.48410  Biso   1.000  N
  N19      1.0000 0.86660  0.69300  0.98410  Biso   1.000  N
  N20      1.0000 0.13340  0.19300  0.51590  Biso   1.000  N
  N21      1.0000 0.24040  0.31890  0.08710  Biso   1.000  N
  N22      1.0000 0.75960  0.81890  0.41290  Biso   1.000  N
  N23      1.0000 0.75960  0.68110  0.91290  Biso   1.000  N
  N24      1.0000 0.24040  0.18110  0.58710  Biso   1.000  N
  Cl1      1.0000 0.41637  0.54940  0.83435  Biso   1.000  Cl
  Cl2      1.0000 0.58363  0.04940  0.66565  Biso   1.000  Cl
  Cl3      1.0000 0.58363  0.45060  0.16565  Biso   1.000  Cl
  Cl4      1.0000 0.41637  0.95060  0.33435  Biso   1.000  Cl
