data_image0
_cell_length_a       13.117
_cell_length_b       9.1142
_cell_length_c       15.326
_cell_angle_alpha    90
_cell_angle_beta     110.74
_cell_angle_gamma    90

_symmetry_space_group_name_H-M    "P 1"
_symmetry_int_tables_number       1

loop_
  _symmetry_equiv_pos_as_xyz
  'x, y, z'

loop_
  _atom_site_label
  _atom_site_occupancy
  _atom_site_fract_x
  _atom_site_fract_y
  _atom_site_fract_z
  _atom_site_thermal_displace_type
  _atom_site_B_iso_or_equiv
  _atom_site_type_symbol
  Cu1      1.0000 0.87044  0.93444  0.83556  Biso   1.000  Cu
  Cu2      1.0000 0.62956  0.43444  0.66444  Biso   1.000  Cu
  Cu3      1.0000 0.12956  0.06556  0.16444  Biso   1.000  Cu
  Cu4      1.0000 0.37044  0.56556  0.33556  Biso   1.000  Cu
  O1       1.0000 0.73080  0.92060  0.85300  Biso   1.000  O
  O2       1.0000 0.76920  0.42060  0.64700  Biso   1.000  O
  O3       1.0000 0.26920  0.07940  0.14700  Biso   1.000  O
  O4       1.0000 0.23080  0.57940  0.35300  Biso   1.000  O
  O5       1.0000 0.82220  0.07650  0.73330  Biso   1.000  O
  O6       1.0000 0.67780  0.57650  0.76670  Biso   1.000  O
  O7       1.0000 0.17780  0.92350  0.26670  Biso   1.000  O
  O8       1.0000 0.32220  0.42350  0.23330  Biso   1.000  O
  O9       1.0000 0.51090  0.92980  0.89900  Biso   1.000  O
  O10      1.0000 0.98910  0.42980  0.60100  Biso   1.000  O
  O11      1.0000 0.48910  0.07020  0.10100  Biso   1.000  O
  O12      1.0000 0.01090  0.57020  0.39900  Biso   1.000  O
  O13      1.0000 0.47600  0.27080  0.83490  Biso   1.000  O
  O14      1.0000 0.02400  0.77080  0.66510  Biso   1.000  O
  O15      1.0000 0.52400  0.72920  0.16510  Biso   1.000  O
  O16      1.0000 0.97600  0.22920  0.33490  Biso   1.000  O
  O17      1.0000 0.67400  0.24190  0.75640  Biso   1.000  O
  O18      1.0000 0.82600  0.74190  0.74360  Biso   1.000  O
  O19      1.0000 0.32600  0.75810  0.24360  Biso   1.000  O
  O20      1.0000 0.17400  0.25810  0.25640  Biso   1.000  O
  O21      1.0000 0.35250  0.51680  0.07730  Biso   1.000  O
  O22      1.0000 0.14750  0.01680  0.42270  Biso   1.000  O
  O23      1.0000 0.64750  0.48320  0.92270  Biso   1.000  O
  O24      1.0000 0.85250  0.98320  0.57730  Biso   1.000  O
  O25      1.0000 0.61330  0.71160  0.02180  Biso   1.000  O
  O26      1.0000 0.88670  0.21160  0.47820  Biso   1.000  O
  O27      1.0000 0.38670  0.28840  0.97820  Biso   1.000  O
  O28      1.0000 0.11330  0.78840  0.52180  Biso   1.000  O
  N1       1.0000 0.02600  0.96270  0.84800  Biso   1.000  N
  N2       1.0000 0.47400  0.46270  0.65200  Biso   1.000  N
  N3       1.0000 0.97400  0.03730  0.15200  Biso   1.000  N
  N4       1.0000 0.52600  0.53730  0.34800  Biso   1.000  N
  N5       1.0000 0.94040  0.81350  0.95040  Biso   1.000  N
  N6       1.0000 0.55960  0.31350  0.54960  Biso   1.000  N
  N7       1.0000 0.05960  0.18650  0.04960  Biso   1.000  N
  N8       1.0000 0.44040  0.68650  0.45040  Biso   1.000  N
  C1       1.0000 0.06210  0.04200  0.79350  Biso   1.000  C
  C2       1.0000 0.43790  0.54200  0.70650  Biso   1.000  C
  C3       1.0000 0.93790  0.95800  0.20650  Biso   1.000  C
  C4       1.0000 0.56210  0.45800  0.29350  Biso   1.000  C
  H1       1.0000 0.01210  0.09820  0.74740  Biso   1.000  H
  H2       1.0000 0.48790  0.59820  0.75260  Biso   1.000  H
  H3       1.0000 0.98790  0.90180  0.25260  Biso   1.000  H
  H4       1.0000 0.51210  0.40180  0.24740  Biso   1.000  H
  C5       1.0000 0.17260  0.04680  0.80100  Biso   1.000  C
  C6       1.0000 0.32740  0.54680  0.69900  Biso   1.000  C
  C7       1.0000 0.82740  0.95320  0.19900  Biso   1.000  C
  C8       1.0000 0.67260  0.45320  0.30100  Biso   1.000  C
  C9       1.0000 0.20570  0.13820  0.73350  Biso   1.000  C
  C10      1.0000 0.29430  0.63820  0.76650  Biso   1.000  C
  C11      1.0000 0.79430  0.86180  0.26650  Biso   1.000  C
  C12      1.0000 0.70570  0.36180  0.23350  Biso   1.000  C
  H5       1.0000 0.28270  0.12870  0.74750  Biso   1.000  H
  H6       1.0000 0.21730  0.62870  0.75250  Biso   1.000  H
  H7       1.0000 0.71730  0.87130  0.25250  Biso   1.000  H
  H8       1.0000 0.78270  0.37130  0.24750  Biso   1.000  H
  H9       1.0000 0.18820  0.23920  0.73920  Biso   1.000  H
  H10      1.0000 0.31180  0.73920  0.76080  Biso   1.000  H
  H11      1.0000 0.81180  0.76080  0.26080  Biso   1.000  H
  H12      1.0000 0.68820  0.26080  0.23920  Biso   1.000  H
  H13      1.0000 0.16720  0.10510  0.67100  Biso   1.000  H
  H14      1.0000 0.33280  0.60510  0.82900  Biso   1.000  H
  H15      1.0000 0.83280  0.89490  0.32900  Biso   1.000  H
  H16      1.0000 0.66720  0.39490  0.17100  Biso   1.000  H
  C13      1.0000 0.24390  0.96370  0.87010  Biso   1.000  C
  C14      1.0000 0.25610  0.46370  0.62990  Biso   1.000  C
  C15      1.0000 0.75610  0.03630  0.12990  Biso   1.000  C
  C16      1.0000 0.74390  0.53630  0.37010  Biso   1.000  C
  H17      1.0000 0.31770  0.96400  0.87840  Biso   1.000  H
  H18      1.0000 0.18230  0.46400  0.62160  Biso   1.000  H
  H19      1.0000 0.68230  0.03600  0.12160  Biso   1.000  H
  H20      1.0000 0.81770  0.53600  0.37840  Biso   1.000  H
  C17      1.0000 0.20730  0.88010  0.92710  Biso   1.000  C
  C18      1.0000 0.29270  0.38010  0.57290  Biso   1.000  C
  C19      1.0000 0.79270  0.11990  0.07290  Biso   1.000  C
  C20      1.0000 0.70730  0.61990  0.42710  Biso   1.000  C
  H21      1.0000 0.25620  0.82290  0.97350  Biso   1.000  H
  H22      1.0000 0.24380  0.32290  0.52650  Biso   1.000  H
  H23      1.0000 0.74380  0.17710  0.02650  Biso   1.000  H
  H24      1.0000 0.75620  0.67710  0.47350  Biso   1.000  H
  C21      1.0000 0.09820  0.88020  0.91640  Biso   1.000  C
  C22      1.0000 0.40180  0.38020  0.58360  Biso   1.000  C
  C23      1.0000 0.90180  0.11980  0.08360  Biso   1.000  C
  C24      1.0000 0.59820  0.61980  0.41640  Biso   1.000  C
  C25      1.0000 0.04980  0.79740  0.97370  Biso   1.000  C
  C26      1.0000 0.45020  0.29740  0.52630  Biso   1.000  C
  C27      1.0000 0.95020  0.20260  0.02630  Biso   1.000  C
  C28      1.0000 0.54980  0.70260  0.47370  Biso   1.000  C
  C29      1.0000 0.10870  0.70700  0.04740  Biso   1.000  C
  C30      1.0000 0.39130  0.20700  0.45260  Biso   1.000  C
  C31      1.0000 0.89130  0.29300  0.95260  Biso   1.000  C
  C32      1.0000 0.60870  0.79300  0.54740  Biso   1.000  C
  H25      1.0000 0.18360  0.69570  0.06320  Biso   1.000  H
  H26      1.0000 0.31640  0.19570  0.43680  Biso   1.000  H
  H27      1.0000 0.81640  0.30430  0.93680  Biso   1.000  H
  H28      1.0000 0.68360  0.80430  0.56320  Biso   1.000  H
  C33      1.0000 0.05400  0.63400  0.09690  Biso   1.000  C
  C34      1.0000 0.44600  0.13400  0.40310  Biso   1.000  C
  C35      1.0000 0.94600  0.36600  0.90310  Biso   1.000  C
  C36      1.0000 0.55400  0.86600  0.59690  Biso   1.000  C
  H29      1.0000 0.09290  0.57380  0.14650  Biso   1.000  H
  H30      1.0000 0.40710  0.07380  0.35350  Biso   1.000  H
  H31      1.0000 0.90710  0.42620  0.85350  Biso   1.000  H
  H32      1.0000 0.59290  0.92620  0.64650  Biso   1.000  H
  C37      1.0000 0.94240  0.64880  0.07390  Biso   1.000  C
  C38      1.0000 0.55760  0.14880  0.42610  Biso   1.000  C
  C39      1.0000 0.05760  0.35120  0.92610  Biso   1.000  C
  C40      1.0000 0.44240  0.85120  0.57390  Biso   1.000  C
  C41      1.0000 0.88120  0.57170  0.12450  Biso   1.000  C
  C42      1.0000 0.61880  0.07170  0.37550  Biso   1.000  C
  C43      1.0000 0.11880  0.42830  0.87550  Biso   1.000  C
  C44      1.0000 0.38120  0.92830  0.62450  Biso   1.000  C
  H33      1.0000 0.80530  0.59610  0.09720  Biso   1.000  H
  H34      1.0000 0.69470  0.09610  0.40280  Biso   1.000  H
  H35      1.0000 0.19470  0.40390  0.90280  Biso   1.000  H
  H36      1.0000 0.30530  0.90390  0.59720  Biso   1.000  H
  H37      1.0000 0.90830  0.60130  0.18880  Biso   1.000  H
  H38      1.0000 0.59170  0.10130  0.31120  Biso   1.000  H
  H39      1.0000 0.09170  0.39870  0.81120  Biso   1.000  H
  H40      1.0000 0.40830  0.89870  0.68880  Biso   1.000  H
  H41      1.0000 0.89020  0.46770  0.12060  Biso   1.000  H
  H42      1.0000 0.60980  0.96770  0.37940  Biso   1.000  H
  H43      1.0000 0.10980  0.53230  0.87940  Biso   1.000  H
  H44      1.0000 0.39020  0.03230  0.62060  Biso   1.000  H
  C45      1.0000 0.88940  0.74140  0.99870  Biso   1.000  C
  C46      1.0000 0.61060  0.24140  0.50130  Biso   1.000  C
  C47      1.0000 0.11060  0.25860  0.00130  Biso   1.000  C
  C48      1.0000 0.38940  0.75860  0.49870  Biso   1.000  C
  H45      1.0000 0.81440  0.75340  0.98150  Biso   1.000  H
  H46      1.0000 0.68560  0.25340  0.51850  Biso   1.000  H
  H47      1.0000 0.18560  0.24660  0.01850  Biso   1.000  H
  H48      1.0000 0.31440  0.74660  0.48150  Biso   1.000  H
  C49      1.0000 0.63120  0.15910  0.80040  Biso   1.000  C
  C50      1.0000 0.86880  0.65910  0.69960  Biso   1.000  C
  C51      1.0000 0.36880  0.84090  0.19960  Biso   1.000  C
  C52      1.0000 0.13120  0.34090  0.30040  Biso   1.000  C
  C53      1.0000 0.53920  0.17120  0.83240  Biso   1.000  C
  C54      1.0000 0.96080  0.67120  0.66760  Biso   1.000  C
  C55      1.0000 0.46080  0.82880  0.16760  Biso   1.000  C
  C56      1.0000 0.03920  0.32880  0.33240  Biso   1.000  C
  C57      1.0000 0.55850  0.01720  0.86540  Biso   1.000  C
  C58      1.0000 0.94150  0.51720  0.63460  Biso   1.000  C
  C59      1.0000 0.44150  0.98280  0.13460  Biso   1.000  C
  C60      1.0000 0.05850  0.48280  0.36540  Biso   1.000  C
  C61      1.0000 0.65520  0.01440  0.84050  Biso   1.000  C
  C62      1.0000 0.84480  0.51440  0.65950  Biso   1.000  C
  C63      1.0000 0.34480  0.98560  0.15950  Biso   1.000  C
  C64      1.0000 0.15520  0.48560  0.34050  Biso   1.000  C
  H49      1.0000 0.82330  0.98340  0.73610  Biso   1.000  H
  H50      1.0000 0.67670  0.48340  0.76390  Biso   1.000  H
  H51      1.0000 0.17670  0.01660  0.26390  Biso   1.000  H
  H52      1.0000 0.32330  0.51660  0.23610  Biso   1.000  H
  H53      1.0000 0.77610  0.14310  0.73150  Biso   1.000  H
  H54      1.0000 0.72390  0.64310  0.76850  Biso   1.000  H
  H55      1.0000 0.22390  0.85690  0.26850  Biso   1.000  H
  H56      1.0000 0.27610  0.35690  0.23150  Biso   1.000  H
  H57      1.0000 0.41160  0.56260  0.10520  Biso   1.000  H
  H58      1.0000 0.08840  0.06260  0.39480  Biso   1.000  H
  H59      1.0000 0.58840  0.43740  0.89480  Biso   1.000  H
  H60      1.0000 0.91160  0.93740  0.60520  Biso   1.000  H
  H61      1.0000 0.38660  0.43580  0.09060  Biso   1.000  H
  H62      1.0000 0.11340  0.93580  0.40940  Biso   1.000  H
  H63      1.0000 0.61340  0.56420  0.90940  Biso   1.000  H
  H64      1.0000 0.88660  0.06420  0.59060  Biso   1.000  H
  H65      1.0000 0.62280  0.63950  0.99030  Biso   1.000  H
  H66      1.0000 0.87720  0.13950  0.50970  Biso   1.000  H
  H67      1.0000 0.37720  0.36050  0.00970  Biso   1.000  H
  H68      1.0000 0.12280  0.86050  0.49030  Biso   1.000  H
  H69      1.0000 0.58650  0.71690  0.06460  Biso   1.000  H
  H70      1.0000 0.91350  0.21690  0.43540  Biso   1.000  H
  H71      1.0000 0.41350  0.28310  0.93540  Biso   1.000  H
  H72      1.0000 0.08650  0.78310  0.56460  Biso   1.000  H
