data_image0
_cell_length_a       7.6055
_cell_length_b       25.86
_cell_length_c       10.075
_cell_angle_alpha    90
_cell_angle_beta     96.585
_cell_angle_gamma    90

_symmetry_space_group_name_H-M    "P 1"
_symmetry_int_tables_number       1

loop_
  _symmetry_equiv_pos_as_xyz
  'x, y, z'

loop_
  _atom_site_label
  _atom_site_occupancy
  _atom_site_fract_x
  _atom_site_fract_y
  _atom_site_fract_z
  _atom_site_thermal_displace_type
  _atom_site_B_iso_or_equiv
  _atom_site_type_symbol
  Cu1      1.0000 0.03705  0.94603  0.18599  Biso   1.000  Cu
  Cu2      1.0000 0.96295  0.44603  0.31401  Biso   1.000  Cu
  Cu3      1.0000 0.96295  0.05397  0.81401  Biso   1.000  Cu
  Cu4      1.0000 0.03705  0.55397  0.68599  Biso   1.000  Cu
  N1       1.0000 0.81970  0.90413  0.14050  Biso   1.000  N
  N2       1.0000 0.18030  0.40413  0.35950  Biso   1.000  N
  N3       1.0000 0.18030  0.09587  0.85950  Biso   1.000  N
  N4       1.0000 0.81970  0.59587  0.64050  Biso   1.000  N
  N5       1.0000 0.64520  0.84078  0.06340  Biso   1.000  N
  N6       1.0000 0.35480  0.34078  0.43660  Biso   1.000  N
  N7       1.0000 0.35480  0.15922  0.93660  Biso   1.000  N
  N8       1.0000 0.64520  0.65922  0.56340  Biso   1.000  N
  N9       1.0000 0.62770  0.55919  0.15420  Biso   1.000  N
  N10      1.0000 0.37230  0.05919  0.34580  Biso   1.000  N
  N11      1.0000 0.37230  0.44081  0.84580  Biso   1.000  N
  N12      1.0000 0.62770  0.94081  0.65420  Biso   1.000  N
  N13      1.0000 0.76510  0.49455  0.26300  Biso   1.000  N
  N14      1.0000 0.23490  0.99455  0.23700  Biso   1.000  N
  N15      1.0000 0.23490  0.50545  0.73700  Biso   1.000  N
  N16      1.0000 0.76510  0.00545  0.76300  Biso   1.000  N
  O1       1.0000 0.00510  0.93903  0.38440  Biso   1.000  O
  O2       1.0000 0.99490  0.43903  0.11560  Biso   1.000  O
  O3       1.0000 0.99490  0.06097  0.61560  Biso   1.000  O
  O4       1.0000 0.00510  0.56097  0.88440  Biso   1.000  O
  O5       1.0000 0.16410  0.87135  0.33300  Biso   1.000  O
  O6       1.0000 0.83590  0.37135  0.16700  Biso   1.000  O
  O7       1.0000 0.83590  0.12865  0.66700  Biso   1.000  O
  O8       1.0000 0.16410  0.62865  0.83300  Biso   1.000  O
  O9       1.0000 0.13330  0.98376  0.87810  Biso   1.000  O
  O10      1.0000 0.86670  0.48376  0.62190  Biso   1.000  O
  O11      1.0000 0.86670  0.01624  0.12190  Biso   1.000  O
  O12      1.0000 0.13330  0.51624  0.37810  Biso   1.000  O
  O13      1.0000 0.12830  0.91797  0.02220  Biso   1.000  O
  O14      1.0000 0.87170  0.41797  0.47780  Biso   1.000  O
  O15      1.0000 0.87170  0.08203  0.97780  Biso   1.000  O
  O16      1.0000 0.12830  0.58203  0.52220  Biso   1.000  O
  Br1      1.0000 0.15189  0.73843  0.75244  Biso   1.000  Br
  Br2      1.0000 0.84811  0.23843  0.74756  Biso   1.000  Br
  Br3      1.0000 0.84811  0.26157  0.24756  Biso   1.000  Br
  Br4      1.0000 0.15189  0.76157  0.25244  Biso   1.000  Br
  C1       1.0000 0.10480  0.87989  0.55730  Biso   1.000  C
  C2       1.0000 0.89520  0.37989  0.94270  Biso   1.000  C
  C3       1.0000 0.89520  0.12011  0.44270  Biso   1.000  C
  C4       1.0000 0.10480  0.62011  0.05730  Biso   1.000  C
  C5       1.0000 0.10760  0.91511  0.66180  Biso   1.000  C
  C6       1.0000 0.89240  0.41511  0.83820  Biso   1.000  C
  C7       1.0000 0.89240  0.08489  0.33820  Biso   1.000  C
  C8       1.0000 0.10760  0.58489  0.16180  Biso   1.000  C
  H1       1.0000 0.09770  0.95030  0.64340  Biso   1.000  H
  H2       1.0000 0.90230  0.45030  0.85660  Biso   1.000  H
  H3       1.0000 0.90230  0.04970  0.35660  Biso   1.000  H
  H4       1.0000 0.09770  0.54970  0.14340  Biso   1.000  H
  C9       1.0000 0.12530  0.89802  0.79410  Biso   1.000  C
  C10      1.0000 0.87470  0.39802  0.70590  Biso   1.000  C
  C11      1.0000 0.87470  0.10198  0.20590  Biso   1.000  C
  C12      1.0000 0.12530  0.60198  0.29410  Biso   1.000  C
  C13      1.0000 0.13830  0.84533  0.82100  Biso   1.000  C
  C14      1.0000 0.86170  0.34533  0.67900  Biso   1.000  C
  C15      1.0000 0.86170  0.15467  0.17900  Biso   1.000  C
  C16      1.0000 0.13830  0.65467  0.32100  Biso   1.000  C
  H5       1.0000 0.14880  0.83350  0.90870  Biso   1.000  H
  H6       1.0000 0.85120  0.33350  0.59130  Biso   1.000  H
  H7       1.0000 0.85120  0.16650  0.09130  Biso   1.000  H
  H8       1.0000 0.14880  0.66650  0.40870  Biso   1.000  H
  C17      1.0000 0.13560  0.81077  0.71630  Biso   1.000  C
  C18      1.0000 0.86440  0.31077  0.78370  Biso   1.000  C
  C19      1.0000 0.86440  0.18923  0.28370  Biso   1.000  C
  C20      1.0000 0.13560  0.68923  0.21630  Biso   1.000  C
  C21      1.0000 0.11990  0.82712  0.58450  Biso   1.000  C
  C22      1.0000 0.88010  0.32712  0.91550  Biso   1.000  C
  C23      1.0000 0.88010  0.17288  0.41550  Biso   1.000  C
  C24      1.0000 0.11990  0.67288  0.08450  Biso   1.000  C
  H9       1.0000 0.11950  0.80330  0.51540  Biso   1.000  H
  H10      1.0000 0.88050  0.30330  0.98460  Biso   1.000  H
  H11      1.0000 0.88050  0.19670  0.48460  Biso   1.000  H
  H12      1.0000 0.11950  0.69670  0.01540  Biso   1.000  H
  C25      1.0000 0.09020  0.89723  0.41330  Biso   1.000  C
  C26      1.0000 0.90980  0.39723  0.08670  Biso   1.000  C
  C27      1.0000 0.90980  0.10277  0.58670  Biso   1.000  C
  C28      1.0000 0.09020  0.60277  0.91330  Biso   1.000  C
  C29      1.0000 0.12840  0.93730  0.90650  Biso   1.000  C
  C30      1.0000 0.87160  0.43730  0.59350  Biso   1.000  C
  C31      1.0000 0.87160  0.06270  0.09350  Biso   1.000  C
  C32      1.0000 0.12840  0.56270  0.40650  Biso   1.000  C
  C33      1.0000 0.65310  0.91289  0.17300  Biso   1.000  C
  C34      1.0000 0.34690  0.41289  0.32700  Biso   1.000  C
  C35      1.0000 0.34690  0.08711  0.82700  Biso   1.000  C
  C36      1.0000 0.65310  0.58711  0.67300  Biso   1.000  C
  H13      1.0000 0.61960  0.94160  0.21980  Biso   1.000  H
  H14      1.0000 0.38040  0.44160  0.28020  Biso   1.000  H
  H15      1.0000 0.38040  0.05840  0.78020  Biso   1.000  H
  H16      1.0000 0.61960  0.55840  0.71980  Biso   1.000  H
  C37      1.0000 0.54480  0.87440  0.12790  Biso   1.000  C
  C38      1.0000 0.45520  0.37440  0.37210  Biso   1.000  C
  C39      1.0000 0.45520  0.12560  0.87210  Biso   1.000  C
  C40      1.0000 0.54480  0.62560  0.62790  Biso   1.000  C
  H17      1.0000 0.42530  0.87110  0.13830  Biso   1.000  H
  H18      1.0000 0.57470  0.37110  0.36170  Biso   1.000  H
  H19      1.0000 0.57470  0.12890  0.86170  Biso   1.000  H
  H20      1.0000 0.42530  0.62890  0.63830  Biso   1.000  H
  C41      1.0000 0.80880  0.86028  0.07450  Biso   1.000  C
  C42      1.0000 0.19120  0.36028  0.42550  Biso   1.000  C
  C43      1.0000 0.19120  0.13972  0.92550  Biso   1.000  C
  C44      1.0000 0.80880  0.63972  0.57450  Biso   1.000  C
  H21      1.0000 0.90370  0.84470  0.03960  Biso   1.000  H
  H22      1.0000 0.09630  0.34470  0.46040  Biso   1.000  H
  H23      1.0000 0.09630  0.15530  0.96040  Biso   1.000  H
  H24      1.0000 0.90370  0.65530  0.53960  Biso   1.000  H
  C45      1.0000 0.59140  0.79223  0.99550  Biso   1.000  C
  C46      1.0000 0.40860  0.29223  0.50450  Biso   1.000  C
  C47      1.0000 0.40860  0.20777  0.00450  Biso   1.000  C
  C48      1.0000 0.59140  0.70777  0.49550  Biso   1.000  C
  H25      1.0000 0.46610  0.79380  0.96410  Biso   1.000  H
  H26      1.0000 0.53390  0.29380  0.53590  Biso   1.000  H
  H27      1.0000 0.53390  0.20620  0.03590  Biso   1.000  H
  H28      1.0000 0.46610  0.70620  0.46410  Biso   1.000  H
  H29      1.0000 0.65540  0.78810  0.91830  Biso   1.000  H
  H30      1.0000 0.34460  0.28810  0.58170  Biso   1.000  H
  H31      1.0000 0.34460  0.21190  0.08170  Biso   1.000  H
  H32      1.0000 0.65540  0.71190  0.41830  Biso   1.000  H
  C49      1.0000 0.62500  0.74789  0.08250  Biso   1.000  C
  C50      1.0000 0.37500  0.24789  0.41750  Biso   1.000  C
  C51      1.0000 0.37500  0.25211  0.91750  Biso   1.000  C
  C52      1.0000 0.62500  0.75211  0.58250  Biso   1.000  C
  H33      1.0000 0.54740  0.74960  0.15230  Biso   1.000  H
  H34      1.0000 0.45260  0.24960  0.34770  Biso   1.000  H
  H35      1.0000 0.45260  0.25040  0.84770  Biso   1.000  H
  H36      1.0000 0.54740  0.75040  0.65230  Biso   1.000  H
  H37      1.0000 0.74600  0.74960  0.12490  Biso   1.000  H
  H38      1.0000 0.25400  0.24960  0.37510  Biso   1.000  H
  H39      1.0000 0.25400  0.25040  0.87510  Biso   1.000  H
  H40      1.0000 0.74600  0.75040  0.62490  Biso   1.000  H
  C53      1.0000 0.59640  0.69514  0.00840  Biso   1.000  C
  C54      1.0000 0.40360  0.19514  0.49160  Biso   1.000  C
  C55      1.0000 0.40360  0.30486  0.99160  Biso   1.000  C
  C56      1.0000 0.59640  0.80486  0.50840  Biso   1.000  C
  H41      1.0000 0.47780  0.69350  0.96150  Biso   1.000  H
  H42      1.0000 0.52220  0.19350  0.53850  Biso   1.000  H
  H43      1.0000 0.52220  0.30650  0.03850  Biso   1.000  H
  H44      1.0000 0.47780  0.80650  0.46150  Biso   1.000  H
  H45      1.0000 0.68040  0.69150  0.94350  Biso   1.000  H
  H46      1.0000 0.31960  0.19150  0.55650  Biso   1.000  H
  H47      1.0000 0.31960  0.30850  0.05650  Biso   1.000  H
  H48      1.0000 0.68040  0.80850  0.44350  Biso   1.000  H
  C57      1.0000 0.62230  0.65258  0.10970  Biso   1.000  C
  C58      1.0000 0.37770  0.15258  0.39030  Biso   1.000  C
  C59      1.0000 0.37770  0.34742  0.89030  Biso   1.000  C
  C60      1.0000 0.62230  0.84742  0.60970  Biso   1.000  C
  H49      1.0000 0.74280  0.65400  0.15310  Biso   1.000  H
  H50      1.0000 0.25720  0.15400  0.34690  Biso   1.000  H
  H51      1.0000 0.25720  0.34600  0.84690  Biso   1.000  H
  H52      1.0000 0.74280  0.84600  0.65310  Biso   1.000  H
  H53      1.0000 0.54370  0.65840  0.17750  Biso   1.000  H
  H54      1.0000 0.45630  0.15840  0.32250  Biso   1.000  H
  H55      1.0000 0.45630  0.34160  0.82250  Biso   1.000  H
  H56      1.0000 0.54370  0.84160  0.67750  Biso   1.000  H
  C61      1.0000 0.58790  0.59906  0.05150  Biso   1.000  C
  C62      1.0000 0.41210  0.09906  0.44850  Biso   1.000  C
  C63      1.0000 0.41210  0.40094  0.94850  Biso   1.000  C
  C64      1.0000 0.58790  0.90094  0.55150  Biso   1.000  C
  H57      1.0000 0.46490  0.59630  0.01420  Biso   1.000  H
  H58      1.0000 0.53510  0.09630  0.48580  Biso   1.000  H
  H59      1.0000 0.53510  0.40370  0.98580  Biso   1.000  H
  H60      1.0000 0.46490  0.90370  0.51420  Biso   1.000  H
  H61      1.0000 0.66090  0.59360  0.97980  Biso   1.000  H
  H62      1.0000 0.33910  0.09360  0.52020  Biso   1.000  H
  H63      1.0000 0.33910  0.40640  0.02020  Biso   1.000  H
  H64      1.0000 0.66090  0.90640  0.47980  Biso   1.000  H
  C65      1.0000 0.57510  0.55804  0.28090  Biso   1.000  C
  C66      1.0000 0.42490  0.05804  0.21910  Biso   1.000  C
  C67      1.0000 0.42490  0.44196  0.71910  Biso   1.000  C
  C68      1.0000 0.57510  0.94196  0.78090  Biso   1.000  C
  H65      1.0000 0.49560  0.58050  0.31460  Biso   1.000  H
  H66      1.0000 0.50440  0.08050  0.18540  Biso   1.000  H
  H67      1.0000 0.50440  0.41950  0.68540  Biso   1.000  H
  H68      1.0000 0.49560  0.91950  0.81460  Biso   1.000  H
  C69      1.0000 0.65960  0.51872  0.34600  Biso   1.000  C
  C70      1.0000 0.34040  0.01872  0.15400  Biso   1.000  C
  C71      1.0000 0.34040  0.48128  0.65400  Biso   1.000  C
  C72      1.0000 0.65960  0.98128  0.84600  Biso   1.000  C
  H69      1.0000 0.64870  0.50920  0.43360  Biso   1.000  H
  H70      1.0000 0.35130  0.00920  0.06640  Biso   1.000  H
  H71      1.0000 0.35130  0.49080  0.56640  Biso   1.000  H
  H72      1.0000 0.64870  0.99080  0.93360  Biso   1.000  H
  C73      1.0000 0.74230  0.52037  0.14850  Biso   1.000  C
  C74      1.0000 0.25770  0.02037  0.35150  Biso   1.000  C
  C75      1.0000 0.25770  0.47963  0.85150  Biso   1.000  C
  C76      1.0000 0.74230  0.97963  0.64850  Biso   1.000  C
  H73      1.0000 0.79890  0.51250  0.07400  Biso   1.000  H
  H74      1.0000 0.20110  0.01250  0.42600  Biso   1.000  H
  H75      1.0000 0.20110  0.48750  0.92600  Biso   1.000  H
  H76      1.0000 0.79890  0.98750  0.57400  Biso   1.000  H
