data_image0
_cell_length_a       9.87
_cell_length_b       12.011
_cell_length_c       13.469
_cell_angle_alpha    90
_cell_angle_beta     106.42
_cell_angle_gamma    90

_symmetry_space_group_name_H-M    "P 1"
_symmetry_int_tables_number       1

loop_
  _symmetry_equiv_pos_as_xyz
  'x, y, z'

loop_
  _atom_site_label
  _atom_site_occupancy
  _atom_site_fract_x
  _atom_site_fract_y
  _atom_site_fract_z
  _atom_site_thermal_displace_type
  _atom_site_B_iso_or_equiv
  _atom_site_type_symbol
  Cu1      1.0000 0.50000  0.50000  0.50000  Biso   1.000  Cu
  Cu2      1.0000 0.00000  0.00000  0.00000  Biso   1.000  Cu
  O1       1.0000 0.07546  0.21820  0.29065  Biso   1.000  O
  O2       1.0000 0.42454  0.71820  0.20935  Biso   1.000  O
  O3       1.0000 0.92454  0.78180  0.70935  Biso   1.000  O
  O4       1.0000 0.57546  0.28180  0.79065  Biso   1.000  O
  H1       1.0000 0.10600  0.18100  0.25200  Biso   1.000  H
  H2       1.0000 0.39400  0.68100  0.24800  Biso   1.000  H
  H3       1.0000 0.89400  0.81900  0.74800  Biso   1.000  H
  H4       1.0000 0.60600  0.31900  0.75200  Biso   1.000  H
  H5       1.0000 0.11000  0.27900  0.28500  Biso   1.000  H
  H6       1.0000 0.39000  0.77900  0.21500  Biso   1.000  H
  H7       1.0000 0.89000  0.72100  0.71500  Biso   1.000  H
  H8       1.0000 0.61000  0.22100  0.78500  Biso   1.000  H
  N1       1.0000 0.67349  0.44343  0.66653  Biso   1.000  N
  N2       1.0000 0.82651  0.94343  0.83347  Biso   1.000  N
  N3       1.0000 0.32651  0.55657  0.33347  Biso   1.000  N
  N4       1.0000 0.17349  0.05657  0.16653  Biso   1.000  N
  N5       1.0000 0.76933  0.50164  0.70497  Biso   1.000  N
  N6       1.0000 0.73067  0.00164  0.79503  Biso   1.000  N
  N7       1.0000 0.23067  0.49836  0.29503  Biso   1.000  N
  N8       1.0000 0.26933  0.99836  0.20497  Biso   1.000  N
  N9       1.0000 0.86630  0.55789  0.74412  Biso   1.000  N
  N10      1.0000 0.63370  0.05789  0.75588  Biso   1.000  N
  N11      1.0000 0.13370  0.44211  0.25588  Biso   1.000  N
  N12      1.0000 0.36630  0.94211  0.24412  Biso   1.000  N
  N13      1.0000 0.26532  0.52197  0.71104  Biso   1.000  N
  N14      1.0000 0.23468  0.02197  0.78896  Biso   1.000  N
  N15      1.0000 0.73468  0.47803  0.28896  Biso   1.000  N
  N16      1.0000 0.76532  0.97803  0.21104  Biso   1.000  N
  N17      1.0000 0.35506  0.51793  0.57929  Biso   1.000  N
  N18      1.0000 0.14494  0.01793  0.92071  Biso   1.000  N
  N19      1.0000 0.64494  0.48207  0.42071  Biso   1.000  N
  N20      1.0000 0.85506  0.98207  0.07929  Biso   1.000  N
  N21      1.0000 0.12782  0.66908  0.00214  Biso   1.000  N
  N22      1.0000 0.37218  0.16908  0.49786  Biso   1.000  N
  N23      1.0000 0.87218  0.33092  0.99786  Biso   1.000  N
  N24      1.0000 0.62782  0.83092  0.50214  Biso   1.000  N
  N25      1.0000 0.05106  0.83646  0.02374  Biso   1.000  N
  N26      1.0000 0.44894  0.33646  0.47626  Biso   1.000  N
  N27      1.0000 0.94894  0.16354  0.97626  Biso   1.000  N
  N28      1.0000 0.55106  0.66354  0.52374  Biso   1.000  N
  N29      1.0000 0.41068  0.33159  0.04168  Biso   1.000  N
  N30      1.0000 0.08932  0.83159  0.45832  Biso   1.000  N
  N31      1.0000 0.58932  0.66841  0.95832  Biso   1.000  N
  N32      1.0000 0.91068  0.16841  0.54168  Biso   1.000  N
  N33      1.0000 0.57703  0.20255  0.09595  Biso   1.000  N
  N34      1.0000 0.92297  0.70255  0.40405  Biso   1.000  N
  N35      1.0000 0.42297  0.79745  0.90405  Biso   1.000  N
  N36      1.0000 0.07703  0.29745  0.59595  Biso   1.000  N
  C1       1.0000 0.26068  0.51203  0.81576  Biso   1.000  C
  C2       1.0000 0.23932  0.01203  0.68424  Biso   1.000  C
  C3       1.0000 0.73932  0.48797  0.18424  Biso   1.000  C
  C4       1.0000 0.76068  0.98797  0.31576  Biso   1.000  C
  C5       1.0000 0.18984  0.59186  0.85581  Biso   1.000  C
  C6       1.0000 0.31016  0.09186  0.64419  Biso   1.000  C
  C7       1.0000 0.81016  0.40814  0.14419  Biso   1.000  C
  C8       1.0000 0.68984  0.90814  0.35581  Biso   1.000  C
  H9       1.0000 0.14020  0.65070  0.81380  Biso   1.000  H
  H10      1.0000 0.35980  0.15070  0.68620  Biso   1.000  H
  H11      1.0000 0.85980  0.34930  0.18620  Biso   1.000  H
  H12      1.0000 0.64020  0.84930  0.31380  Biso   1.000  H
  C9       1.0000 0.19357  0.58329  0.95954  Biso   1.000  C
  C10      1.0000 0.30643  0.08329  0.54046  Biso   1.000  C
  C11      1.0000 0.80643  0.41671  0.04046  Biso   1.000  C
  C12      1.0000 0.69357  0.91671  0.45954  Biso   1.000  C
  C13      1.0000 0.26570  0.49839  0.02301  Biso   1.000  C
  C14      1.0000 0.23430  0.99839  0.47699  Biso   1.000  C
  C15      1.0000 0.73430  0.50161  0.97699  Biso   1.000  C
  C16      1.0000 0.76570  0.00161  0.52301  Biso   1.000  C
  H13      1.0000 0.26870  0.49510  0.09410  Biso   1.000  H
  H14      1.0000 0.23130  0.99510  0.40590  Biso   1.000  H
  H15      1.0000 0.73130  0.50490  0.90590  Biso   1.000  H
  H16      1.0000 0.76870  0.00490  0.59410  Biso   1.000  H
  C17      1.0000 0.33328  0.41849  0.97955  Biso   1.000  C
  C18      1.0000 0.16672  0.91849  0.52045  Biso   1.000  C
  C19      1.0000 0.66672  0.58151  0.02045  Biso   1.000  C
  C20      1.0000 0.83328  0.08151  0.47955  Biso   1.000  C
  C21      1.0000 0.32978  0.42385  0.87542  Biso   1.000  C
  C22      1.0000 0.17022  0.92385  0.62458  Biso   1.000  C
  C23      1.0000 0.67022  0.57615  0.12458  Biso   1.000  C
  C24      1.0000 0.82978  0.07615  0.37542  Biso   1.000  C
  H17      1.0000 0.37410  0.36780  0.84580  Biso   1.000  H
  H18      1.0000 0.12590  0.86780  0.65420  Biso   1.000  H
  H19      1.0000 0.62590  0.63220  0.15420  Biso   1.000  H
  H20      1.0000 0.87410  0.13220  0.34580  Biso   1.000  H
  C25      1.0000 0.37916  0.49686  0.67901  Biso   1.000  C
  C26      1.0000 0.12084  0.99686  0.82099  Biso   1.000  C
  C27      1.0000 0.62084  0.50314  0.32099  Biso   1.000  C
  C28      1.0000 0.87916  0.00314  0.17901  Biso   1.000  C
  H21      1.0000 0.46520  0.46790  0.72230  Biso   1.000  H
  H22      1.0000 0.03480  0.96790  0.77770  Biso   1.000  H
  H23      1.0000 0.53480  0.53210  0.27770  Biso   1.000  H
  H24      1.0000 0.96520  0.03210  0.22230  Biso   1.000  H
  C29      1.0000 0.21864  0.55886  0.54537  Biso   1.000  C
  C30      1.0000 0.28136  0.05886  0.95463  Biso   1.000  C
  C31      1.0000 0.78136  0.44114  0.45463  Biso   1.000  C
  C32      1.0000 0.71864  0.94114  0.04537  Biso   1.000  C
  H25      1.0000 0.17180  0.58100  0.47650  Biso   1.000  H
  H26      1.0000 0.32820  0.08100  0.02350  Biso   1.000  H
  H27      1.0000 0.82820  0.41900  0.52350  Biso   1.000  H
  H28      1.0000 0.67180  0.91900  0.97650  Biso   1.000  H
  C33      1.0000 0.16271  0.56218  0.62632  Biso   1.000  C
  C34      1.0000 0.33729  0.06218  0.87368  Biso   1.000  C
  C35      1.0000 0.83729  0.43782  0.37368  Biso   1.000  C
  C36      1.0000 0.66271  0.93782  0.12632  Biso   1.000  C
  H29      1.0000 0.07090  0.58720  0.62510  Biso   1.000  H
  H30      1.0000 0.42910  0.08720  0.87490  Biso   1.000  H
  H31      1.0000 0.92910  0.41280  0.37490  Biso   1.000  H
  H32      1.0000 0.57090  0.91280  0.12510  Biso   1.000  H
  C37      1.0000 0.12493  0.77736  0.97527  Biso   1.000  C
  C38      1.0000 0.37507  0.27736  0.52473  Biso   1.000  C
  C39      1.0000 0.87507  0.22264  0.02473  Biso   1.000  C
  C40      1.0000 0.62493  0.72264  0.47527  Biso   1.000  C
  H33      1.0000 0.17030  0.80710  0.92760  Biso   1.000  H
  H34      1.0000 0.32970  0.30710  0.57240  Biso   1.000  H
  H35      1.0000 0.82970  0.19290  0.07240  Biso   1.000  H
  H36      1.0000 0.67030  0.69290  0.42760  Biso   1.000  H
  C41      1.0000 0.00462  0.76169  0.08481  Biso   1.000  C
  C42      1.0000 0.49538  0.26169  0.41519  Biso   1.000  C
  C43      1.0000 0.99538  0.23831  0.91519  Biso   1.000  C
  C44      1.0000 0.50462  0.73831  0.58481  Biso   1.000  C
  H37      1.0000 0.94750  0.78020  0.12860  Biso   1.000  H
  H38      1.0000 0.55250  0.28020  0.37140  Biso   1.000  H
  H39      1.0000 0.05250  0.21980  0.87140  Biso   1.000  H
  H40      1.0000 0.44750  0.71980  0.62860  Biso   1.000  H
  C45      1.0000 0.05218  0.65834  0.07322  Biso   1.000  C
  C46      1.0000 0.44782  0.15834  0.42678  Biso   1.000  C
  C47      1.0000 0.94782  0.34166  0.92678  Biso   1.000  C
  C48      1.0000 0.55218  0.84166  0.57322  Biso   1.000  C
  H41      1.0000 0.03670  0.59220  0.10710  Biso   1.000  H
  H42      1.0000 0.46330  0.09220  0.39290  Biso   1.000  H
  H43      1.0000 0.96330  0.40780  0.89290  Biso   1.000  H
  H44      1.0000 0.53670  0.90780  0.60710  Biso   1.000  H
  C49      1.0000 0.52091  0.27457  0.02281  Biso   1.000  C
  C50      1.0000 0.97909  0.77457  0.47719  Biso   1.000  C
  C51      1.0000 0.47909  0.72543  0.97719  Biso   1.000  C
  C52      1.0000 0.02091  0.22543  0.52281  Biso   1.000  C
  H45      1.0000 0.55310  0.28590  0.96340  Biso   1.000  H
  H46      1.0000 0.94690  0.78590  0.53660  Biso   1.000  H
  H47      1.0000 0.44690  0.71410  0.03660  Biso   1.000  H
  H48      1.0000 0.05310  0.21410  0.46340  Biso   1.000  H
  C53      1.0000 0.49829  0.21237  0.16583  Biso   1.000  C
  C54      1.0000 0.00171  0.71237  0.33417  Biso   1.000  C
  C55      1.0000 0.50171  0.78763  0.83417  Biso   1.000  C
  C56      1.0000 0.99829  0.28763  0.66583  Biso   1.000  C
  H49      1.0000 0.51350  0.16970  0.22740  Biso   1.000  H
  H50      1.0000 0.98650  0.66970  0.27260  Biso   1.000  H
  H51      1.0000 0.48650  0.83030  0.77260  Biso   1.000  H
  H52      1.0000 0.01350  0.33030  0.72740  Biso   1.000  H
  C57      1.0000 0.39665  0.29098  0.13465  Biso   1.000  C
  C58      1.0000 0.10335  0.79098  0.36535  Biso   1.000  C
  C59      1.0000 0.60335  0.70902  0.86535  Biso   1.000  C
  C60      1.0000 0.89665  0.20902  0.63465  Biso   1.000  C
  H53      1.0000 0.32970  0.31360  0.16930  Biso   1.000  H
  H54      1.0000 0.17030  0.81360  0.33070  Biso   1.000  H
  H55      1.0000 0.67030  0.68640  0.83070  Biso   1.000  H
  H56      1.0000 0.82970  0.18640  0.66930  Biso   1.000  H
