data_image0
_cell_length_a       7.309
_cell_length_b       26.92
_cell_length_c       20.218
_cell_angle_alpha    90
_cell_angle_beta     90.83
_cell_angle_gamma    90

_symmetry_space_group_name_H-M    "P 1"
_symmetry_int_tables_number       1

loop_
  _symmetry_equiv_pos_as_xyz
  'x, y, z'

loop_
  _atom_site_label
  _atom_site_occupancy
  _atom_site_fract_x
  _atom_site_fract_y
  _atom_site_fract_z
  _atom_site_thermal_displace_type
  _atom_site_B_iso_or_equiv
  _atom_site_type_symbol
  Cu1      1.0000 0.12466  0.16147  0.48480  Biso   1.000  Cu
  Cu2      1.0000 0.37534  0.66147  0.01520  Biso   1.000  Cu
  Cu3      1.0000 0.87534  0.83853  0.51520  Biso   1.000  Cu
  Cu4      1.0000 0.62466  0.33853  0.98480  Biso   1.000  Cu
  Cl1      1.0000 0.27897  0.99445  0.34779  Biso   1.000  Cl
  Cl2      1.0000 0.22103  0.49445  0.15221  Biso   1.000  Cl
  Cl3      1.0000 0.72103  0.00555  0.65221  Biso   1.000  Cl
  Cl4      1.0000 0.77897  0.50555  0.84779  Biso   1.000  Cl
  Cl5      1.0000 0.51327  0.26013  0.25299  Biso   1.000  Cl
  Cl6      1.0000 0.98673  0.76013  0.24701  Biso   1.000  Cl
  Cl7      1.0000 0.48673  0.73987  0.74701  Biso   1.000  Cl
  Cl8      1.0000 0.01327  0.23987  0.75299  Biso   1.000  Cl
  O1       1.0000 0.30280  0.04495  0.32571  Biso   1.000  O
  O2       1.0000 0.19720  0.54495  0.17429  Biso   1.000  O
  O3       1.0000 0.69720  0.95505  0.67429  Biso   1.000  O
  O4       1.0000 0.80280  0.45505  0.82571  Biso   1.000  O
  O5       1.0000 0.12710  0.97269  0.31292  Biso   1.000  O
  O6       1.0000 0.37290  0.47269  0.18708  Biso   1.000  O
  O7       1.0000 0.87290  0.02731  0.68708  Biso   1.000  O
  O8       1.0000 0.62710  0.52731  0.81292  Biso   1.000  O
  O9       1.0000 0.44080  0.96707  0.33543  Biso   1.000  O
  O10      1.0000 0.05920  0.46707  0.16457  Biso   1.000  O
  O11      1.0000 0.55920  0.03293  0.66457  Biso   1.000  O
  O12      1.0000 0.94080  0.53293  0.83543  Biso   1.000  O
  O13      1.0000 0.24370  0.99466  0.41726  Biso   1.000  O
  O14      1.0000 0.25630  0.49466  0.08274  Biso   1.000  O
  O15      1.0000 0.75630  0.00534  0.58274  Biso   1.000  O
  O16      1.0000 0.74370  0.50534  0.91726  Biso   1.000  O
  O17      1.0000 0.36330  0.29230  0.24108  Biso   1.000  O
  O18      1.0000 0.13670  0.79230  0.25892  Biso   1.000  O
  O19      1.0000 0.63670  0.70770  0.75892  Biso   1.000  O
  O20      1.0000 0.86330  0.20770  0.74108  Biso   1.000  O
  O21      1.0000 0.63800  0.26285  0.20045  Biso   1.000  O
  O22      1.0000 0.86200  0.76285  0.29955  Biso   1.000  O
  O23      1.0000 0.36200  0.73715  0.79955  Biso   1.000  O
  O24      1.0000 0.13800  0.23715  0.70045  Biso   1.000  O
  O25      1.0000 0.44870  0.21087  0.25806  Biso   1.000  O
  O26      1.0000 0.05130  0.71087  0.24194  Biso   1.000  O
  O27      1.0000 0.55130  0.78913  0.74194  Biso   1.000  O
  O28      1.0000 0.94870  0.28913  0.75806  Biso   1.000  O
  O29      1.0000 0.60590  0.27227  0.31301  Biso   1.000  O
  O30      1.0000 0.89410  0.77227  0.18699  Biso   1.000  O
  O31      1.0000 0.39410  0.72773  0.68699  Biso   1.000  O
  O32      1.0000 0.10590  0.22773  0.81301  Biso   1.000  O
  N1       1.0000 0.89110  0.19661  0.51069  Biso   1.000  N
  N2       1.0000 0.60890  0.69661  0.98931  Biso   1.000  N
  N3       1.0000 0.10890  0.80339  0.48931  Biso   1.000  N
  N4       1.0000 0.39110  0.30339  0.01069  Biso   1.000  N
  H1       1.0000 0.90380  0.23020  0.50400  Biso   1.000  H
  H2       1.0000 0.59620  0.73020  0.99600  Biso   1.000  H
  H3       1.0000 0.09620  0.76980  0.49600  Biso   1.000  H
  H4       1.0000 0.40380  0.26980  0.00400  Biso   1.000  H
  H5       1.0000 0.79570  0.18550  0.48440  Biso   1.000  H
  H6       1.0000 0.70430  0.68550  0.01560  Biso   1.000  H
  H7       1.0000 0.20430  0.81450  0.51560  Biso   1.000  H
  H8       1.0000 0.29570  0.31450  0.98440  Biso   1.000  H
  N5       1.0000 0.10960  0.13231  0.57725  Biso   1.000  N
  N6       1.0000 0.39040  0.63231  0.92275  Biso   1.000  N
  N7       1.0000 0.89040  0.86769  0.42275  Biso   1.000  N
  N8       1.0000 0.60960  0.36769  0.07725  Biso   1.000  N
  H9       1.0000 0.18210  0.15170  0.60530  Biso   1.000  H
  H10      1.0000 0.31790  0.65170  0.89470  Biso   1.000  H
  H11      1.0000 0.81790  0.84830  0.39470  Biso   1.000  H
  H12      1.0000 0.68210  0.34830  0.10530  Biso   1.000  H
  N9       1.0000 0.29780  0.10434  0.46889  Biso   1.000  N
  N10      1.0000 0.20220  0.60434  0.03111  Biso   1.000  N
  N11      1.0000 0.70220  0.89566  0.53111  Biso   1.000  N
  N12      1.0000 0.79780  0.39566  0.96889  Biso   1.000  N
  H13      1.0000 0.24080  0.08050  0.44330  Biso   1.000  H
  H14      1.0000 0.25920  0.58050  0.05670  Biso   1.000  H
  H15      1.0000 0.75920  0.91950  0.55670  Biso   1.000  H
  H16      1.0000 0.74080  0.41950  0.94330  Biso   1.000  H
  H17      1.0000 0.39920  0.11540  0.44680  Biso   1.000  H
  H18      1.0000 0.10080  0.61540  0.05320  Biso   1.000  H
  H19      1.0000 0.60080  0.88460  0.55320  Biso   1.000  H
  H20      1.0000 0.89920  0.38460  0.94680  Biso   1.000  H
  N13      1.0000 0.06540  0.17972  0.28030  Biso   1.000  N
  N14      1.0000 0.43460  0.67972  0.21970  Biso   1.000  N
  N15      1.0000 0.93460  0.82028  0.71970  Biso   1.000  N
  N16      1.0000 0.56540  0.32028  0.78030  Biso   1.000  N
  N17      1.0000 0.08930  0.17978  0.38920  Biso   1.000  N
  N18      1.0000 0.41070  0.67978  0.11080  Biso   1.000  N
  N19      1.0000 0.91070  0.82022  0.61080  Biso   1.000  N
  N20      1.0000 0.58930  0.32022  0.88920  Biso   1.000  N
  N21      1.0000 0.98260  0.21784  0.04866  Biso   1.000  N
  N22      1.0000 0.51740  0.71784  0.45134  Biso   1.000  N
  N23      1.0000 0.01740  0.78216  0.95134  Biso   1.000  N
  N24      1.0000 0.48260  0.28216  0.54866  Biso   1.000  N
  N25      1.0000 0.83160  0.28019  0.00192  Biso   1.000  N
  N26      1.0000 0.66840  0.78019  0.49808  Biso   1.000  N
  N27      1.0000 0.16840  0.71981  0.99808  Biso   1.000  N
  N28      1.0000 0.33160  0.21981  0.50192  Biso   1.000  N
  N29      1.0000 0.18350  0.05313  0.11467  Biso   1.000  N
  N30      1.0000 0.31650  0.55313  0.38533  Biso   1.000  N
  N31      1.0000 0.81650  0.94687  0.88533  Biso   1.000  N
  N32      1.0000 0.68350  0.44687  0.61467  Biso   1.000  N
  N33      1.0000 0.20070  0.98366  0.05559  Biso   1.000  N
  N34      1.0000 0.29930  0.48366  0.44441  Biso   1.000  N
  N35      1.0000 0.79930  0.01634  0.94441  Biso   1.000  N
  N36      1.0000 0.70070  0.51634  0.55559  Biso   1.000  N
  N37      1.0000 0.72460  0.08385  0.31656  Biso   1.000  N
  N38      1.0000 0.77540  0.58385  0.18344  Biso   1.000  N
  N39      1.0000 0.27540  0.91615  0.68344  Biso   1.000  N
  N40      1.0000 0.22460  0.41615  0.81656  Biso   1.000  N
  N41      1.0000 0.67770  0.12378  0.41095  Biso   1.000  N
  N42      1.0000 0.82230  0.62378  0.08905  Biso   1.000  N
  N43      1.0000 0.32230  0.87622  0.58905  Biso   1.000  N
  N44      1.0000 0.17770  0.37622  0.91095  Biso   1.000  N
  N45      1.0000 0.61150  0.12650  0.08408  Biso   1.000  N
  N46      1.0000 0.88850  0.62650  0.41592  Biso   1.000  N
  N47      1.0000 0.38850  0.87350  0.91592  Biso   1.000  N
  N48      1.0000 0.11150  0.37350  0.58408  Biso   1.000  N
  N49      1.0000 0.49290  0.19305  0.03387  Biso   1.000  N
  N50      1.0000 0.00710  0.69305  0.46613  Biso   1.000  N
  N51      1.0000 0.50710  0.80695  0.96613  Biso   1.000  N
  N52      1.0000 0.99290  0.30695  0.53387  Biso   1.000  N
  N53      1.0000 0.79780  0.95997  0.14582  Biso   1.000  N
  N54      1.0000 0.70220  0.45997  0.35418  Biso   1.000  N
  N55      1.0000 0.20220  0.04003  0.85418  Biso   1.000  N
  N56      1.0000 0.29780  0.54003  0.64582  Biso   1.000  N
  N57      1.0000 0.80710  0.89049  0.08735  Biso   1.000  N
  N58      1.0000 0.69290  0.39049  0.41265  Biso   1.000  N
  N59      1.0000 0.19290  0.10951  0.91265  Biso   1.000  N
  N60      1.0000 0.30710  0.60951  0.58735  Biso   1.000  N
  N61      1.0000 0.56170  0.83943  0.33066  Biso   1.000  N
  N62      1.0000 0.93830  0.33943  0.16934  Biso   1.000  N
  N63      1.0000 0.43830  0.16057  0.66934  Biso   1.000  N
  N64      1.0000 0.06170  0.66057  0.83066  Biso   1.000  N
  C1       1.0000 0.07920  0.16424  0.21244  Biso   1.000  C
  C2       1.0000 0.42080  0.66424  0.28756  Biso   1.000  C
  C3       1.0000 0.92080  0.83576  0.78756  Biso   1.000  C
  C4       1.0000 0.57920  0.33576  0.71244  Biso   1.000  C
  C5       1.0000 0.03580  0.19830  0.16360  Biso   1.000  C
  C6       1.0000 0.46420  0.69830  0.33640  Biso   1.000  C
  C7       1.0000 0.96420  0.80170  0.83640  Biso   1.000  C
  C8       1.0000 0.53580  0.30170  0.66360  Biso   1.000  C
  H21      1.0000 0.00540  0.23160  0.17470  Biso   1.000  H
  H22      1.0000 0.49460  0.73160  0.32530  Biso   1.000  H
  H23      1.0000 0.99460  0.76840  0.82530  Biso   1.000  H
  H24      1.0000 0.50540  0.26840  0.67470  Biso   1.000  H
  C9       1.0000 0.03740  0.18314  0.09830  Biso   1.000  C
  C10      1.0000 0.46260  0.68314  0.40170  Biso   1.000  C
  C11      1.0000 0.96260  0.81686  0.90170  Biso   1.000  C
  C12      1.0000 0.53740  0.31686  0.59830  Biso   1.000  C
  C13      1.0000 0.08940  0.13564  0.08100  Biso   1.000  C
  C14      1.0000 0.41060  0.63564  0.41900  Biso   1.000  C
  C15      1.0000 0.91060  0.86436  0.91900  Biso   1.000  C
  C16      1.0000 0.58940  0.36436  0.58100  Biso   1.000  C
  H25      1.0000 0.09430  0.12580  0.03590  Biso   1.000  H
  H26      1.0000 0.40570  0.62580  0.46410  Biso   1.000  H
  H27      1.0000 0.90570  0.87420  0.96410  Biso   1.000  H
  H28      1.0000 0.59430  0.37420  0.53590  Biso   1.000  H
  C17      1.0000 0.13430  0.10279  0.13136  Biso   1.000  C
  C18      1.0000 0.36570  0.60279  0.36864  Biso   1.000  C
  C19      1.0000 0.86570  0.89721  0.86864  Biso   1.000  C
  C20      1.0000 0.63430  0.39721  0.63136  Biso   1.000  C
  C21      1.0000 0.12820  0.11629  0.19758  Biso   1.000  C
  C22      1.0000 0.37180  0.61629  0.30242  Biso   1.000  C
  C23      1.0000 0.87180  0.88371  0.80242  Biso   1.000  C
  C24      1.0000 0.62820  0.38371  0.69758  Biso   1.000  C
  H29      1.0000 0.15710  0.09310  0.23160  Biso   1.000  H
  H30      1.0000 0.34290  0.59310  0.26840  Biso   1.000  H
  H31      1.0000 0.84290  0.90690  0.76840  Biso   1.000  H
  H32      1.0000 0.65710  0.40690  0.73160  Biso   1.000  H
  C25      1.0000 0.12320  0.15478  0.33484  Biso   1.000  C
  C26      1.0000 0.37680  0.65478  0.16516  Biso   1.000  C
  C27      1.0000 0.87680  0.84522  0.66516  Biso   1.000  C
  C28      1.0000 0.62320  0.34522  0.83484  Biso   1.000  C
  H33      1.0000 0.18090  0.12320  0.33400  Biso   1.000  H
  H34      1.0000 0.31910  0.62320  0.16600  Biso   1.000  H
  H35      1.0000 0.81910  0.87680  0.66600  Biso   1.000  H
  H36      1.0000 0.68090  0.37680  0.83400  Biso   1.000  H
  C29      1.0000 0.00690  0.22262  0.36852  Biso   1.000  C
  C30      1.0000 0.49310  0.72262  0.13148  Biso   1.000  C
  C31      1.0000 0.99310  0.77738  0.63148  Biso   1.000  C
  C32      1.0000 0.50690  0.27738  0.86852  Biso   1.000  C
  H37      1.0000 0.96730  0.24840  0.39690  Biso   1.000  H
  H38      1.0000 0.53270  0.74840  0.10310  Biso   1.000  H
  H39      1.0000 0.03270  0.75160  0.60310  Biso   1.000  H
  H40      1.0000 0.46730  0.25160  0.89690  Biso   1.000  H
  C33      1.0000 0.98970  0.22315  0.30198  Biso   1.000  C
  C34      1.0000 0.51030  0.72315  0.19802  Biso   1.000  C
  C35      1.0000 0.01030  0.77685  0.69802  Biso   1.000  C
  C36      1.0000 0.48970  0.27685  0.80198  Biso   1.000  C
  H41      1.0000 0.93590  0.24860  0.27550  Biso   1.000  H
  H42      1.0000 0.56410  0.74860  0.22450  Biso   1.000  H
  H43      1.0000 0.06410  0.75140  0.72450  Biso   1.000  H
  H44      1.0000 0.43590  0.25140  0.77550  Biso   1.000  H
  C37      1.0000 0.86200  0.25533  0.05664  Biso   1.000  C
  C38      1.0000 0.63800  0.75533  0.44336  Biso   1.000  C
  C39      1.0000 0.13800  0.74467  0.94336  Biso   1.000  C
  C40      1.0000 0.36200  0.24467  0.55664  Biso   1.000  C
  H45      1.0000 0.80550  0.26280  0.09750  Biso   1.000  H
  H46      1.0000 0.69450  0.76280  0.40250  Biso   1.000  H
  H47      1.0000 0.19450  0.73720  0.90250  Biso   1.000  H
  H48      1.0000 0.30550  0.23720  0.59750  Biso   1.000  H
  C41      1.0000 0.93950  0.25735  0.95555  Biso   1.000  C
  C42      1.0000 0.56050  0.75735  0.54445  Biso   1.000  C
  C43      1.0000 0.06050  0.74265  0.04445  Biso   1.000  C
  C44      1.0000 0.43950  0.24265  0.45555  Biso   1.000  C
  H49      1.0000 0.94760  0.26740  0.91070  Biso   1.000  H
  H50      1.0000 0.55240  0.76740  0.58930  Biso   1.000  H
  H51      1.0000 0.05240  0.73260  0.08930  Biso   1.000  H
  H52      1.0000 0.44760  0.23260  0.41070  Biso   1.000  H
  C45      1.0000 0.03190  0.21881  0.98240  Biso   1.000  C
  C46      1.0000 0.46810  0.71881  0.51760  Biso   1.000  C
  C47      1.0000 0.96810  0.78119  0.01760  Biso   1.000  C
  C48      1.0000 0.53190  0.28119  0.48240  Biso   1.000  C
  H53      1.0000 0.11340  0.19690  0.96070  Biso   1.000  H
  H54      1.0000 0.38660  0.69690  0.53930  Biso   1.000  H
  H55      1.0000 0.88660  0.80310  0.03930  Biso   1.000  H
  H56      1.0000 0.61340  0.30310  0.46070  Biso   1.000  H
  C49      1.0000 0.13820  0.02939  0.05726  Biso   1.000  C
  C50      1.0000 0.36180  0.52939  0.44274  Biso   1.000  C
  C51      1.0000 0.86180  0.97061  0.94274  Biso   1.000  C
  C52      1.0000 0.63820  0.47061  0.55726  Biso   1.000  C
  H57      1.0000 0.06910  0.04420  0.02230  Biso   1.000  H
  H58      1.0000 0.43090  0.54420  0.47770  Biso   1.000  H
  H59      1.0000 0.93090  0.95580  0.97770  Biso   1.000  H
  H60      1.0000 0.56910  0.45580  0.52230  Biso   1.000  H
  C53      1.0000 0.28530  0.97739  0.11541  Biso   1.000  C
  C54      1.0000 0.21470  0.47739  0.38459  Biso   1.000  C
  C55      1.0000 0.71470  0.02261  0.88459  Biso   1.000  C
  C56      1.0000 0.78530  0.52261  0.61541  Biso   1.000  C
  H61      1.0000 0.34390  0.94760  0.12930  Biso   1.000  H
  H62      1.0000 0.15610  0.44760  0.37070  Biso   1.000  H
  H63      1.0000 0.65610  0.05240  0.87070  Biso   1.000  H
  H64      1.0000 0.84390  0.55240  0.62930  Biso   1.000  H
  C57      1.0000 0.27490  0.01905  0.15241  Biso   1.000  C
  C58      1.0000 0.22510  0.51905  0.34759  Biso   1.000  C
  C59      1.0000 0.72510  0.98095  0.84759  Biso   1.000  C
  C60      1.0000 0.77490  0.48095  0.65241  Biso   1.000  C
  H65      1.0000 0.32190  0.02370  0.19600  Biso   1.000  H
  H66      1.0000 0.17810  0.52370  0.30400  Biso   1.000  H
  H67      1.0000 0.67810  0.97630  0.80400  Biso   1.000  H
  H68      1.0000 0.82190  0.47630  0.69600  Biso   1.000  H
  C61      1.0000 0.71360  0.07073  0.24757  Biso   1.000  C
  C62      1.0000 0.78640  0.57073  0.25243  Biso   1.000  C
  C63      1.0000 0.28640  0.92927  0.75243  Biso   1.000  C
  C64      1.0000 0.21360  0.42927  0.74757  Biso   1.000  C
  C65      1.0000 0.66530  0.10589  0.20060  Biso   1.000  C
  C66      1.0000 0.83470  0.60589  0.29940  Biso   1.000  C
  C67      1.0000 0.33470  0.89411  0.79940  Biso   1.000  C
  C68      1.0000 0.16530  0.39411  0.70060  Biso   1.000  C
  H69      1.0000 0.63700  0.13900  0.21330  Biso   1.000  H
  H70      1.0000 0.86300  0.63900  0.28670  Biso   1.000  H
  H71      1.0000 0.36300  0.86100  0.78670  Biso   1.000  H
  H72      1.0000 0.13700  0.36100  0.71330  Biso   1.000  H
  C69      1.0000 0.65890  0.09181  0.13405  Biso   1.000  C
  C70      1.0000 0.84110  0.59181  0.36595  Biso   1.000  C
  C71      1.0000 0.34110  0.90819  0.86595  Biso   1.000  C
  C72      1.0000 0.15890  0.40819  0.63405  Biso   1.000  C
  C73      1.0000 0.70560  0.04400  0.11545  Biso   1.000  C
  C74      1.0000 0.79440  0.54400  0.38455  Biso   1.000  C
  C75      1.0000 0.29440  0.95600  0.88455  Biso   1.000  C
  C76      1.0000 0.20560  0.45600  0.61545  Biso   1.000  C
  H73      1.0000 0.70520  0.03480  0.07010  Biso   1.000  H
  H74      1.0000 0.79480  0.53480  0.42990  Biso   1.000  H
  H75      1.0000 0.29480  0.96520  0.92990  Biso   1.000  H
  H76      1.0000 0.20520  0.46520  0.57010  Biso   1.000  H
  C77      1.0000 0.75260  0.00985  0.16355  Biso   1.000  C
  C78      1.0000 0.74740  0.50985  0.33645  Biso   1.000  C
  C79      1.0000 0.24740  0.99015  0.83645  Biso   1.000  C
  C80      1.0000 0.25260  0.49015  0.66355  Biso   1.000  C
  C81      1.0000 0.75490  0.02245  0.23026  Biso   1.000  C
  C82      1.0000 0.74510  0.52245  0.26974  Biso   1.000  C
  C83      1.0000 0.24510  0.97755  0.76974  Biso   1.000  C
  C84      1.0000 0.25490  0.47755  0.73026  Biso   1.000  C
  H77      1.0000 0.78430  0.99840  0.26310  Biso   1.000  H
  H78      1.0000 0.71570  0.49840  0.23690  Biso   1.000  H
  H79      1.0000 0.21570  0.00160  0.73690  Biso   1.000  H
  H80      1.0000 0.28430  0.50160  0.76310  Biso   1.000  H
  C85      1.0000 0.65340  0.12505  0.34585  Biso   1.000  C
  C86      1.0000 0.84660  0.62505  0.15415  Biso   1.000  C
  C87      1.0000 0.34660  0.87495  0.65415  Biso   1.000  C
  C88      1.0000 0.15340  0.37495  0.84585  Biso   1.000  C
  H81      1.0000 0.59400  0.15130  0.32260  Biso   1.000  H
  H82      1.0000 0.90600  0.65130  0.17740  Biso   1.000  H
  H83      1.0000 0.40600  0.84870  0.67740  Biso   1.000  H
  H84      1.0000 0.09400  0.34870  0.82260  Biso   1.000  H
  C89      1.0000 0.76780  0.08029  0.42322  Biso   1.000  C
  C90      1.0000 0.73220  0.58029  0.07678  Biso   1.000  C
  C91      1.0000 0.23220  0.91971  0.57678  Biso   1.000  C
  C92      1.0000 0.26780  0.41971  0.92322  Biso   1.000  C
  H85      1.0000 0.80390  0.06900  0.46600  Biso   1.000  H
  H86      1.0000 0.69610  0.56900  0.03400  Biso   1.000  H
  H87      1.0000 0.19610  0.93100  0.53400  Biso   1.000  H
  H88      1.0000 0.30390  0.43100  0.96600  Biso   1.000  H
  C93      1.0000 0.79860  0.05557  0.36675  Biso   1.000  C
  C94      1.0000 0.70140  0.55557  0.13325  Biso   1.000  C
  C95      1.0000 0.20140  0.94443  0.63325  Biso   1.000  C
  C96      1.0000 0.29860  0.44443  0.86675  Biso   1.000  C
  H89      1.0000 0.85970  0.02460  0.36240  Biso   1.000  H
  H90      1.0000 0.64030  0.52460  0.13760  Biso   1.000  H
  H91      1.0000 0.14030  0.97540  0.63760  Biso   1.000  H
  H92      1.0000 0.35970  0.47540  0.86240  Biso   1.000  H
  C97      1.0000 0.51790  0.16990  0.09065  Biso   1.000  C
  C98      1.0000 0.98210  0.66990  0.40935  Biso   1.000  C
  C99      1.0000 0.48210  0.83010  0.90935  Biso   1.000  C
  C100     1.0000 0.01790  0.33010  0.59065  Biso   1.000  C
  H93      1.0000 0.47520  0.18210  0.13170  Biso   1.000  H
  H94      1.0000 0.02480  0.68210  0.36830  Biso   1.000  H
  H95      1.0000 0.52480  0.81790  0.86830  Biso   1.000  H
  H96      1.0000 0.97520  0.31790  0.63170  Biso   1.000  H
  C101     1.0000 0.57420  0.16308  0.98862  Biso   1.000  C
  C102     1.0000 0.92580  0.66308  0.51138  Biso   1.000  C
  C103     1.0000 0.42580  0.83692  0.01138  Biso   1.000  C
  C104     1.0000 0.07420  0.33692  0.48862  Biso   1.000  C
  H97      1.0000 0.57810  0.16990  0.94260  Biso   1.000  H
  H98      1.0000 0.92190  0.66990  0.55740  Biso   1.000  H
  H99      1.0000 0.42190  0.83010  0.05740  Biso   1.000  H
  H100     1.0000 0.07810  0.33010  0.44260  Biso   1.000  H
  C105     1.0000 0.64800  0.12265  0.01747  Biso   1.000  C
  C106     1.0000 0.85200  0.62265  0.48253  Biso   1.000  C
  C107     1.0000 0.35200  0.87735  0.98253  Biso   1.000  C
  C108     1.0000 0.14800  0.37735  0.51747  Biso   1.000  C
  H101     1.0000 0.71240  0.09660  0.99630  Biso   1.000  H
  H102     1.0000 0.78760  0.59660  0.50370  Biso   1.000  H
  H103     1.0000 0.28760  0.90340  0.00370  Biso   1.000  H
  H104     1.0000 0.21240  0.40340  0.49630  Biso   1.000  H
  C109     1.0000 0.73780  0.93479  0.09089  Biso   1.000  C
  C110     1.0000 0.76220  0.43479  0.40911  Biso   1.000  C
  C111     1.0000 0.26220  0.06521  0.90911  Biso   1.000  C
  C112     1.0000 0.23780  0.56521  0.59089  Biso   1.000  C
  H105     1.0000 0.65480  0.94820  0.05900  Biso   1.000  H
  H106     1.0000 0.84520  0.44820  0.44100  Biso   1.000  H
  H107     1.0000 0.34520  0.05180  0.94100  Biso   1.000  H
  H108     1.0000 0.15480  0.55180  0.55900  Biso   1.000  H
  C113     1.0000 0.91740  0.88653  0.14257  Biso   1.000  C
  C114     1.0000 0.58260  0.38653  0.35743  Biso   1.000  C
  C115     1.0000 0.08260  0.11347  0.85743  Biso   1.000  C
  C116     1.0000 0.41740  0.61347  0.64257  Biso   1.000  C
  H109     1.0000 0.98850  0.85810  0.15340  Biso   1.000  H
  H110     1.0000 0.51150  0.35810  0.34660  Biso   1.000  H
  H111     1.0000 0.01150  0.14190  0.84660  Biso   1.000  H
  H112     1.0000 0.48850  0.64190  0.65340  Biso   1.000  H
  C117     1.0000 0.91200  0.92835  0.17964  Biso   1.000  C
  C118     1.0000 0.58800  0.42835  0.32036  Biso   1.000  C
  C119     1.0000 0.08800  0.07165  0.82036  Biso   1.000  C
  C120     1.0000 0.41200  0.57165  0.67964  Biso   1.000  C
  H113     1.0000 0.97420  0.93440  0.22040  Biso   1.000  H
  H114     1.0000 0.52580  0.43440  0.27960  Biso   1.000  H
  H115     1.0000 0.02580  0.06560  0.77960  Biso   1.000  H
  H116     1.0000 0.47420  0.56560  0.72040  Biso   1.000  H
  C121     1.0000 0.84950  0.18715  0.58096  Biso   1.000  C
  C122     1.0000 0.65050  0.68715  0.91904  Biso   1.000  C
  C123     1.0000 0.15050  0.81285  0.41904  Biso   1.000  C
  C124     1.0000 0.34950  0.31285  0.08096  Biso   1.000  C
  H117     1.0000 0.71580  0.18900  0.58770  Biso   1.000  H
  H118     1.0000 0.78420  0.68900  0.91230  Biso   1.000  H
  H119     1.0000 0.28420  0.81100  0.41230  Biso   1.000  H
  H120     1.0000 0.21580  0.31100  0.08770  Biso   1.000  H
  H121     1.0000 0.90940  0.21260  0.60930  Biso   1.000  H
  H122     1.0000 0.59060  0.71260  0.89070  Biso   1.000  H
  H123     1.0000 0.09060  0.78740  0.39070  Biso   1.000  H
  H124     1.0000 0.40940  0.28740  0.10930  Biso   1.000  H
  C125     1.0000 0.91830  0.13654  0.59945  Biso   1.000  C
  C126     1.0000 0.58170  0.63654  0.90055  Biso   1.000  C
  C127     1.0000 0.08170  0.86346  0.40055  Biso   1.000  C
  C128     1.0000 0.41830  0.36346  0.09945  Biso   1.000  C
  H125     1.0000 0.91270  0.13190  0.64800  Biso   1.000  H
  H126     1.0000 0.58730  0.63190  0.85200  Biso   1.000  H
  H127     1.0000 0.08730  0.86810  0.35200  Biso   1.000  H
  H128     1.0000 0.41270  0.36810  0.14800  Biso   1.000  H
  H129     1.0000 0.84160  0.11070  0.57790  Biso   1.000  H
  H130     1.0000 0.65840  0.61070  0.92210  Biso   1.000  H
  H131     1.0000 0.15840  0.88930  0.42210  Biso   1.000  H
  H132     1.0000 0.34160  0.38930  0.07790  Biso   1.000  H
  C129     1.0000 0.18780  0.08188  0.57640  Biso   1.000  C
  C130     1.0000 0.31220  0.58188  0.92360  Biso   1.000  C
  C131     1.0000 0.81220  0.91812  0.42360  Biso   1.000  C
  C132     1.0000 0.68780  0.41812  0.07640  Biso   1.000  C
  H133     1.0000 0.09690  0.05800  0.55850  Biso   1.000  H
  H134     1.0000 0.40310  0.55800  0.94150  Biso   1.000  H
  H135     1.0000 0.90310  0.94200  0.44150  Biso   1.000  H
  H136     1.0000 0.59690  0.44200  0.05850  Biso   1.000  H
  H137     1.0000 0.22250  0.07150  0.62180  Biso   1.000  H
  H138     1.0000 0.27750  0.57150  0.87820  Biso   1.000  H
  H139     1.0000 0.77750  0.92850  0.37820  Biso   1.000  H
  H140     1.0000 0.72250  0.42850  0.12180  Biso   1.000  H
  C133     1.0000 0.35350  0.08301  0.53351  Biso   1.000  C
  C134     1.0000 0.14650  0.58301  0.96649  Biso   1.000  C
  C135     1.0000 0.64650  0.91699  0.46649  Biso   1.000  C
  C136     1.0000 0.85350  0.41699  0.03351  Biso   1.000  C
  H141     1.0000 0.45060  0.10360  0.55440  Biso   1.000  H
  H142     1.0000 0.04940  0.60360  0.94560  Biso   1.000  H
  H143     1.0000 0.54940  0.89640  0.44560  Biso   1.000  H
  H144     1.0000 0.95060  0.39640  0.05440  Biso   1.000  H
  H145     1.0000 0.40180  0.04900  0.52750  Biso   1.000  H
  H146     1.0000 0.09820  0.54900  0.97250  Biso   1.000  H
  H147     1.0000 0.59820  0.95100  0.47250  Biso   1.000  H
  H148     1.0000 0.90180  0.45100  0.02750  Biso   1.000  H
  C137     1.0000 0.51090  0.85384  0.28212  Biso   1.000  C
  C138     1.0000 0.98910  0.35384  0.21788  Biso   1.000  C
  C139     1.0000 0.48910  0.14616  0.71788  Biso   1.000  C
  C140     1.0000 0.01090  0.64616  0.78212  Biso   1.000  C
  C141     1.0000 0.44360  0.87236  0.21975  Biso   1.000  C
  C142     1.0000 0.05640  0.37236  0.28025  Biso   1.000  C
  C143     1.0000 0.55640  0.12764  0.78025  Biso   1.000  C
  C144     1.0000 0.94360  0.62764  0.71975  Biso   1.000  C
  H149     1.0000 0.41100  0.90750  0.22430  Biso   1.000  H
  H150     1.0000 0.08900  0.40750  0.27570  Biso   1.000  H
  H151     1.0000 0.58900  0.09250  0.77570  Biso   1.000  H
  H152     1.0000 0.91100  0.59250  0.72430  Biso   1.000  H
  H153     1.0000 0.33520  0.85340  0.20600  Biso   1.000  H
  H154     1.0000 0.16480  0.35340  0.29400  Biso   1.000  H
  H155     1.0000 0.66480  0.14660  0.79400  Biso   1.000  H
  H156     1.0000 0.83520  0.64660  0.70600  Biso   1.000  H
  H157     1.0000 0.53870  0.86890  0.18640  Biso   1.000  H
  H158     1.0000 0.96130  0.36890  0.31360  Biso   1.000  H
  H159     1.0000 0.46130  0.13110  0.81360  Biso   1.000  H
  H160     1.0000 0.03870  0.63110  0.68640  Biso   1.000  H
