data_image0
_cell_length_a       30.6
_cell_length_b       3.97
_cell_length_c       14.718
_cell_angle_alpha    90
_cell_angle_beta     116.661
_cell_angle_gamma    90

_symmetry_space_group_name_H-M    "P 1"
_symmetry_int_tables_number       1

loop_
  _symmetry_equiv_pos_as_xyz
  'x, y, z'

loop_
  _atom_site_label
  _atom_site_occupancy
  _atom_site_fract_x
  _atom_site_fract_y
  _atom_site_fract_z
  _atom_site_thermal_displace_type
  _atom_site_B_iso_or_equiv
  _atom_site_type_symbol
  Cu1      1.0000 0.25000  0.25000  0.50000  Biso   1.000  Cu
  Cu2      1.0000 0.75000  0.75000  0.50000  Biso   1.000  Cu
  Cu3      1.0000 0.75000  0.25000  0.00000  Biso   1.000  Cu
  Cu4      1.0000 0.25000  0.75000  0.00000  Biso   1.000  Cu
  S1       1.0000 0.34838  0.59020  0.56947  Biso   1.000  S
  S2       1.0000 0.84838  0.09020  0.56947  Biso   1.000  S
  S3       1.0000 0.65162  0.59020  0.93053  Biso   1.000  S
  S4       1.0000 0.15162  0.09020  0.93053  Biso   1.000  S
  S5       1.0000 0.65162  0.40980  0.43053  Biso   1.000  S
  S6       1.0000 0.15162  0.90980  0.43053  Biso   1.000  S
  S7       1.0000 0.34838  0.40980  0.06947  Biso   1.000  S
  S8       1.0000 0.84838  0.90980  0.06947  Biso   1.000  S
  O1       1.0000 0.29320  0.59950  0.49450  Biso   1.000  O
  O2       1.0000 0.79320  0.09950  0.49450  Biso   1.000  O
  O3       1.0000 0.70680  0.59950  0.00550  Biso   1.000  O
  O4       1.0000 0.20680  0.09950  0.00550  Biso   1.000  O
  O5       1.0000 0.70680  0.40050  0.50550  Biso   1.000  O
  O6       1.0000 0.20680  0.90050  0.50550  Biso   1.000  O
  O7       1.0000 0.29320  0.40050  0.99450  Biso   1.000  O
  O8       1.0000 0.79320  0.90050  0.99450  Biso   1.000  O
  O9       1.0000 0.37290  0.35130  0.52910  Biso   1.000  O
  O10      1.0000 0.87290  0.85130  0.52910  Biso   1.000  O
  O11      1.0000 0.62710  0.35130  0.97090  Biso   1.000  O
  O12      1.0000 0.12710  0.85130  0.97090  Biso   1.000  O
  O13      1.0000 0.62710  0.64870  0.47090  Biso   1.000  O
  O14      1.0000 0.12710  0.14870  0.47090  Biso   1.000  O
  O15      1.0000 0.37290  0.64870  0.02910  Biso   1.000  O
  O16      1.0000 0.87290  0.14870  0.02910  Biso   1.000  O
  O17      1.0000 0.45460  0.51800  0.90090  Biso   1.000  O
  O18      1.0000 0.95460  0.01800  0.90090  Biso   1.000  O
  O19      1.0000 0.54540  0.51800  0.59910  Biso   1.000  O
  O20      1.0000 0.04540  0.01800  0.59910  Biso   1.000  O
  O21      1.0000 0.54540  0.48200  0.09910  Biso   1.000  O
  O22      1.0000 0.04540  0.98200  0.09910  Biso   1.000  O
  O23      1.0000 0.45460  0.48200  0.40090  Biso   1.000  O
  O24      1.0000 0.95460  0.98200  0.40090  Biso   1.000  O
  O25      1.0000 0.44230  0.60800  0.74380  Biso   1.000  O
  O26      1.0000 0.94230  0.10800  0.74380  Biso   1.000  O
  O27      1.0000 0.55770  0.60800  0.75620  Biso   1.000  O
  O28      1.0000 0.05770  0.10800  0.75620  Biso   1.000  O
  O29      1.0000 0.55770  0.39200  0.25620  Biso   1.000  O
  O30      1.0000 0.05770  0.89200  0.25620  Biso   1.000  O
  O31      1.0000 0.44230  0.39200  0.24380  Biso   1.000  O
  O32      1.0000 0.94230  0.89200  0.24380  Biso   1.000  O
  O33      1.0000 0.46080  0.11500  0.57080  Biso   1.000  O
  O34      1.0000 0.96080  0.61500  0.57080  Biso   1.000  O
  O35      1.0000 0.53920  0.11500  0.92920  Biso   1.000  O
  O36      1.0000 0.03920  0.61500  0.92920  Biso   1.000  O
  O37      1.0000 0.53920  0.88500  0.42920  Biso   1.000  O
  O38      1.0000 0.03920  0.38500  0.42920  Biso   1.000  O
  O39      1.0000 0.46080  0.88500  0.07080  Biso   1.000  O
  O40      1.0000 0.96080  0.38500  0.07080  Biso   1.000  O
  O41      1.0000 0.47020  0.93800  0.62000  Biso   1.000  O
  O42      1.0000 0.97020  0.43800  0.62000  Biso   1.000  O
  O43      1.0000 0.52980  0.93800  0.88000  Biso   1.000  O
  O44      1.0000 0.02980  0.43800  0.88000  Biso   1.000  O
  O45      1.0000 0.52980  0.06200  0.38000  Biso   1.000  O
  O46      1.0000 0.02980  0.56200  0.38000  Biso   1.000  O
  O47      1.0000 0.47020  0.06200  0.12000  Biso   1.000  O
  O48      1.0000 0.97020  0.56200  0.12000  Biso   1.000  O
  Na1      1.0000 0.45610  0.51900  0.58640  Biso   1.000  Na
  Na2      1.0000 0.95610  0.01900  0.58640  Biso   1.000  Na
  Na3      1.0000 0.54390  0.51900  0.91360  Biso   1.000  Na
  Na4      1.0000 0.04390  0.01900  0.91360  Biso   1.000  Na
  Na5      1.0000 0.54390  0.48100  0.41360  Biso   1.000  Na
  Na6      1.0000 0.04390  0.98100  0.41360  Biso   1.000  Na
  Na7      1.0000 0.45610  0.48100  0.08640  Biso   1.000  Na
  Na8      1.0000 0.95610  0.98100  0.08640  Biso   1.000  Na
  O49      1.0000 0.50000  0.11400  0.75000  Biso   1.000  O
  O50      1.0000 0.00000  0.61400  0.75000  Biso   1.000  O
  O51      1.0000 0.50000  0.88600  0.25000  Biso   1.000  O
  O52      1.0000 0.00000  0.38600  0.25000  Biso   1.000  O
  O53      1.0000 0.50000  0.00000  0.50000  Biso   1.000  O
  O54      1.0000 0.00000  0.50000  0.50000  Biso   1.000  O
  O55      1.0000 0.50000  0.00000  0.00000  Biso   1.000  O
  O56      1.0000 0.00000  0.50000  0.00000  Biso   1.000  O
  N1       1.0000 0.29860  0.21280  0.64390  Biso   1.000  N
  N2       1.0000 0.79860  0.71280  0.64390  Biso   1.000  N
  N3       1.0000 0.70140  0.21280  0.85610  Biso   1.000  N
  N4       1.0000 0.20140  0.71280  0.85610  Biso   1.000  N
  N5       1.0000 0.70140  0.78720  0.35610  Biso   1.000  N
  N6       1.0000 0.20140  0.28720  0.35610  Biso   1.000  N
  N7       1.0000 0.29860  0.78720  0.14390  Biso   1.000  N
  N8       1.0000 0.79860  0.28720  0.14390  Biso   1.000  N
  C1       1.0000 0.34250  0.35500  0.67270  Biso   1.000  C
  C2       1.0000 0.84250  0.85500  0.67270  Biso   1.000  C
  C3       1.0000 0.65750  0.35500  0.82730  Biso   1.000  C
  C4       1.0000 0.15750  0.85500  0.82730  Biso   1.000  C
  C5       1.0000 0.65750  0.64500  0.32730  Biso   1.000  C
  C6       1.0000 0.15750  0.14500  0.32730  Biso   1.000  C
  C7       1.0000 0.34250  0.64500  0.17270  Biso   1.000  C
  C8       1.0000 0.84250  0.14500  0.17270  Biso   1.000  C
  C9       1.0000 0.37970  0.33900  0.77260  Biso   1.000  C
  C10      1.0000 0.87970  0.83900  0.77260  Biso   1.000  C
  C11      1.0000 0.62030  0.33900  0.72740  Biso   1.000  C
  C12      1.0000 0.12030  0.83900  0.72740  Biso   1.000  C
  C13      1.0000 0.62030  0.66100  0.22740  Biso   1.000  C
  C14      1.0000 0.12030  0.16100  0.22740  Biso   1.000  C
  C15      1.0000 0.37970  0.66100  0.27260  Biso   1.000  C
  C16      1.0000 0.87970  0.16100  0.27260  Biso   1.000  C
  C17      1.0000 0.36860  0.17300  0.84350  Biso   1.000  C
  C18      1.0000 0.86860  0.67300  0.84350  Biso   1.000  C
  C19      1.0000 0.63140  0.17300  0.65650  Biso   1.000  C
  C20      1.0000 0.13140  0.67300  0.65650  Biso   1.000  C
  C21      1.0000 0.63140  0.82700  0.15650  Biso   1.000  C
  C22      1.0000 0.13140  0.32700  0.15650  Biso   1.000  C
  C23      1.0000 0.36860  0.82700  0.34350  Biso   1.000  C
  C24      1.0000 0.86860  0.32700  0.34350  Biso   1.000  C
  H1       1.0000 0.39210  0.16380  0.91280  Biso   1.000  H
  H2       1.0000 0.89210  0.66380  0.91280  Biso   1.000  H
  H3       1.0000 0.60790  0.16380  0.58720  Biso   1.000  H
  H4       1.0000 0.10790  0.66380  0.58720  Biso   1.000  H
  H5       1.0000 0.60790  0.83620  0.08720  Biso   1.000  H
  H6       1.0000 0.10790  0.33620  0.08720  Biso   1.000  H
  H7       1.0000 0.39210  0.83620  0.41280  Biso   1.000  H
  H8       1.0000 0.89210  0.33620  0.41280  Biso   1.000  H
  C25      1.0000 0.32300  0.02000  0.81270  Biso   1.000  C
  C26      1.0000 0.82300  0.52000  0.81270  Biso   1.000  C
  C27      1.0000 0.67700  0.02000  0.68730  Biso   1.000  C
  C28      1.0000 0.17700  0.52000  0.68730  Biso   1.000  C
  C29      1.0000 0.67700  0.98000  0.18730  Biso   1.000  C
  C30      1.0000 0.17700  0.48000  0.18730  Biso   1.000  C
  C31      1.0000 0.32300  0.98000  0.31270  Biso   1.000  C
  C32      1.0000 0.82300  0.48000  0.31270  Biso   1.000  C
  H9       1.0000 0.31560  0.90220  0.86050  Biso   1.000  H
  H10      1.0000 0.81560  0.40220  0.86050  Biso   1.000  H
  H11      1.0000 0.68440  0.90220  0.63950  Biso   1.000  H
  H12      1.0000 0.18440  0.40220  0.63950  Biso   1.000  H
  H13      1.0000 0.68440  0.09780  0.13950  Biso   1.000  H
  H14      1.0000 0.18440  0.59780  0.13950  Biso   1.000  H
  H15      1.0000 0.31560  0.09780  0.36050  Biso   1.000  H
  H16      1.0000 0.81560  0.59780  0.36050  Biso   1.000  H
  C33      1.0000 0.28850  0.04200  0.71160  Biso   1.000  C
  C34      1.0000 0.78850  0.54200  0.71160  Biso   1.000  C
  C35      1.0000 0.71150  0.04200  0.78840  Biso   1.000  C
  C36      1.0000 0.21150  0.54200  0.78840  Biso   1.000  C
  C37      1.0000 0.71150  0.95800  0.28840  Biso   1.000  C
  C38      1.0000 0.21150  0.45800  0.28840  Biso   1.000  C
  C39      1.0000 0.28850  0.95800  0.21160  Biso   1.000  C
  C40      1.0000 0.78850  0.45800  0.21160  Biso   1.000  C
  H17      1.0000 0.25760  0.93530  0.68970  Biso   1.000  H
  H18      1.0000 0.75760  0.43530  0.68970  Biso   1.000  H
  H19      1.0000 0.74240  0.93530  0.81030  Biso   1.000  H
  H20      1.0000 0.24240  0.43530  0.81030  Biso   1.000  H
  H21      1.0000 0.74240  0.06470  0.31030  Biso   1.000  H
  H22      1.0000 0.24240  0.56470  0.31030  Biso   1.000  H
  H23      1.0000 0.25760  0.06470  0.18970  Biso   1.000  H
  H24      1.0000 0.75760  0.56470  0.18970  Biso   1.000  H
  C41      1.0000 0.43010  0.50000  0.80860  Biso   1.000  C
  C42      1.0000 0.93010  0.00000  0.80860  Biso   1.000  C
  C43      1.0000 0.56990  0.50000  0.69140  Biso   1.000  C
  C44      1.0000 0.06990  0.00000  0.69140  Biso   1.000  C
  C45      1.0000 0.56990  0.50000  0.19140  Biso   1.000  C
  C46      1.0000 0.06990  0.00000  0.19140  Biso   1.000  C
  C47      1.0000 0.43010  0.50000  0.30860  Biso   1.000  C
  C48      1.0000 0.93010  0.00000  0.30860  Biso   1.000  C
