data_image0
_cell_length_a       8.571
_cell_length_b       22.675
_cell_length_c       7.325
_cell_angle_alpha    90
_cell_angle_beta     90
_cell_angle_gamma    90

_symmetry_space_group_name_H-M    "P 1"
_symmetry_int_tables_number       1

loop_
  _symmetry_equiv_pos_as_xyz
  'x, y, z'

loop_
  _atom_site_label
  _atom_site_occupancy
  _atom_site_fract_x
  _atom_site_fract_y
  _atom_site_fract_z
  _atom_site_thermal_displace_type
  _atom_site_B_iso_or_equiv
  _atom_site_type_symbol
  Cu1      1.0000 0.67590  0.76250  0.34700  Biso   1.000  Cu
  Cu2      1.0000 0.82410  0.23750  0.84700  Biso   1.000  Cu
  Cu3      1.0000 0.17590  0.73750  0.65300  Biso   1.000  Cu
  Cu4      1.0000 0.32410  0.26250  0.15300  Biso   1.000  Cu
  O1       1.0000 0.32020  0.79390  0.53490  Biso   1.000  O
  O2       1.0000 0.17980  0.20610  0.03490  Biso   1.000  O
  O3       1.0000 0.82020  0.70610  0.46510  Biso   1.000  O
  O4       1.0000 0.67980  0.29390  0.96510  Biso   1.000  O
  O5       1.0000 0.14870  0.76890  0.32700  Biso   1.000  O
  O6       1.0000 0.35130  0.23110  0.82700  Biso   1.000  O
  O7       1.0000 0.64870  0.73110  0.67300  Biso   1.000  O
  O8       1.0000 0.85130  0.26890  0.17300  Biso   1.000  O
  O9       1.0000 0.50290  0.92480  0.29710  Biso   1.000  O
  O10      1.0000 0.99710  0.07520  0.79710  Biso   1.000  O
  O11      1.0000 0.00290  0.57520  0.70290  Biso   1.000  O
  O12      1.0000 0.49710  0.42480  0.20290  Biso   1.000  O
  O13      1.0000 0.53660  0.69970  0.26440  Biso   1.000  O
  O14      1.0000 0.96340  0.30030  0.76440  Biso   1.000  O
  O15      1.0000 0.03660  0.80030  0.73560  Biso   1.000  O
  O16      1.0000 0.46340  0.19970  0.23560  Biso   1.000  O
  O17      1.0000 0.36870  0.65940  0.07040  Biso   1.000  O
  O18      1.0000 0.13130  0.34060  0.57040  Biso   1.000  O
  O19      1.0000 0.86870  0.84060  0.92960  Biso   1.000  O
  O20      1.0000 0.63130  0.15940  0.42960  Biso   1.000  O
  O21      1.0000 0.55480  0.85940  0.75970  Biso   1.000  O
  O22      1.0000 0.94520  0.14060  0.25970  Biso   1.000  O
  O23      1.0000 0.05480  0.64060  0.24030  Biso   1.000  O
  O24      1.0000 0.44520  0.35940  0.74030  Biso   1.000  O
  N1       1.0000 0.53920  0.82490  0.28080  Biso   1.000  N
  N2       1.0000 0.96080  0.17510  0.78080  Biso   1.000  N
  N3       1.0000 0.03920  0.67510  0.71920  Biso   1.000  N
  N4       1.0000 0.46080  0.32490  0.21920  Biso   1.000  N
  N5       1.0000 0.83170  0.82690  0.34800  Biso   1.000  N
  N6       1.0000 0.66830  0.17310  0.84800  Biso   1.000  N
  N7       1.0000 0.33170  0.67310  0.65200  Biso   1.000  N
  N8       1.0000 0.16830  0.32690  0.15200  Biso   1.000  N
  N9       1.0000 0.24560  0.00050  0.32100  Biso   1.000  N
  N10      1.0000 0.25440  0.99950  0.82100  Biso   1.000  N
  N11      1.0000 0.74560  0.49950  0.67900  Biso   1.000  N
  N12      1.0000 0.75440  0.50050  0.17900  Biso   1.000  N
  N13      1.0000 0.25980  0.10160  0.31200  Biso   1.000  N
  N14      1.0000 0.24020  0.89840  0.81200  Biso   1.000  N
  N15      1.0000 0.75980  0.39840  0.68800  Biso   1.000  N
  N16      1.0000 0.74020  0.60160  0.18800  Biso   1.000  N
  N17      1.0000 0.48150  0.04630  0.32200  Biso   1.000  N
  N18      1.0000 0.01850  0.95370  0.82200  Biso   1.000  N
  N19      1.0000 0.98150  0.45370  0.67800  Biso   1.000  N
  N20      1.0000 0.51850  0.54630  0.17800  Biso   1.000  N
  C1       1.0000 0.27500  0.79150  0.37100  Biso   1.000  C
  C2       1.0000 0.22500  0.20850  0.87100  Biso   1.000  C
  C3       1.0000 0.77500  0.70850  0.62900  Biso   1.000  C
  C4       1.0000 0.72500  0.29150  0.12900  Biso   1.000  C
  C5       1.0000 0.38260  0.81210  0.21700  Biso   1.000  C
  C6       1.0000 0.11740  0.18790  0.71700  Biso   1.000  C
  C7       1.0000 0.88260  0.68790  0.78300  Biso   1.000  C
  C8       1.0000 0.61740  0.31210  0.28300  Biso   1.000  C
  C9       1.0000 0.58400  0.87870  0.31400  Biso   1.000  C
  C10      1.0000 0.91600  0.12130  0.81400  Biso   1.000  C
  C11      1.0000 0.08400  0.62130  0.68600  Biso   1.000  C
  C12      1.0000 0.41600  0.37870  0.18600  Biso   1.000  C
  C13      1.0000 0.75100  0.88420  0.38100  Biso   1.000  C
  C14      1.0000 0.74900  0.11580  0.88100  Biso   1.000  C
  C15      1.0000 0.25100  0.61580  0.61900  Biso   1.000  C
  C16      1.0000 0.24900  0.38420  0.11900  Biso   1.000  C
  C17      1.0000 0.38760  0.76470  0.07280  Biso   1.000  C
  C18      1.0000 0.11240  0.23530  0.57280  Biso   1.000  C
  C19      1.0000 0.88760  0.73530  0.92720  Biso   1.000  C
  C20      1.0000 0.61240  0.26470  0.42720  Biso   1.000  C
  C21      1.0000 0.43200  0.70370  0.13900  Biso   1.000  C
  C22      1.0000 0.06800  0.29630  0.63900  Biso   1.000  C
  C23      1.0000 0.93200  0.79630  0.86100  Biso   1.000  C
  C24      1.0000 0.56800  0.20370  0.36100  Biso   1.000  C
  C25      1.0000 0.83600  0.93670  0.29300  Biso   1.000  C
  C26      1.0000 0.66400  0.06330  0.79300  Biso   1.000  C
  C27      1.0000 0.33600  0.56330  0.70700  Biso   1.000  C
  C28      1.0000 0.16400  0.43670  0.20700  Biso   1.000  C
  C29      1.0000 0.01200  0.93790  0.32900  Biso   1.000  C
  C30      1.0000 0.48800  0.06210  0.82900  Biso   1.000  C
  C31      1.0000 0.51200  0.56210  0.67100  Biso   1.000  C
  C32      1.0000 0.98800  0.43790  0.17100  Biso   1.000  C
  C33      1.0000 0.07700  0.99930  0.30700  Biso   1.000  C
  C34      1.0000 0.42300  0.00070  0.80700  Biso   1.000  C
  C35      1.0000 0.57700  0.50070  0.69300  Biso   1.000  C
  C36      1.0000 0.92300  0.49930  0.19300  Biso   1.000  C
  C37      1.0000 0.32700  0.04930  0.31600  Biso   1.000  C
  C38      1.0000 0.17300  0.95070  0.81600  Biso   1.000  C
  C39      1.0000 0.82700  0.45070  0.68400  Biso   1.000  C
  C40      1.0000 0.67300  0.54930  0.18400  Biso   1.000  C
  H1       1.0000 0.34400  0.84600  0.16500  Biso   1.000  H
  H2       1.0000 0.15600  0.15400  0.66500  Biso   1.000  H
  H3       1.0000 0.84400  0.65400  0.83500  Biso   1.000  H
  H4       1.0000 0.65600  0.34600  0.33500  Biso   1.000  H
  H5       1.0000 0.75300  0.88620  0.49090  Biso   1.000  H
  H6       1.0000 0.74700  0.11380  0.99090  Biso   1.000  H
  H7       1.0000 0.25300  0.61380  0.50910  Biso   1.000  H
  H8       1.0000 0.24700  0.38620  0.00910  Biso   1.000  H
  H9       1.0000 0.90550  0.82010  0.44170  Biso   1.000  H
  H10      1.0000 0.59450  0.17990  0.94170  Biso   1.000  H
  H11      1.0000 0.40550  0.67990  0.55830  Biso   1.000  H
  H12      1.0000 0.09450  0.32010  0.05830  Biso   1.000  H
  H13      1.0000 0.88290  0.82810  0.23300  Biso   1.000  H
  H14      1.0000 0.61710  0.17190  0.73300  Biso   1.000  H
  H15      1.0000 0.38290  0.67190  0.76700  Biso   1.000  H
  H16      1.0000 0.11710  0.32810  0.26700  Biso   1.000  H
  H17      1.0000 0.46470  0.77030  0.96190  Biso   1.000  H
  H18      1.0000 0.03530  0.22970  0.46190  Biso   1.000  H
  H19      1.0000 0.96470  0.72970  0.03810  Biso   1.000  H
  H20      1.0000 0.53530  0.27030  0.53810  Biso   1.000  H
  H21      1.0000 0.30100  0.76110  0.02850  Biso   1.000  H
  H22      1.0000 0.19900  0.23890  0.52850  Biso   1.000  H
  H23      1.0000 0.80100  0.73890  0.97150  Biso   1.000  H
  H24      1.0000 0.69900  0.26110  0.47150  Biso   1.000  H
  H25      1.0000 0.81000  0.93400  0.16000  Biso   1.000  H
  H26      1.0000 0.69000  0.06600  0.66000  Biso   1.000  H
  H27      1.0000 0.31000  0.56600  0.84000  Biso   1.000  H
  H28      1.0000 0.19000  0.43400  0.34000  Biso   1.000  H
  H29      1.0000 0.78400  0.97200  0.36000  Biso   1.000  H
  H30      1.0000 0.71600  0.02800  0.86000  Biso   1.000  H
  H31      1.0000 0.28400  0.52800  0.64000  Biso   1.000  H
  H32      1.0000 0.21600  0.47200  0.14000  Biso   1.000  H
  H33      1.0000 0.06400  0.91260  0.24550  Biso   1.000  H
  H34      1.0000 0.43600  0.08740  0.74550  Biso   1.000  H
  H35      1.0000 0.56400  0.58740  0.75450  Biso   1.000  H
  H36      1.0000 0.93600  0.41260  0.25450  Biso   1.000  H
  H37      1.0000 0.02450  0.92700  0.48400  Biso   1.000  H
  H38      1.0000 0.47550  0.07300  0.98400  Biso   1.000  H
  H39      1.0000 0.52450  0.57300  0.51600  Biso   1.000  H
  H40      1.0000 0.97550  0.42700  0.01600  Biso   1.000  H
  H41      1.0000 0.04400  0.01200  0.18700  Biso   1.000  H
  H42      1.0000 0.45600  0.98800  0.68700  Biso   1.000  H
  H43      1.0000 0.54400  0.48800  0.81300  Biso   1.000  H
  H44      1.0000 0.95600  0.51200  0.31300  Biso   1.000  H
  H45      1.0000 0.03160  0.02360  0.40450  Biso   1.000  H
  H46      1.0000 0.46840  0.97640  0.90450  Biso   1.000  H
  H47      1.0000 0.53160  0.47640  0.59550  Biso   1.000  H
  H48      1.0000 0.96840  0.52360  0.09550  Biso   1.000  H
  H49      1.0000 0.29870  0.96310  0.33560  Biso   1.000  H
  H50      1.0000 0.20130  0.03690  0.83560  Biso   1.000  H
  H51      1.0000 0.79870  0.53690  0.66440  Biso   1.000  H
  H52      1.0000 0.70130  0.46310  0.16440  Biso   1.000  H
  H53      1.0000 0.14970  0.10520  0.30790  Biso   1.000  H
  H54      1.0000 0.35030  0.89480  0.80790  Biso   1.000  H
  H55      1.0000 0.64970  0.39480  0.69210  Biso   1.000  H
  H56      1.0000 0.85030  0.60520  0.19210  Biso   1.000  H
  H57      1.0000 0.32350  0.13600  0.31370  Biso   1.000  H
  H58      1.0000 0.17650  0.86400  0.81370  Biso   1.000  H
  H59      1.0000 0.82350  0.36400  0.68630  Biso   1.000  H
  H60      1.0000 0.67650  0.63600  0.18630  Biso   1.000  H
  H61      1.0000 0.53170  0.00890  0.32480  Biso   1.000  H
  H62      1.0000 0.96830  0.99110  0.82480  Biso   1.000  H
  H63      1.0000 0.03170  0.49110  0.67520  Biso   1.000  H
  H64      1.0000 0.46830  0.50890  0.17520  Biso   1.000  H
  H65      1.0000 0.54140  0.08140  0.32330  Biso   1.000  H
  H66      1.0000 0.95860  0.91860  0.82330  Biso   1.000  H
  H67      1.0000 0.04140  0.41860  0.67670  Biso   1.000  H
  H68      1.0000 0.45860  0.58140  0.17670  Biso   1.000  H
  H69      1.0000 0.65220  0.86030  0.85720  Biso   1.000  H
  H70      1.0000 0.84780  0.13970  0.35720  Biso   1.000  H
  H71      1.0000 0.15220  0.63970  0.14280  Biso   1.000  H
  H72      1.0000 0.34780  0.36030  0.64280  Biso   1.000  H
  H73      1.0000 0.53250  0.81150  0.74300  Biso   1.000  H
  H74      1.0000 0.96750  0.18850  0.24300  Biso   1.000  H
  H75      1.0000 0.03250  0.68850  0.25700  Biso   1.000  H
  H76      1.0000 0.46750  0.31150  0.75700  Biso   1.000  H
