data_image0
_cell_length_a       10.078
_cell_length_b       20.506
_cell_length_c       8.796
_cell_angle_alpha    90
_cell_angle_beta     90
_cell_angle_gamma    90

_symmetry_space_group_name_H-M    "P 1"
_symmetry_int_tables_number       1

loop_
  _symmetry_equiv_pos_as_xyz
  'x, y, z'

loop_
  _atom_site_label
  _atom_site_occupancy
  _atom_site_fract_x
  _atom_site_fract_y
  _atom_site_fract_z
  _atom_site_thermal_displace_type
  _atom_site_B_iso_or_equiv
  _atom_site_type_symbol
  Cu1      1.0000 0.42640  0.74643  0.31650  Biso   1.000  Cu
  Cu2      1.0000 0.07360  0.25357  0.81650  Biso   1.000  Cu
  Cu3      1.0000 0.92640  0.75357  0.68350  Biso   1.000  Cu
  Cu4      1.0000 0.57360  0.24643  0.18350  Biso   1.000  Cu
  O1       1.0000 0.40670  0.83830  0.25800  Biso   1.000  O
  O2       1.0000 0.09330  0.16170  0.75800  Biso   1.000  O
  O3       1.0000 0.90670  0.66170  0.74200  Biso   1.000  O
  O4       1.0000 0.59330  0.33830  0.24200  Biso   1.000  O
  O5       1.0000 0.51100  0.93380  0.26200  Biso   1.000  O
  O6       1.0000 0.98900  0.06620  0.76200  Biso   1.000  O
  O7       1.0000 0.01100  0.56620  0.73800  Biso   1.000  O
  O8       1.0000 0.48900  0.43380  0.23800  Biso   1.000  O
  O9       1.0000 0.80700  0.74520  0.45500  Biso   1.000  O
  O10      1.0000 0.69300  0.25480  0.95500  Biso   1.000  O
  O11      1.0000 0.30700  0.75480  0.54500  Biso   1.000  O
  O12      1.0000 0.19300  0.24520  0.04500  Biso   1.000  O
  O13      1.0000 0.77100  0.77890  0.80900  Biso   1.000  O
  O14      1.0000 0.72900  0.22110  0.30900  Biso   1.000  O
  O15      1.0000 0.27100  0.72110  0.19100  Biso   1.000  O
  O16      1.0000 0.22900  0.27890  0.69100  Biso   1.000  O
  O17      1.0000 0.91340  0.82900  0.95000  Biso   1.000  O
  O18      1.0000 0.58660  0.17100  0.45000  Biso   1.000  O
  O19      1.0000 0.41340  0.67100  0.05000  Biso   1.000  O
  O20      1.0000 0.08660  0.32900  0.55000  Biso   1.000  O
  N1       1.0000 0.60330  0.77520  0.35900  Biso   1.000  N
  N2       1.0000 0.89670  0.22480  0.85900  Biso   1.000  N
  N3       1.0000 0.10330  0.72480  0.64100  Biso   1.000  N
  N4       1.0000 0.39670  0.27520  0.14100  Biso   1.000  N
  N5       1.0000 0.48800  0.66370  0.41200  Biso   1.000  N
  N6       1.0000 0.01200  0.33630  0.91200  Biso   1.000  N
  N7       1.0000 0.98800  0.83630  0.58800  Biso   1.000  N
  N8       1.0000 0.51200  0.16370  0.08800  Biso   1.000  N
  N9       1.0000 0.78200  0.46150  0.29100  Biso   1.000  N
  N10      1.0000 0.71800  0.53850  0.79100  Biso   1.000  N
  N11      1.0000 0.28200  0.03850  0.70900  Biso   1.000  N
  N12      1.0000 0.21800  0.96150  0.20900  Biso   1.000  N
  N13      1.0000 0.99300  0.45180  0.39900  Biso   1.000  N
  N14      1.0000 0.50700  0.54820  0.89900  Biso   1.000  N
  N15      1.0000 0.49300  0.04820  0.60100  Biso   1.000  N
  N16      1.0000 0.00700  0.95180  0.10100  Biso   1.000  N
  N17      1.0000 0.84600  0.36480  0.38900  Biso   1.000  N
  N18      1.0000 0.65400  0.63520  0.88900  Biso   1.000  N
  N19      1.0000 0.34600  0.13520  0.61100  Biso   1.000  N
  N20      1.0000 0.15400  0.86480  0.11100  Biso   1.000  N
  C1       1.0000 0.50900  0.87410  0.27800  Biso   1.000  C
  C2       1.0000 0.99100  0.12590  0.77800  Biso   1.000  C
  C3       1.0000 0.00900  0.62590  0.72200  Biso   1.000  C
  C4       1.0000 0.49100  0.37410  0.22200  Biso   1.000  C
  C5       1.0000 0.63700  0.83850  0.32400  Biso   1.000  C
  C6       1.0000 0.86300  0.16150  0.82400  Biso   1.000  C
  C7       1.0000 0.13700  0.66150  0.67600  Biso   1.000  C
  C8       1.0000 0.36300  0.33850  0.17600  Biso   1.000  C
  C9       1.0000 0.68600  0.73310  0.42300  Biso   1.000  C
  C10      1.0000 0.81400  0.26690  0.92300  Biso   1.000  C
  C11      1.0000 0.18600  0.76690  0.57700  Biso   1.000  C
  C12      1.0000 0.31400  0.23310  0.07700  Biso   1.000  C
  C13      1.0000 0.63000  0.66770  0.45600  Biso   1.000  C
  C14      1.0000 0.87000  0.33230  0.95600  Biso   1.000  C
  C15      1.0000 0.13000  0.83230  0.54400  Biso   1.000  C
  C16      1.0000 0.37000  0.16770  0.04400  Biso   1.000  C
  C17      1.0000 0.73900  0.84670  0.19400  Biso   1.000  C
  C18      1.0000 0.76100  0.15330  0.69400  Biso   1.000  C
  C19      1.0000 0.23900  0.65330  0.80600  Biso   1.000  C
  C20      1.0000 0.26100  0.34670  0.30600  Biso   1.000  C
  C21      1.0000 0.69700  0.81380  0.04800  Biso   1.000  C
  C22      1.0000 0.80300  0.18620  0.54800  Biso   1.000  C
  C23      1.0000 0.19700  0.68620  0.95200  Biso   1.000  C
  C24      1.0000 0.30300  0.31380  0.45200  Biso   1.000  C
  C25      1.0000 0.80300  0.80720  0.92600  Biso   1.000  C
  C26      1.0000 0.69700  0.19280  0.42600  Biso   1.000  C
  C27      1.0000 0.30300  0.69280  0.07400  Biso   1.000  C
  C28      1.0000 0.19700  0.30720  0.57400  Biso   1.000  C
  C29      1.0000 0.70200  0.63400  0.33600  Biso   1.000  C
  C30      1.0000 0.79800  0.36600  0.83600  Biso   1.000  C
  C31      1.0000 0.20200  0.86600  0.66400  Biso   1.000  C
  C32      1.0000 0.29800  0.13400  0.16400  Biso   1.000  C
  C33      1.0000 0.70800  0.56200  0.37100  Biso   1.000  C
  C34      1.0000 0.79200  0.43800  0.87100  Biso   1.000  C
  C35      1.0000 0.20800  0.93800  0.62900  Biso   1.000  C
  C36      1.0000 0.29200  0.06200  0.12900  Biso   1.000  C
  C37      1.0000 0.79700  0.52870  0.23700  Biso   1.000  C
  C38      1.0000 0.70300  0.47130  0.73700  Biso   1.000  C
  C39      1.0000 0.29700  0.97130  0.76300  Biso   1.000  C
  C40      1.0000 0.20300  0.02870  0.26300  Biso   1.000  C
  C41      1.0000 0.87500  0.42600  0.36000  Biso   1.000  C
  C42      1.0000 0.62500  0.57400  0.86000  Biso   1.000  C
  C43      1.0000 0.37500  0.07400  0.64000  Biso   1.000  C
  C44      1.0000 0.12500  0.92600  0.14000  Biso   1.000  C
  C45      1.0000 0.20000  0.89800  0.56300  Biso   1.000  C
  C46      1.0000 0.30000  0.10200  0.06300  Biso   1.000  C
  C47      1.0000 0.70000  0.60200  0.43700  Biso   1.000  C
  C48      1.0000 0.80000  0.39800  0.93700  Biso   1.000  C
  C49      1.0000 0.22700  0.91200  0.73400  Biso   1.000  C
  C50      1.0000 0.27300  0.08800  0.23400  Biso   1.000  C
  C51      1.0000 0.72700  0.58800  0.26600  Biso   1.000  C
  C52      1.0000 0.77300  0.41200  0.76600  Biso   1.000  C
  H1       1.0000 0.66220  0.86420  0.42270  Biso   1.000  H
  H2       1.0000 0.83780  0.13580  0.92270  Biso   1.000  H
  H3       1.0000 0.16220  0.63580  0.57730  Biso   1.000  H
  H4       1.0000 0.33780  0.36420  0.07730  Biso   1.000  H
  H5       1.0000 0.67070  0.65990  0.56670  Biso   1.000  H
  H6       1.0000 0.82930  0.34010  0.06670  Biso   1.000  H
  H7       1.0000 0.17070  0.84010  0.43330  Biso   1.000  H
  H8       1.0000 0.32930  0.15990  0.93330  Biso   1.000  H
  H9       1.0000 0.47810  0.63030  0.33750  Biso   1.000  H
  H10      1.0000 0.02190  0.36970  0.83750  Biso   1.000  H
  H11      1.0000 0.97810  0.86970  0.66250  Biso   1.000  H
  H12      1.0000 0.52190  0.13030  0.16250  Biso   1.000  H
  H13      1.0000 0.43690  0.65580  0.49670  Biso   1.000  H
  H14      1.0000 0.06310  0.34420  0.99670  Biso   1.000  H
  H15      1.0000 0.93690  0.84420  0.50330  Biso   1.000  H
  H16      1.0000 0.56310  0.15580  0.00330  Biso   1.000  H
  H17      1.0000 0.73000  0.89100  0.17000  Biso   1.000  H
  H18      1.0000 0.77000  0.10900  0.67000  Biso   1.000  H
  H19      1.0000 0.23000  0.60900  0.83000  Biso   1.000  H
  H20      1.0000 0.27000  0.39100  0.33000  Biso   1.000  H
  H21      1.0000 0.79220  0.82400  0.23640  Biso   1.000  H
  H22      1.0000 0.70780  0.17600  0.73640  Biso   1.000  H
  H23      1.0000 0.29220  0.67600  0.76360  Biso   1.000  H
  H24      1.0000 0.20780  0.32400  0.26360  Biso   1.000  H
  H25      1.0000 0.66000  0.77000  0.05000  Biso   1.000  H
  H26      1.0000 0.84000  0.23000  0.55000  Biso   1.000  H
  H27      1.0000 0.16000  0.73000  0.95000  Biso   1.000  H
  H28      1.0000 0.34000  0.27000  0.45000  Biso   1.000  H
  H29      1.0000 0.62110  0.83620  0.00670  Biso   1.000  H
  H30      1.0000 0.87890  0.16380  0.50670  Biso   1.000  H
  H31      1.0000 0.12110  0.66380  0.99330  Biso   1.000  H
  H32      1.0000 0.37890  0.33620  0.49330  Biso   1.000  H
  H33      1.0000 0.78550  0.64300  0.23650  Biso   1.000  H
  H34      1.0000 0.71450  0.35700  0.73650  Biso   1.000  H
  H35      1.0000 0.28550  0.85700  0.76350  Biso   1.000  H
  H36      1.0000 0.21450  0.14300  0.26350  Biso   1.000  H
  H37      1.0000 0.64080  0.61120  0.26200  Biso   1.000  H
  H38      1.0000 0.85920  0.38880  0.76200  Biso   1.000  H
  H39      1.0000 0.14080  0.88880  0.73800  Biso   1.000  H
  H40      1.0000 0.35920  0.11120  0.23800  Biso   1.000  H
  H41      1.0000 0.61960  0.56080  0.44010  Biso   1.000  H
  H42      1.0000 0.88040  0.43920  0.94010  Biso   1.000  H
  H43      1.0000 0.11960  0.93920  0.55990  Biso   1.000  H
  H44      1.0000 0.38040  0.06080  0.05990  Biso   1.000  H
  H45      1.0000 0.31790  0.95190  0.60360  Biso   1.000  H
  H46      1.0000 0.18210  0.04810  0.10360  Biso   1.000  H
  H47      1.0000 0.81790  0.54810  0.39640  Biso   1.000  H
  H48      1.0000 0.68210  0.45190  0.89640  Biso   1.000  H
  H49      1.0000 0.88300  0.53750  0.26560  Biso   1.000  H
  H50      1.0000 0.61700  0.46250  0.76560  Biso   1.000  H
  H51      1.0000 0.38300  0.96250  0.73440  Biso   1.000  H
  H52      1.0000 0.11700  0.03750  0.23440  Biso   1.000  H
  H53      1.0000 0.78710  0.52320  0.13180  Biso   1.000  H
  H54      1.0000 0.71290  0.47680  0.63180  Biso   1.000  H
  H55      1.0000 0.28710  0.97680  0.86820  Biso   1.000  H
  H56      1.0000 0.21290  0.02320  0.36820  Biso   1.000  H
  H57      1.0000 0.69450  0.44490  0.27290  Biso   1.000  H
  H58      1.0000 0.80550  0.55510  0.77290  Biso   1.000  H
  H59      1.0000 0.19450  0.05510  0.72710  Biso   1.000  H
  H60      1.0000 0.30550  0.94490  0.22710  Biso   1.000  H
  H61      1.0000 0.00630  0.49670  0.37840  Biso   1.000  H
  H62      1.0000 0.49370  0.50330  0.87840  Biso   1.000  H
  H63      1.0000 0.50630  0.00330  0.62160  Biso   1.000  H
  H64      1.0000 0.99370  0.99670  0.12160  Biso   1.000  H
  H65      1.0000 0.05550  0.42690  0.45130  Biso   1.000  H
  H66      1.0000 0.44450  0.57310  0.95130  Biso   1.000  H
  H67      1.0000 0.55550  0.07310  0.54870  Biso   1.000  H
  H68      1.0000 0.94450  0.92690  0.04870  Biso   1.000  H
  H69      1.0000 0.76330  0.34430  0.36390  Biso   1.000  H
  H70      1.0000 0.73670  0.65570  0.86390  Biso   1.000  H
  H71      1.0000 0.26330  0.15570  0.63610  Biso   1.000  H
  H72      1.0000 0.23670  0.84430  0.13610  Biso   1.000  H
  H73      1.0000 0.91090  0.33720  0.44210  Biso   1.000  H
  H74      1.0000 0.58910  0.66280  0.94210  Biso   1.000  H
  H75      1.0000 0.41090  0.16280  0.55790  Biso   1.000  H
  H76      1.0000 0.08910  0.83720  0.05790  Biso   1.000  H
  H77      1.0000 0.23590  0.88830  0.83810  Biso   1.000  H
  H78      1.0000 0.26410  0.11170  0.33810  Biso   1.000  H
  H79      1.0000 0.73590  0.61170  0.16190  Biso   1.000  H
  H80      1.0000 0.76410  0.38830  0.66190  Biso   1.000  H
  H81      1.0000 0.13610  0.93350  0.79470  Biso   1.000  H
  H82      1.0000 0.36390  0.06650  0.29470  Biso   1.000  H
  H83      1.0000 0.63610  0.56650  0.20530  Biso   1.000  H
  H84      1.0000 0.86390  0.43350  0.70530  Biso   1.000  H
