data_image0
_cell_length_a       10.8058
_cell_length_b       10.8058
_cell_length_c       14.2168
_cell_angle_alpha    90
_cell_angle_beta     90
_cell_angle_gamma    90

_symmetry_space_group_name_H-M    "P 1"
_symmetry_int_tables_number       1

loop_
  _symmetry_equiv_pos_as_xyz
  'x, y, z'

loop_
  _atom_site_label
  _atom_site_occupancy
  _atom_site_fract_x
  _atom_site_fract_y
  _atom_site_fract_z
  _atom_site_thermal_displace_type
  _atom_site_B_iso_or_equiv
  _atom_site_type_symbol
  Cu1      1.0000 0.50000  0.50000  0.40788  Biso   1.000  Cu
  Cu2      1.0000 0.50000  0.50000  0.59212  Biso   1.000  Cu
  Cu3      1.0000 0.00000  0.00000  0.90788  Biso   1.000  Cu
  Cu4      1.0000 0.00000  0.00000  0.09212  Biso   1.000  Cu
  O1       1.0000 0.50000  0.67820  0.42170  Biso   1.000  O
  O2       1.0000 0.32180  0.50000  0.42170  Biso   1.000  O
  O3       1.0000 0.50000  0.32180  0.42170  Biso   1.000  O
  O4       1.0000 0.67820  0.50000  0.42170  Biso   1.000  O
  O5       1.0000 0.50000  0.32180  0.57830  Biso   1.000  O
  O6       1.0000 0.67820  0.50000  0.57830  Biso   1.000  O
  O7       1.0000 0.50000  0.67820  0.57830  Biso   1.000  O
  O8       1.0000 0.32180  0.50000  0.57830  Biso   1.000  O
  O9       1.0000 0.00000  0.17820  0.92170  Biso   1.000  O
  O10      1.0000 0.82180  0.00000  0.92170  Biso   1.000  O
  O11      1.0000 0.00000  0.82180  0.92170  Biso   1.000  O
  O12      1.0000 0.17820  0.00000  0.92170  Biso   1.000  O
  O13      1.0000 0.00000  0.82180  0.07830  Biso   1.000  O
  O14      1.0000 0.17820  0.00000  0.07830  Biso   1.000  O
  O15      1.0000 0.00000  0.17820  0.07830  Biso   1.000  O
  O16      1.0000 0.82180  0.00000  0.07830  Biso   1.000  O
  O17      1.0000 0.50000  0.50000  0.26010  Biso   1.000  O
  O18      1.0000 0.50000  0.50000  0.73990  Biso   1.000  O
  O19      1.0000 0.00000  0.00000  0.76010  Biso   1.000  O
  O20      1.0000 0.00000  0.00000  0.23990  Biso   1.000  O
  C1       1.0000 0.50000  0.73300  0.50000  Biso   1.000  C
  C2       1.0000 0.26700  0.50000  0.50000  Biso   1.000  C
  C3       1.0000 0.50000  0.26700  0.50000  Biso   1.000  C
  C4       1.0000 0.73300  0.50000  0.50000  Biso   1.000  C
  C5       1.0000 0.00000  0.23300  0.00000  Biso   1.000  C
  C6       1.0000 0.76700  0.00000  0.00000  Biso   1.000  C
  C7       1.0000 0.00000  0.76700  0.00000  Biso   1.000  C
  C8       1.0000 0.23300  0.00000  0.00000  Biso   1.000  C
  C9       1.0000 0.50000  0.87060  0.50000  Biso   1.000  C
  C10      1.0000 0.12940  0.50000  0.50000  Biso   1.000  C
  C11      1.0000 0.50000  0.12940  0.50000  Biso   1.000  C
  C12      1.0000 0.87060  0.50000  0.50000  Biso   1.000  C
  C13      1.0000 0.00000  0.37060  0.00000  Biso   1.000  C
  C14      1.0000 0.62940  0.00000  0.00000  Biso   1.000  C
  C15      1.0000 0.00000  0.62940  0.00000  Biso   1.000  C
  C16      1.0000 0.37060  0.00000  0.00000  Biso   1.000  C
  C17      1.0000 0.43150  0.93560  0.43180  Biso   1.000  C
  C18      1.0000 0.06440  0.43150  0.43180  Biso   1.000  C
  C19      1.0000 0.56850  0.06440  0.43180  Biso   1.000  C
  C20      1.0000 0.93560  0.56850  0.43180  Biso   1.000  C
  C21      1.0000 0.43150  0.06440  0.56820  Biso   1.000  C
  C22      1.0000 0.93560  0.43150  0.56820  Biso   1.000  C
  C23      1.0000 0.56850  0.93560  0.56820  Biso   1.000  C
  C24      1.0000 0.06440  0.56850  0.56820  Biso   1.000  C
  C25      1.0000 0.93150  0.43560  0.93180  Biso   1.000  C
  C26      1.0000 0.56440  0.93150  0.93180  Biso   1.000  C
  C27      1.0000 0.06850  0.56440  0.93180  Biso   1.000  C
  C28      1.0000 0.43560  0.06850  0.93180  Biso   1.000  C
  C29      1.0000 0.93150  0.56440  0.06820  Biso   1.000  C
  C30      1.0000 0.43560  0.93150  0.06820  Biso   1.000  C
  C31      1.0000 0.06850  0.43560  0.06820  Biso   1.000  C
  C32      1.0000 0.56440  0.06850  0.06820  Biso   1.000  C
  C33      1.0000 0.56850  0.06440  0.56820  Biso   1.000  C
  C34      1.0000 0.93560  0.56850  0.56820  Biso   1.000  C
  C35      1.0000 0.43150  0.93560  0.56820  Biso   1.000  C
  C36      1.0000 0.06440  0.43150  0.56820  Biso   1.000  C
  C37      1.0000 0.56850  0.93560  0.43180  Biso   1.000  C
  C38      1.0000 0.06440  0.56850  0.43180  Biso   1.000  C
  C39      1.0000 0.43150  0.06440  0.43180  Biso   1.000  C
  C40      1.0000 0.93560  0.43150  0.43180  Biso   1.000  C
  C41      1.0000 0.06850  0.56440  0.06820  Biso   1.000  C
  C42      1.0000 0.43560  0.06850  0.06820  Biso   1.000  C
  C43      1.0000 0.93150  0.43560  0.06820  Biso   1.000  C
  C44      1.0000 0.56440  0.93150  0.06820  Biso   1.000  C
  C45      1.0000 0.06850  0.43560  0.93180  Biso   1.000  C
  C46      1.0000 0.56440  0.06850  0.93180  Biso   1.000  C
  C47      1.0000 0.93150  0.56440  0.93180  Biso   1.000  C
  C48      1.0000 0.43560  0.93150  0.93180  Biso   1.000  C
  C49      1.0000 0.34900  0.87100  0.36800  Biso   1.000  C
  C50      1.0000 0.12900  0.34900  0.36800  Biso   1.000  C
  C51      1.0000 0.65100  0.12900  0.36800  Biso   1.000  C
  C52      1.0000 0.87100  0.65100  0.36800  Biso   1.000  C
  C53      1.0000 0.34900  0.12900  0.63200  Biso   1.000  C
  C54      1.0000 0.87100  0.34900  0.63200  Biso   1.000  C
  C55      1.0000 0.65100  0.87100  0.63200  Biso   1.000  C
  C56      1.0000 0.12900  0.65100  0.63200  Biso   1.000  C
  C57      1.0000 0.84900  0.37100  0.86800  Biso   1.000  C
  C58      1.0000 0.62900  0.84900  0.86800  Biso   1.000  C
  C59      1.0000 0.15100  0.62900  0.86800  Biso   1.000  C
  C60      1.0000 0.37100  0.15100  0.86800  Biso   1.000  C
  C61      1.0000 0.84900  0.62900  0.13200  Biso   1.000  C
  C62      1.0000 0.37100  0.84900  0.13200  Biso   1.000  C
  C63      1.0000 0.15100  0.37100  0.13200  Biso   1.000  C
  C64      1.0000 0.62900  0.15100  0.13200  Biso   1.000  C
  C65      1.0000 0.65100  0.12900  0.63200  Biso   1.000  C
  C66      1.0000 0.87100  0.65100  0.63200  Biso   1.000  C
  C67      1.0000 0.34900  0.87100  0.63200  Biso   1.000  C
  C68      1.0000 0.12900  0.34900  0.63200  Biso   1.000  C
  C69      1.0000 0.65100  0.87100  0.36800  Biso   1.000  C
  C70      1.0000 0.12900  0.65100  0.36800  Biso   1.000  C
  C71      1.0000 0.34900  0.12900  0.36800  Biso   1.000  C
  C72      1.0000 0.87100  0.34900  0.36800  Biso   1.000  C
  C73      1.0000 0.15100  0.62900  0.13200  Biso   1.000  C
  C74      1.0000 0.37100  0.15100  0.13200  Biso   1.000  C
  C75      1.0000 0.84900  0.37100  0.13200  Biso   1.000  C
  C76      1.0000 0.62900  0.84900  0.13200  Biso   1.000  C
  C77      1.0000 0.15100  0.37100  0.86800  Biso   1.000  C
  C78      1.0000 0.62900  0.15100  0.86800  Biso   1.000  C
  C79      1.0000 0.84900  0.62900  0.86800  Biso   1.000  C
  C80      1.0000 0.37100  0.84900  0.86800  Biso   1.000  C
  H1       1.0000 0.35100  0.78550  0.36520  Biso   1.000  H
  H2       1.0000 0.21450  0.35100  0.36520  Biso   1.000  H
  H3       1.0000 0.64900  0.21450  0.36520  Biso   1.000  H
  H4       1.0000 0.78550  0.64900  0.36520  Biso   1.000  H
  H5       1.0000 0.35100  0.21450  0.63480  Biso   1.000  H
  H6       1.0000 0.78550  0.35100  0.63480  Biso   1.000  H
  H7       1.0000 0.64900  0.78550  0.63480  Biso   1.000  H
  H8       1.0000 0.21450  0.64900  0.63480  Biso   1.000  H
  H9       1.0000 0.85100  0.28550  0.86520  Biso   1.000  H
  H10      1.0000 0.71450  0.85100  0.86520  Biso   1.000  H
  H11      1.0000 0.14900  0.71450  0.86520  Biso   1.000  H
  H12      1.0000 0.28550  0.14900  0.86520  Biso   1.000  H
  H13      1.0000 0.85100  0.71450  0.13480  Biso   1.000  H
  H14      1.0000 0.28550  0.85100  0.13480  Biso   1.000  H
  H15      1.0000 0.14900  0.28550  0.13480  Biso   1.000  H
  H16      1.0000 0.71450  0.14900  0.13480  Biso   1.000  H
  H17      1.0000 0.64900  0.21450  0.63480  Biso   1.000  H
  H18      1.0000 0.78550  0.64900  0.63480  Biso   1.000  H
  H19      1.0000 0.35100  0.78550  0.63480  Biso   1.000  H
  H20      1.0000 0.21450  0.35100  0.63480  Biso   1.000  H
  H21      1.0000 0.64900  0.78550  0.36520  Biso   1.000  H
  H22      1.0000 0.21450  0.64900  0.36520  Biso   1.000  H
  H23      1.0000 0.35100  0.21450  0.36520  Biso   1.000  H
  H24      1.0000 0.78550  0.35100  0.36520  Biso   1.000  H
  H25      1.0000 0.14900  0.71450  0.13480  Biso   1.000  H
  H26      1.0000 0.28550  0.14900  0.13480  Biso   1.000  H
  H27      1.0000 0.85100  0.28550  0.13480  Biso   1.000  H
  H28      1.0000 0.71450  0.85100  0.13480  Biso   1.000  H
  H29      1.0000 0.14900  0.28550  0.86520  Biso   1.000  H
  H30      1.0000 0.71450  0.14900  0.86520  Biso   1.000  H
  H31      1.0000 0.85100  0.71450  0.86520  Biso   1.000  H
  H32      1.0000 0.28550  0.85100  0.86520  Biso   1.000  H
  C81      1.0000 0.26800  0.93620  0.31120  Biso   1.000  C
  C82      1.0000 0.06380  0.26800  0.31120  Biso   1.000  C
  C83      1.0000 0.73200  0.06380  0.31120  Biso   1.000  C
  C84      1.0000 0.93620  0.73200  0.31120  Biso   1.000  C
  C85      1.0000 0.26800  0.06380  0.68880  Biso   1.000  C
  C86      1.0000 0.93620  0.26800  0.68880  Biso   1.000  C
  C87      1.0000 0.73200  0.93620  0.68880  Biso   1.000  C
  C88      1.0000 0.06380  0.73200  0.68880  Biso   1.000  C
  C89      1.0000 0.76800  0.43620  0.81120  Biso   1.000  C
  C90      1.0000 0.56380  0.76800  0.81120  Biso   1.000  C
  C91      1.0000 0.23200  0.56380  0.81120  Biso   1.000  C
  C92      1.0000 0.43620  0.23200  0.81120  Biso   1.000  C
  C93      1.0000 0.76800  0.56380  0.18880  Biso   1.000  C
  C94      1.0000 0.43620  0.76800  0.18880  Biso   1.000  C
  C95      1.0000 0.23200  0.43620  0.18880  Biso   1.000  C
  C96      1.0000 0.56380  0.23200  0.18880  Biso   1.000  C
  C97      1.0000 0.73200  0.06380  0.68880  Biso   1.000  C
  C98      1.0000 0.93620  0.73200  0.68880  Biso   1.000  C
  C99      1.0000 0.26800  0.93620  0.68880  Biso   1.000  C
  C100     1.0000 0.06380  0.26800  0.68880  Biso   1.000  C
  C101     1.0000 0.73200  0.93620  0.31120  Biso   1.000  C
  C102     1.0000 0.06380  0.73200  0.31120  Biso   1.000  C
  C103     1.0000 0.26800  0.06380  0.31120  Biso   1.000  C
  C104     1.0000 0.93620  0.26800  0.31120  Biso   1.000  C
  C105     1.0000 0.23200  0.56380  0.18880  Biso   1.000  C
  C106     1.0000 0.43620  0.23200  0.18880  Biso   1.000  C
  C107     1.0000 0.76800  0.43620  0.18880  Biso   1.000  C
  C108     1.0000 0.56380  0.76800  0.18880  Biso   1.000  C
  C109     1.0000 0.23200  0.43620  0.81120  Biso   1.000  C
  C110     1.0000 0.56380  0.23200  0.81120  Biso   1.000  C
  C111     1.0000 0.76800  0.56380  0.81120  Biso   1.000  C
  C112     1.0000 0.43620  0.76800  0.81120  Biso   1.000  C
  H33      1.0000 0.21330  0.89350  0.27280  Biso   1.000  H
  H34      1.0000 0.10650  0.21330  0.27280  Biso   1.000  H
  H35      1.0000 0.78670  0.10650  0.27280  Biso   1.000  H
  H36      1.0000 0.89350  0.78670  0.27280  Biso   1.000  H
  H37      1.0000 0.21330  0.10650  0.72720  Biso   1.000  H
  H38      1.0000 0.89350  0.21330  0.72720  Biso   1.000  H
  H39      1.0000 0.78670  0.89350  0.72720  Biso   1.000  H
  H40      1.0000 0.10650  0.78670  0.72720  Biso   1.000  H
  H41      1.0000 0.71330  0.39350  0.77280  Biso   1.000  H
  H42      1.0000 0.60650  0.71330  0.77280  Biso   1.000  H
  H43      1.0000 0.28670  0.60650  0.77280  Biso   1.000  H
  H44      1.0000 0.39350  0.28670  0.77280  Biso   1.000  H
  H45      1.0000 0.71330  0.60650  0.22720  Biso   1.000  H
  H46      1.0000 0.39350  0.71330  0.22720  Biso   1.000  H
  H47      1.0000 0.28670  0.39350  0.22720  Biso   1.000  H
  H48      1.0000 0.60650  0.28670  0.22720  Biso   1.000  H
  H49      1.0000 0.78670  0.10650  0.72720  Biso   1.000  H
  H50      1.0000 0.89350  0.78670  0.72720  Biso   1.000  H
  H51      1.0000 0.21330  0.89350  0.72720  Biso   1.000  H
  H52      1.0000 0.10650  0.21330  0.72720  Biso   1.000  H
  H53      1.0000 0.78670  0.89350  0.27280  Biso   1.000  H
  H54      1.0000 0.10650  0.78670  0.27280  Biso   1.000  H
  H55      1.0000 0.21330  0.10650  0.27280  Biso   1.000  H
  H56      1.0000 0.89350  0.21330  0.27280  Biso   1.000  H
  H57      1.0000 0.28670  0.60650  0.22720  Biso   1.000  H
  H58      1.0000 0.39350  0.28670  0.22720  Biso   1.000  H
  H59      1.0000 0.71330  0.39350  0.22720  Biso   1.000  H
  H60      1.0000 0.60650  0.71330  0.22720  Biso   1.000  H
  H61      1.0000 0.28670  0.39350  0.77280  Biso   1.000  H
  H62      1.0000 0.60650  0.28670  0.77280  Biso   1.000  H
  H63      1.0000 0.71330  0.60650  0.77280  Biso   1.000  H
  H64      1.0000 0.39350  0.71330  0.77280  Biso   1.000  H
  O21      1.0000 0.13700  0.13700  0.50000  Biso   1.000  O
  O22      1.0000 0.86300  0.13700  0.50000  Biso   1.000  O
  O23      1.0000 0.86300  0.86300  0.50000  Biso   1.000  O
  O24      1.0000 0.13700  0.86300  0.50000  Biso   1.000  O
  O25      1.0000 0.63700  0.63700  0.00000  Biso   1.000  O
  O26      1.0000 0.36300  0.63700  0.00000  Biso   1.000  O
  O27      1.0000 0.36300  0.36300  0.00000  Biso   1.000  O
  O28      1.0000 0.63700  0.36300  0.00000  Biso   1.000  O
  O29      1.0000 0.25000  0.25000  0.25000  Biso   1.000  O
  O30      1.0000 0.75000  0.25000  0.25000  Biso   1.000  O
  O31      1.0000 0.75000  0.75000  0.25000  Biso   1.000  O
  O32      1.0000 0.25000  0.75000  0.25000  Biso   1.000  O
  O33      1.0000 0.25000  0.75000  0.75000  Biso   1.000  O
  O34      1.0000 0.25000  0.25000  0.75000  Biso   1.000  O
  O35      1.0000 0.75000  0.25000  0.75000  Biso   1.000  O
  O36      1.0000 0.75000  0.75000  0.75000  Biso   1.000  O
