data_image0
_cell_length_a       8.017
_cell_length_b       10.026
_cell_length_c       13.063
_cell_angle_alpha    90
_cell_angle_beta     90.816
_cell_angle_gamma    90

_symmetry_space_group_name_H-M    "P 1"
_symmetry_int_tables_number       1

loop_
  _symmetry_equiv_pos_as_xyz
  'x, y, z'

loop_
  _atom_site_label
  _atom_site_occupancy
  _atom_site_fract_x
  _atom_site_fract_y
  _atom_site_fract_z
  _atom_site_thermal_displace_type
  _atom_site_B_iso_or_equiv
  _atom_site_type_symbol
  Cu1      1.0000 0.50000  0.50000  0.50000  Biso   1.000  Cu
  Cu2      1.0000 0.00000  0.00000  0.00000  Biso   1.000  Cu
  S1       1.0000 0.79513  0.35875  0.51526  Biso   1.000  S
  S2       1.0000 0.29513  0.14125  0.01526  Biso   1.000  S
  S3       1.0000 0.20487  0.64125  0.48474  Biso   1.000  S
  S4       1.0000 0.70487  0.85875  0.98474  Biso   1.000  S
  Cl1      1.0000 0.40635  0.37343  0.36134  Biso   1.000  Cl
  Cl2      1.0000 0.90635  0.12657  0.86134  Biso   1.000  Cl
  Cl3      1.0000 0.59365  0.62657  0.63866  Biso   1.000  Cl
  Cl4      1.0000 0.09365  0.87343  0.13866  Biso   1.000  Cl
  N1       1.0000 0.43433  0.34750  0.59500  Biso   1.000  N
  N2       1.0000 0.93433  0.15250  0.09500  Biso   1.000  N
  N3       1.0000 0.56567  0.65250  0.40500  Biso   1.000  N
  N4       1.0000 0.06567  0.84750  0.90500  Biso   1.000  N
  C1       1.0000 0.27260  0.31318  0.60155  Biso   1.000  C
  C2       1.0000 0.77260  0.18682  0.10155  Biso   1.000  C
  C3       1.0000 0.72740  0.68682  0.39845  Biso   1.000  C
  C4       1.0000 0.22740  0.81318  0.89845  Biso   1.000  C
  H1       1.0000 0.19420  0.36400  0.56570  Biso   1.000  H
  H2       1.0000 0.69420  0.13600  0.06570  Biso   1.000  H
  H3       1.0000 0.80580  0.63600  0.43430  Biso   1.000  H
  H4       1.0000 0.30580  0.86400  0.93430  Biso   1.000  H
  C5       1.0000 0.21700  0.20710  0.65832  Biso   1.000  C
  C6       1.0000 0.71700  0.29290  0.15832  Biso   1.000  C
  C7       1.0000 0.78300  0.79290  0.34168  Biso   1.000  C
  C8       1.0000 0.28300  0.70710  0.84168  Biso   1.000  C
  H5       1.0000 0.10380  0.18760  0.66140  Biso   1.000  H
  H6       1.0000 0.60380  0.31240  0.16140  Biso   1.000  H
  H7       1.0000 0.89620  0.81240  0.33860  Biso   1.000  H
  H8       1.0000 0.39620  0.68760  0.83860  Biso   1.000  H
  C9       1.0000 0.33340  0.13000  0.71080  Biso   1.000  C
  C10      1.0000 0.83340  0.37000  0.21080  Biso   1.000  C
  C11      1.0000 0.66660  0.87000  0.28920  Biso   1.000  C
  C12      1.0000 0.16660  0.63000  0.78920  Biso   1.000  C
  H9       1.0000 0.29990  0.05700  0.74940  Biso   1.000  H
  H10      1.0000 0.79990  0.44300  0.24940  Biso   1.000  H
  H11      1.0000 0.70010  0.94300  0.25060  Biso   1.000  H
  H12      1.0000 0.20010  0.55700  0.75060  Biso   1.000  H
  C13      1.0000 0.50050  0.16365  0.70475  Biso   1.000  C
  C14      1.0000 0.00050  0.33635  0.20475  Biso   1.000  C
  C15      1.0000 0.49950  0.83635  0.29525  Biso   1.000  C
  C16      1.0000 0.99950  0.66365  0.79525  Biso   1.000  C
  H13      1.0000 0.58060  0.11290  0.73910  Biso   1.000  H
  H14      1.0000 0.08060  0.38710  0.23910  Biso   1.000  H
  H15      1.0000 0.41940  0.88710  0.26090  Biso   1.000  H
  H16      1.0000 0.91940  0.61290  0.76090  Biso   1.000  H
  C17      1.0000 0.54810  0.27341  0.64718  Biso   1.000  C
  C18      1.0000 0.04810  0.22659  0.14718  Biso   1.000  C
  C19      1.0000 0.45190  0.72659  0.35282  Biso   1.000  C
  C20      1.0000 0.95190  0.77341  0.85282  Biso   1.000  C
  C21      1.0000 0.72930  0.31300  0.64217  Biso   1.000  C
  C22      1.0000 0.22930  0.18700  0.14217  Biso   1.000  C
  C23      1.0000 0.27070  0.68700  0.35783  Biso   1.000  C
  C24      1.0000 0.77070  0.81300  0.85783  Biso   1.000  C
  H17      1.0000 0.79740  0.23920  0.66640  Biso   1.000  H
  H18      1.0000 0.29740  0.26080  0.16640  Biso   1.000  H
  H19      1.0000 0.20260  0.76080  0.33360  Biso   1.000  H
  H20      1.0000 0.70260  0.73920  0.83360  Biso   1.000  H
  H21      1.0000 0.74880  0.38780  0.68790  Biso   1.000  H
  H22      1.0000 0.24880  0.11220  0.18790  Biso   1.000  H
  H23      1.0000 0.25120  0.61220  0.31210  Biso   1.000  H
  H24      1.0000 0.75120  0.88780  0.81210  Biso   1.000  H
  C25      1.0000 0.75420  0.20274  0.44813  Biso   1.000  C
  C26      1.0000 0.25420  0.29726  0.94813  Biso   1.000  C
  C27      1.0000 0.24580  0.79726  0.55187  Biso   1.000  C
  C28      1.0000 0.74580  0.70274  0.05187  Biso   1.000  C
  H25      1.0000 0.64400  0.17090  0.46560  Biso   1.000  H
  H26      1.0000 0.14400  0.32910  0.96560  Biso   1.000  H
  H27      1.0000 0.35600  0.82910  0.53440  Biso   1.000  H
  H28      1.0000 0.85600  0.67090  0.03440  Biso   1.000  H
  H29      1.0000 0.75530  0.21880  0.37490  Biso   1.000  H
  H30      1.0000 0.25530  0.28120  0.87490  Biso   1.000  H
  H31      1.0000 0.24470  0.78120  0.62510  Biso   1.000  H
  H32      1.0000 0.74470  0.71880  0.12510  Biso   1.000  H
  C29      1.0000 0.88070  0.09728  0.47451  Biso   1.000  C
  C30      1.0000 0.38070  0.40272  0.97451  Biso   1.000  C
  C31      1.0000 0.11930  0.90272  0.52549  Biso   1.000  C
  C32      1.0000 0.61930  0.59728  0.02549  Biso   1.000  C
  C33      1.0000 0.03840  0.09974  0.43104  Biso   1.000  C
  C34      1.0000 0.53840  0.40026  0.93104  Biso   1.000  C
  C35      1.0000 0.96160  0.90026  0.56896  Biso   1.000  C
  C36      1.0000 0.46160  0.59974  0.06896  Biso   1.000  C
  H33      1.0000 0.06490  0.16660  0.38460  Biso   1.000  H
  H34      1.0000 0.56490  0.33340  0.88460  Biso   1.000  H
  H35      1.0000 0.93510  0.83340  0.61540  Biso   1.000  H
  H36      1.0000 0.43510  0.66660  0.11540  Biso   1.000  H
  C37      1.0000 0.84380  0.99643  0.54369  Biso   1.000  C
  C38      1.0000 0.34380  0.50357  0.04369  Biso   1.000  C
  C39      1.0000 0.15620  0.00357  0.45631  Biso   1.000  C
  C40      1.0000 0.65620  0.49643  0.95631  Biso   1.000  C
  H37      1.0000 0.73900  0.99350  0.57330  Biso   1.000  H
  H38      1.0000 0.23900  0.50650  0.07330  Biso   1.000  H
  H39      1.0000 0.26100  0.00650  0.42670  Biso   1.000  H
  H40      1.0000 0.76100  0.49350  0.92670  Biso   1.000  H
