data_image0
_cell_length_a       14.119
_cell_length_b       15.077
_cell_length_c       26.539
_cell_angle_alpha    90
_cell_angle_beta     90
_cell_angle_gamma    90

_symmetry_space_group_name_H-M    "P 1"
_symmetry_int_tables_number       1

loop_
  _symmetry_equiv_pos_as_xyz
  'x, y, z'

loop_
  _atom_site_label
  _atom_site_occupancy
  _atom_site_fract_x
  _atom_site_fract_y
  _atom_site_fract_z
  _atom_site_thermal_displace_type
  _atom_site_B_iso_or_equiv
  _atom_site_type_symbol
  Cu1      1.0000 0.75726  0.12858  0.60260  Biso   1.000  Cu
  Cu2      1.0000 0.74274  0.87142  0.10260  Biso   1.000  Cu
  Cu3      1.0000 0.24274  0.62858  0.89740  Biso   1.000  Cu
  Cu4      1.0000 0.25726  0.37142  0.39740  Biso   1.000  Cu
  Cu5      1.0000 0.24274  0.87142  0.39740  Biso   1.000  Cu
  Cu6      1.0000 0.25726  0.12858  0.89740  Biso   1.000  Cu
  Cu7      1.0000 0.75726  0.37142  0.10260  Biso   1.000  Cu
  Cu8      1.0000 0.74274  0.62858  0.60260  Biso   1.000  Cu
  Cu9      1.0000 0.41087  0.19486  0.54229  Biso   1.000  Cu
  Cu10     1.0000 0.08913  0.80514  0.04229  Biso   1.000  Cu
  Cu11     1.0000 0.58913  0.69486  0.95771  Biso   1.000  Cu
  Cu12     1.0000 0.91087  0.30514  0.45771  Biso   1.000  Cu
  Cu13     1.0000 0.58913  0.80514  0.45771  Biso   1.000  Cu
  Cu14     1.0000 0.91087  0.19486  0.95771  Biso   1.000  Cu
  Cu15     1.0000 0.41087  0.30514  0.04229  Biso   1.000  Cu
  Cu16     1.0000 0.08913  0.69486  0.54229  Biso   1.000  Cu
  S1       1.0000 0.23850  0.10717  0.40732  Biso   1.000  S
  S2       1.0000 0.26150  0.89283  0.90732  Biso   1.000  S
  S3       1.0000 0.76150  0.60717  0.09268  Biso   1.000  S
  S4       1.0000 0.73850  0.39283  0.59268  Biso   1.000  S
  S5       1.0000 0.76150  0.89283  0.59268  Biso   1.000  S
  S6       1.0000 0.73850  0.10717  0.09268  Biso   1.000  S
  S7       1.0000 0.23850  0.39283  0.90732  Biso   1.000  S
  S8       1.0000 0.26150  0.60717  0.40732  Biso   1.000  S
  S9       1.0000 0.14291  0.26487  0.62689  Biso   1.000  S
  S10      1.0000 0.35709  0.73513  0.12689  Biso   1.000  S
  S11      1.0000 0.85709  0.76487  0.87311  Biso   1.000  S
  S12      1.0000 0.64291  0.23513  0.37311  Biso   1.000  S
  S13      1.0000 0.85709  0.73513  0.37311  Biso   1.000  S
  S14      1.0000 0.64291  0.26487  0.87311  Biso   1.000  S
  S15      1.0000 0.14291  0.23513  0.12689  Biso   1.000  S
  S16      1.0000 0.35709  0.76487  0.62689  Biso   1.000  S
  O1       1.0000 0.86993  0.13752  0.56259  Biso   1.000  O
  O2       1.0000 0.63007  0.86248  0.06259  Biso   1.000  O
  O3       1.0000 0.13007  0.63752  0.93741  Biso   1.000  O
  O4       1.0000 0.36993  0.36248  0.43741  Biso   1.000  O
  O5       1.0000 0.13007  0.86248  0.43741  Biso   1.000  O
  O6       1.0000 0.36993  0.13752  0.93741  Biso   1.000  O
  O7       1.0000 0.86993  0.36248  0.06259  Biso   1.000  O
  O8       1.0000 0.63007  0.63752  0.56259  Biso   1.000  O
  O9       1.0000 0.94836  0.16988  0.49326  Biso   1.000  O
  O10      1.0000 0.55164  0.83012  0.99326  Biso   1.000  O
  O11      1.0000 0.05164  0.66988  0.00674  Biso   1.000  O
  O12      1.0000 0.44836  0.33012  0.50674  Biso   1.000  O
  O13      1.0000 0.05164  0.83012  0.50674  Biso   1.000  O
  O14      1.0000 0.44836  0.16988  0.00674  Biso   1.000  O
  O15      1.0000 0.94836  0.33012  0.99326  Biso   1.000  O
  O16      1.0000 0.55164  0.66988  0.49326  Biso   1.000  O
  O17      1.0000 0.52628  0.13906  0.51454  Biso   1.000  O
  O18      1.0000 0.97372  0.86094  0.01454  Biso   1.000  O
  O19      1.0000 0.47372  0.63906  0.98546  Biso   1.000  O
  O20      1.0000 0.02628  0.36094  0.48546  Biso   1.000  O
  O21      1.0000 0.47372  0.86094  0.48546  Biso   1.000  O
  O22      1.0000 0.02628  0.13906  0.98546  Biso   1.000  O
  O23      1.0000 0.52628  0.36094  0.01454  Biso   1.000  O
  O24      1.0000 0.97372  0.63906  0.51454  Biso   1.000  O
  O25      1.0000 0.48706  0.20624  0.60347  Biso   1.000  O
  O26      1.0000 0.01294  0.79376  0.10347  Biso   1.000  O
  O27      1.0000 0.51294  0.70624  0.89653  Biso   1.000  O
  O28      1.0000 0.98706  0.29376  0.39653  Biso   1.000  O
  O29      1.0000 0.51294  0.79376  0.39653  Biso   1.000  O
  O30      1.0000 0.98706  0.20624  0.89653  Biso   1.000  O
  O31      1.0000 0.48706  0.29376  0.10347  Biso   1.000  O
  O32      1.0000 0.01294  0.70624  0.60347  Biso   1.000  O
  N1       1.0000 0.68011  0.10829  0.54093  Biso   1.000  N
  N2       1.0000 0.81989  0.89171  0.04093  Biso   1.000  N
  N3       1.0000 0.31989  0.60829  0.95907  Biso   1.000  N
  N4       1.0000 0.18011  0.39171  0.45907  Biso   1.000  N
  N5       1.0000 0.31989  0.89171  0.45907  Biso   1.000  N
  N6       1.0000 0.18011  0.10829  0.95907  Biso   1.000  N
  N7       1.0000 0.68011  0.39171  0.04093  Biso   1.000  N
  N8       1.0000 0.81989  0.60829  0.54093  Biso   1.000  N
  N9       1.0000 0.63791  0.17269  0.63077  Biso   1.000  N
  N10      1.0000 0.86209  0.82731  0.13077  Biso   1.000  N
  N11      1.0000 0.36209  0.67269  0.86923  Biso   1.000  N
  N12      1.0000 0.13791  0.32731  0.36923  Biso   1.000  N
  N13      1.0000 0.36209  0.82731  0.36923  Biso   1.000  N
  N14      1.0000 0.13791  0.17269  0.86923  Biso   1.000  N
  N15      1.0000 0.63791  0.32731  0.13077  Biso   1.000  N
  N16      1.0000 0.86209  0.67269  0.63077  Biso   1.000  N
  N17      1.0000 0.83063  0.12459  0.66957  Biso   1.000  N
  N18      1.0000 0.66937  0.87541  0.16957  Biso   1.000  N
  N19      1.0000 0.16937  0.62459  0.83043  Biso   1.000  N
  N20      1.0000 0.33063  0.37541  0.33043  Biso   1.000  N
  N21      1.0000 0.16937  0.87541  0.33043  Biso   1.000  N
  N22      1.0000 0.33063  0.12459  0.83043  Biso   1.000  N
  N23      1.0000 0.83063  0.37541  0.16957  Biso   1.000  N
  N24      1.0000 0.66937  0.62459  0.66957  Biso   1.000  N
  N25      1.0000 0.32769  0.16073  0.48557  Biso   1.000  N
  N26      1.0000 0.17231  0.83927  0.98557  Biso   1.000  N
  N27      1.0000 0.67231  0.66073  0.01443  Biso   1.000  N
  N28      1.0000 0.82769  0.33927  0.51443  Biso   1.000  N
  N29      1.0000 0.67231  0.83927  0.51443  Biso   1.000  N
  N30      1.0000 0.82769  0.16073  0.01443  Biso   1.000  N
  N31      1.0000 0.32769  0.33927  0.98557  Biso   1.000  N
  N32      1.0000 0.17231  0.66073  0.48557  Biso   1.000  N
  N33      1.0000 0.28867  0.22288  0.57520  Biso   1.000  N
  N34      1.0000 0.21133  0.77712  0.07520  Biso   1.000  N
  N35      1.0000 0.71133  0.72288  0.92480  Biso   1.000  N
  N36      1.0000 0.78867  0.27712  0.42480  Biso   1.000  N
  N37      1.0000 0.71133  0.77712  0.42480  Biso   1.000  N
  N38      1.0000 0.78867  0.22288  0.92480  Biso   1.000  N
  N39      1.0000 0.28867  0.27712  0.07520  Biso   1.000  N
  N40      1.0000 0.21133  0.72288  0.57520  Biso   1.000  N
  N41      1.0000 0.42840  0.11370  0.42005  Biso   1.000  N
  N42      1.0000 0.07160  0.88630  0.92005  Biso   1.000  N
  N43      1.0000 0.57160  0.61370  0.07995  Biso   1.000  N
  N44      1.0000 0.92840  0.38630  0.57995  Biso   1.000  N
  N45      1.0000 0.57160  0.88630  0.57995  Biso   1.000  N
  N46      1.0000 0.92840  0.11370  0.07995  Biso   1.000  N
  N47      1.0000 0.42840  0.38630  0.92005  Biso   1.000  N
  N48      1.0000 0.07160  0.61370  0.42005  Biso   1.000  N
  N49      1.0000 0.32540  0.28010  0.65542  Biso   1.000  N
  N50      1.0000 0.17460  0.71990  0.15542  Biso   1.000  N
  N51      1.0000 0.67460  0.78010  0.84458  Biso   1.000  N
  N52      1.0000 0.82540  0.21990  0.34458  Biso   1.000  N
  N53      1.0000 0.67460  0.71990  0.34458  Biso   1.000  N
  N54      1.0000 0.82540  0.28010  0.84458  Biso   1.000  N
  N55      1.0000 0.32540  0.21990  0.15542  Biso   1.000  N
  N56      1.0000 0.17460  0.78010  0.65542  Biso   1.000  N
  C1       1.0000 0.88023  0.13360  0.51482  Biso   1.000  C
  C2       1.0000 0.61977  0.86640  0.01482  Biso   1.000  C
  C3       1.0000 0.11977  0.63360  0.98518  Biso   1.000  C
  C4       1.0000 0.38023  0.36640  0.48518  Biso   1.000  C
  C5       1.0000 0.11977  0.86640  0.48518  Biso   1.000  C
  C6       1.0000 0.38023  0.13360  0.98518  Biso   1.000  C
  C7       1.0000 0.88023  0.36640  0.01482  Biso   1.000  C
  C8       1.0000 0.61977  0.63360  0.51482  Biso   1.000  C
  C9       1.0000 0.81060  0.08369  0.48265  Biso   1.000  C
  C10      1.0000 0.68940  0.91631  0.98265  Biso   1.000  C
  C11      1.0000 0.18940  0.58369  0.01735  Biso   1.000  C
  C12      1.0000 0.31060  0.41631  0.51735  Biso   1.000  C
  C13      1.0000 0.18940  0.91631  0.51735  Biso   1.000  C
  C14      1.0000 0.31060  0.08369  0.01735  Biso   1.000  C
  C15      1.0000 0.81060  0.41631  0.98265  Biso   1.000  C
  C16      1.0000 0.68940  0.58369  0.48265  Biso   1.000  C
  C17      1.0000 0.71421  0.07301  0.49490  Biso   1.000  C
  C18      1.0000 0.78579  0.92699  0.99490  Biso   1.000  C
  C19      1.0000 0.28579  0.57301  0.00510  Biso   1.000  C
  C20      1.0000 0.21421  0.42699  0.50510  Biso   1.000  C
  C21      1.0000 0.28579  0.92699  0.50510  Biso   1.000  C
  C22      1.0000 0.21421  0.07301  0.00510  Biso   1.000  C
  C23      1.0000 0.71421  0.42699  0.99490  Biso   1.000  C
  C24      1.0000 0.78579  0.57301  0.49490  Biso   1.000  C
  C25      1.0000 0.65561  0.02869  0.46088  Biso   1.000  C
  C26      1.0000 0.84439  0.97131  0.96088  Biso   1.000  C
  C27      1.0000 0.34439  0.52869  0.03912  Biso   1.000  C
  C28      1.0000 0.15561  0.47131  0.53912  Biso   1.000  C
  C29      1.0000 0.34439  0.97131  0.53912  Biso   1.000  C
  C30      1.0000 0.15561  0.02869  0.03912  Biso   1.000  C
  C31      1.0000 0.65561  0.47131  0.96088  Biso   1.000  C
  C32      1.0000 0.84439  0.52869  0.46088  Biso   1.000  C
  H1       1.0000 0.59210  0.02020  0.46880  Biso   1.000  H
  H2       1.0000 0.90790  0.97980  0.96880  Biso   1.000  H
  H3       1.0000 0.40790  0.52020  0.03120  Biso   1.000  H
  H4       1.0000 0.09210  0.47980  0.53120  Biso   1.000  H
  H5       1.0000 0.40790  0.97980  0.53120  Biso   1.000  H
  H6       1.0000 0.09210  0.02020  0.03120  Biso   1.000  H
  H7       1.0000 0.59210  0.47980  0.96880  Biso   1.000  H
  H8       1.0000 0.90790  0.52020  0.46880  Biso   1.000  H
  C33      1.0000 0.69010  0.99720  0.41570  Biso   1.000  C
  C34      1.0000 0.80990  0.00280  0.91570  Biso   1.000  C
  C35      1.0000 0.30990  0.49720  0.08430  Biso   1.000  C
  C36      1.0000 0.19010  0.50280  0.58430  Biso   1.000  C
  C37      1.0000 0.30990  0.00280  0.58430  Biso   1.000  C
  C38      1.0000 0.19010  0.99720  0.08430  Biso   1.000  C
  C39      1.0000 0.69010  0.50280  0.91570  Biso   1.000  C
  C40      1.0000 0.80990  0.49720  0.41570  Biso   1.000  C
  H9       1.0000 0.64950  0.96900  0.39320  Biso   1.000  H
  H10      1.0000 0.85050  0.03100  0.89320  Biso   1.000  H
  H11      1.0000 0.35050  0.46900  0.10680  Biso   1.000  H
  H12      1.0000 0.14950  0.53100  0.60680  Biso   1.000  H
  H13      1.0000 0.35050  0.03100  0.60680  Biso   1.000  H
  H14      1.0000 0.14950  0.96900  0.10680  Biso   1.000  H
  H15      1.0000 0.64950  0.53100  0.89320  Biso   1.000  H
  H16      1.0000 0.85050  0.46900  0.39320  Biso   1.000  H
  C41      1.0000 0.78450  0.00750  0.40367  Biso   1.000  C
  C42      1.0000 0.71550  0.99250  0.90367  Biso   1.000  C
  C43      1.0000 0.21550  0.50750  0.09633  Biso   1.000  C
  C44      1.0000 0.28450  0.49250  0.59633  Biso   1.000  C
  C45      1.0000 0.21550  0.99250  0.59633  Biso   1.000  C
  C46      1.0000 0.28450  0.00750  0.09633  Biso   1.000  C
  C47      1.0000 0.78450  0.49250  0.90367  Biso   1.000  C
  C48      1.0000 0.71550  0.50750  0.40367  Biso   1.000  C
  H17      1.0000 0.80810  0.98570  0.37340  Biso   1.000  H
  H18      1.0000 0.69190  0.01430  0.87340  Biso   1.000  H
  H19      1.0000 0.19190  0.48570  0.12660  Biso   1.000  H
  H20      1.0000 0.30810  0.51430  0.62660  Biso   1.000  H
  H21      1.0000 0.19190  0.01430  0.62660  Biso   1.000  H
  H22      1.0000 0.30810  0.98570  0.12660  Biso   1.000  H
  H23      1.0000 0.80810  0.51430  0.87340  Biso   1.000  H
  H24      1.0000 0.69190  0.48570  0.37340  Biso   1.000  H
  C49      1.0000 0.84350  0.05040  0.43703  Biso   1.000  C
  C50      1.0000 0.65650  0.94960  0.93703  Biso   1.000  C
  C51      1.0000 0.15650  0.55040  0.06297  Biso   1.000  C
  C52      1.0000 0.34350  0.44960  0.56297  Biso   1.000  C
  C53      1.0000 0.15650  0.94960  0.56297  Biso   1.000  C
  C54      1.0000 0.34350  0.05040  0.06297  Biso   1.000  C
  C55      1.0000 0.84350  0.44960  0.93703  Biso   1.000  C
  C56      1.0000 0.65650  0.55040  0.43703  Biso   1.000  C
  H25      1.0000 0.90710  0.05740  0.42880  Biso   1.000  H
  H26      1.0000 0.59290  0.94260  0.92880  Biso   1.000  H
  H27      1.0000 0.09290  0.55740  0.07120  Biso   1.000  H
  H28      1.0000 0.40710  0.44260  0.57120  Biso   1.000  H
  H29      1.0000 0.09290  0.94260  0.57120  Biso   1.000  H
  H30      1.0000 0.40710  0.05740  0.07120  Biso   1.000  H
  H31      1.0000 0.90710  0.44260  0.92880  Biso   1.000  H
  H32      1.0000 0.59290  0.55740  0.42880  Biso   1.000  H
  C57      1.0000 0.59323  0.13737  0.54651  Biso   1.000  C
  C58      1.0000 0.90677  0.86263  0.04651  Biso   1.000  C
  C59      1.0000 0.40677  0.63737  0.95349  Biso   1.000  C
  C60      1.0000 0.09323  0.36263  0.45349  Biso   1.000  C
  C61      1.0000 0.40677  0.86263  0.45349  Biso   1.000  C
  C62      1.0000 0.09323  0.13737  0.95349  Biso   1.000  C
  C63      1.0000 0.59323  0.36263  0.04651  Biso   1.000  C
  C64      1.0000 0.90677  0.63737  0.54651  Biso   1.000  C
  C65      1.0000 0.57078  0.17540  0.59776  Biso   1.000  C
  C66      1.0000 0.92922  0.82460  0.09776  Biso   1.000  C
  C67      1.0000 0.42922  0.67540  0.90224  Biso   1.000  C
  C68      1.0000 0.07078  0.32460  0.40224  Biso   1.000  C
  C69      1.0000 0.42922  0.82460  0.40224  Biso   1.000  C
  C70      1.0000 0.07078  0.17540  0.90224  Biso   1.000  C
  C71      1.0000 0.57078  0.32460  0.09776  Biso   1.000  C
  C72      1.0000 0.92922  0.67540  0.59776  Biso   1.000  C
  C73      1.0000 0.61510  0.20670  0.68107  Biso   1.000  C
  C74      1.0000 0.88490  0.79330  0.18107  Biso   1.000  C
  C75      1.0000 0.38490  0.70670  0.81893  Biso   1.000  C
  C76      1.0000 0.11510  0.29330  0.31893  Biso   1.000  C
  C77      1.0000 0.38490  0.79330  0.31893  Biso   1.000  C
  C78      1.0000 0.11510  0.20670  0.81893  Biso   1.000  C
  C79      1.0000 0.61510  0.29330  0.18107  Biso   1.000  C
  C80      1.0000 0.88490  0.70670  0.68107  Biso   1.000  C
  H33      1.0000 0.57130  0.16640  0.69750  Biso   1.000  H
  H34      1.0000 0.92870  0.83360  0.19750  Biso   1.000  H
  H35      1.0000 0.42870  0.66640  0.80250  Biso   1.000  H
  H36      1.0000 0.07130  0.33360  0.30250  Biso   1.000  H
  H37      1.0000 0.42870  0.83360  0.30250  Biso   1.000  H
  H38      1.0000 0.07130  0.16640  0.80250  Biso   1.000  H
  H39      1.0000 0.57130  0.33360  0.19750  Biso   1.000  H
  H40      1.0000 0.92870  0.66640  0.69750  Biso   1.000  H
  H41      1.0000 0.58420  0.26390  0.67790  Biso   1.000  H
  H42      1.0000 0.91580  0.73610  0.17790  Biso   1.000  H
  H43      1.0000 0.41580  0.76390  0.82210  Biso   1.000  H
  H44      1.0000 0.08420  0.23610  0.32210  Biso   1.000  H
  H45      1.0000 0.41580  0.73610  0.32210  Biso   1.000  H
  H46      1.0000 0.08420  0.26390  0.82210  Biso   1.000  H
  H47      1.0000 0.58420  0.23610  0.17790  Biso   1.000  H
  H48      1.0000 0.91580  0.76390  0.67790  Biso   1.000  H
  C81      1.0000 0.70300  0.21630  0.71299  Biso   1.000  C
  C82      1.0000 0.79700  0.78370  0.21299  Biso   1.000  C
  C83      1.0000 0.29700  0.71630  0.78701  Biso   1.000  C
  C84      1.0000 0.20300  0.28370  0.28701  Biso   1.000  C
  C85      1.0000 0.29700  0.78370  0.28701  Biso   1.000  C
  C86      1.0000 0.20300  0.21630  0.78701  Biso   1.000  C
  C87      1.0000 0.70300  0.28370  0.21299  Biso   1.000  C
  C88      1.0000 0.79700  0.71630  0.71299  Biso   1.000  C
  H49      1.0000 0.74010  0.26580  0.70040  Biso   1.000  H
  H50      1.0000 0.75990  0.73420  0.20040  Biso   1.000  H
  H51      1.0000 0.25990  0.76580  0.79960  Biso   1.000  H
  H52      1.0000 0.24010  0.23420  0.29960  Biso   1.000  H
  H53      1.0000 0.25990  0.73420  0.29960  Biso   1.000  H
  H54      1.0000 0.24010  0.26580  0.79960  Biso   1.000  H
  H55      1.0000 0.74010  0.23420  0.20040  Biso   1.000  H
  H56      1.0000 0.75990  0.76580  0.70040  Biso   1.000  H
  H57      1.0000 0.68450  0.23000  0.74730  Biso   1.000  H
  H58      1.0000 0.81550  0.77000  0.24730  Biso   1.000  H
  H59      1.0000 0.31550  0.73000  0.75270  Biso   1.000  H
  H60      1.0000 0.18450  0.27000  0.25270  Biso   1.000  H
  H61      1.0000 0.31550  0.77000  0.25270  Biso   1.000  H
  H62      1.0000 0.18450  0.23000  0.75270  Biso   1.000  H
  H63      1.0000 0.68450  0.27000  0.24730  Biso   1.000  H
  H64      1.0000 0.81550  0.73000  0.74730  Biso   1.000  H
  C89      1.0000 0.76360  0.13400  0.71309  Biso   1.000  C
  C90      1.0000 0.73640  0.86600  0.21309  Biso   1.000  C
  C91      1.0000 0.23640  0.63400  0.78691  Biso   1.000  C
  C92      1.0000 0.26360  0.36600  0.28691  Biso   1.000  C
  C93      1.0000 0.23640  0.86600  0.28691  Biso   1.000  C
  C94      1.0000 0.26360  0.13400  0.78691  Biso   1.000  C
  C95      1.0000 0.76360  0.36600  0.21309  Biso   1.000  C
  C96      1.0000 0.73640  0.63400  0.71309  Biso   1.000  C
  H65      1.0000 0.80020  0.13320  0.74400  Biso   1.000  H
  H66      1.0000 0.69980  0.86680  0.24400  Biso   1.000  H
  H67      1.0000 0.19980  0.63320  0.75600  Biso   1.000  H
  H68      1.0000 0.30020  0.36680  0.25600  Biso   1.000  H
  H69      1.0000 0.19980  0.86680  0.25600  Biso   1.000  H
  H70      1.0000 0.30020  0.13320  0.75600  Biso   1.000  H
  H71      1.0000 0.80020  0.36680  0.24400  Biso   1.000  H
  H72      1.0000 0.69980  0.63320  0.74400  Biso   1.000  H
  H73      1.0000 0.72220  0.08270  0.71360  Biso   1.000  H
  H74      1.0000 0.77780  0.91730  0.21360  Biso   1.000  H
  H75      1.0000 0.27780  0.58270  0.78640  Biso   1.000  H
  H76      1.0000 0.22220  0.41730  0.28640  Biso   1.000  H
  H77      1.0000 0.27780  0.91730  0.28640  Biso   1.000  H
  H78      1.0000 0.22220  0.08270  0.78640  Biso   1.000  H
  H79      1.0000 0.72220  0.41730  0.21360  Biso   1.000  H
  H80      1.0000 0.77780  0.58270  0.71360  Biso   1.000  H
  C97      1.0000 0.90050  0.19900  0.66879  Biso   1.000  C
  C98      1.0000 0.59950  0.80100  0.16879  Biso   1.000  C
  C99      1.0000 0.09950  0.69900  0.83121  Biso   1.000  C
  C100     1.0000 0.40050  0.30100  0.33121  Biso   1.000  C
  C101     1.0000 0.09950  0.80100  0.33121  Biso   1.000  C
  C102     1.0000 0.40050  0.19900  0.83121  Biso   1.000  C
  C103     1.0000 0.90050  0.30100  0.16879  Biso   1.000  C
  C104     1.0000 0.59950  0.69900  0.66879  Biso   1.000  C
  H81      1.0000 0.86660  0.25350  0.66150  Biso   1.000  H
  H82      1.0000 0.63340  0.74650  0.16150  Biso   1.000  H
  H83      1.0000 0.13340  0.75350  0.83850  Biso   1.000  H
  H84      1.0000 0.36660  0.24650  0.33850  Biso   1.000  H
  H85      1.0000 0.13340  0.74650  0.33850  Biso   1.000  H
  H86      1.0000 0.36660  0.25350  0.83850  Biso   1.000  H
  H87      1.0000 0.86660  0.24650  0.16150  Biso   1.000  H
  H88      1.0000 0.63340  0.75350  0.66150  Biso   1.000  H
  H89      1.0000 0.94440  0.18880  0.64130  Biso   1.000  H
  H90      1.0000 0.55560  0.81120  0.14130  Biso   1.000  H
  H91      1.0000 0.05560  0.68880  0.85870  Biso   1.000  H
  H92      1.0000 0.44440  0.31120  0.35870  Biso   1.000  H
  H93      1.0000 0.05560  0.81120  0.35870  Biso   1.000  H
  H94      1.0000 0.44440  0.18880  0.85870  Biso   1.000  H
  H95      1.0000 0.94440  0.31120  0.14130  Biso   1.000  H
  H96      1.0000 0.55560  0.68880  0.64130  Biso   1.000  H
  C105     1.0000 0.95790  0.21290  0.71678  Biso   1.000  C
  C106     1.0000 0.54210  0.78710  0.21678  Biso   1.000  C
  C107     1.0000 0.04210  0.71290  0.78322  Biso   1.000  C
  C108     1.0000 0.45790  0.28710  0.28322  Biso   1.000  C
  C109     1.0000 0.04210  0.78710  0.28322  Biso   1.000  C
  C110     1.0000 0.45790  0.21290  0.78322  Biso   1.000  C
  C111     1.0000 0.95790  0.28710  0.21678  Biso   1.000  C
  C112     1.0000 0.54210  0.71290  0.71678  Biso   1.000  C
  H97      1.0000 0.91570  0.22470  0.74440  Biso   1.000  H
  H98      1.0000 0.58430  0.77530  0.24440  Biso   1.000  H
  H99      1.0000 0.08430  0.72470  0.75560  Biso   1.000  H
  H100     1.0000 0.41570  0.27530  0.25560  Biso   1.000  H
  H101     1.0000 0.08430  0.77530  0.25560  Biso   1.000  H
  H102     1.0000 0.41570  0.22470  0.75560  Biso   1.000  H
  H103     1.0000 0.91570  0.27530  0.24440  Biso   1.000  H
  H104     1.0000 0.58430  0.72470  0.74440  Biso   1.000  H
  H105     1.0000 0.99990  0.26240  0.71240  Biso   1.000  H
  H106     1.0000 0.50010  0.73760  0.21240  Biso   1.000  H
  H107     1.0000 0.00010  0.76240  0.78760  Biso   1.000  H
  H108     1.0000 0.49990  0.23760  0.28760  Biso   1.000  H
  H109     1.0000 0.00010  0.73760  0.28760  Biso   1.000  H
  H110     1.0000 0.49990  0.26240  0.78760  Biso   1.000  H
  H111     1.0000 0.99990  0.23760  0.21240  Biso   1.000  H
  H112     1.0000 0.50010  0.76240  0.71240  Biso   1.000  H
  H113     1.0000 0.99410  0.16050  0.72390  Biso   1.000  H
  H114     1.0000 0.50590  0.83950  0.22390  Biso   1.000  H
  H115     1.0000 0.00590  0.66050  0.77610  Biso   1.000  H
  H116     1.0000 0.49410  0.33950  0.27610  Biso   1.000  H
  H117     1.0000 0.00590  0.83950  0.27610  Biso   1.000  H
  H118     1.0000 0.49410  0.16050  0.77610  Biso   1.000  H
  H119     1.0000 0.99410  0.33950  0.22390  Biso   1.000  H
  H120     1.0000 0.50590  0.66050  0.72390  Biso   1.000  H
  C113     1.0000 0.87840  0.03660  0.67839  Biso   1.000  C
  C114     1.0000 0.62160  0.96340  0.17839  Biso   1.000  C
  C115     1.0000 0.12160  0.53660  0.82161  Biso   1.000  C
  C116     1.0000 0.37840  0.46340  0.32161  Biso   1.000  C
  C117     1.0000 0.12160  0.96340  0.32161  Biso   1.000  C
  C118     1.0000 0.37840  0.03660  0.82161  Biso   1.000  C
  C119     1.0000 0.87840  0.46340  0.17839  Biso   1.000  C
  C120     1.0000 0.62160  0.53660  0.67839  Biso   1.000  C
  H121     1.0000 0.83040  0.99060  0.67710  Biso   1.000  H
  H122     1.0000 0.66960  0.00940  0.17710  Biso   1.000  H
  H123     1.0000 0.16960  0.49060  0.82290  Biso   1.000  H
  H124     1.0000 0.33040  0.50940  0.32290  Biso   1.000  H
  H125     1.0000 0.16960  0.00940  0.32290  Biso   1.000  H
  H126     1.0000 0.33040  0.99060  0.82290  Biso   1.000  H
  H127     1.0000 0.83040  0.50940  0.17710  Biso   1.000  H
  H128     1.0000 0.66960  0.49060  0.67710  Biso   1.000  H
  H129     1.0000 0.90440  0.03670  0.71220  Biso   1.000  H
  H130     1.0000 0.59560  0.96330  0.21220  Biso   1.000  H
  H131     1.0000 0.09560  0.53670  0.78780  Biso   1.000  H
  H132     1.0000 0.40440  0.46330  0.28780  Biso   1.000  H
  H133     1.0000 0.09560  0.96330  0.28780  Biso   1.000  H
  H134     1.0000 0.40440  0.03670  0.78780  Biso   1.000  H
  H135     1.0000 0.90440  0.46330  0.21220  Biso   1.000  H
  H136     1.0000 0.59560  0.53670  0.71220  Biso   1.000  H
  C121     1.0000 0.95660  0.01200  0.64225  Biso   1.000  C
  C122     1.0000 0.54340  0.98800  0.14225  Biso   1.000  C
  C123     1.0000 0.04340  0.51200  0.85775  Biso   1.000  C
  C124     1.0000 0.45660  0.48800  0.35775  Biso   1.000  C
  C125     1.0000 0.04340  0.98800  0.35775  Biso   1.000  C
  C126     1.0000 0.45660  0.01200  0.85775  Biso   1.000  C
  C127     1.0000 0.95660  0.48800  0.14225  Biso   1.000  C
  C128     1.0000 0.54340  0.51200  0.64225  Biso   1.000  C
  H137     1.0000 0.93350  0.01590  0.60830  Biso   1.000  H
  H138     1.0000 0.56650  0.98410  0.10830  Biso   1.000  H
  H139     1.0000 0.06650  0.51590  0.89170  Biso   1.000  H
  H140     1.0000 0.43350  0.48410  0.39170  Biso   1.000  H
  H141     1.0000 0.06650  0.98410  0.39170  Biso   1.000  H
  H142     1.0000 0.43350  0.01590  0.89170  Biso   1.000  H
  H143     1.0000 0.93350  0.48410  0.10830  Biso   1.000  H
  H144     1.0000 0.56650  0.51590  0.60830  Biso   1.000  H
  H145     1.0000 0.97710  0.95250  0.64890  Biso   1.000  H
  H146     1.0000 0.52290  0.04750  0.14890  Biso   1.000  H
  H147     1.0000 0.02290  0.45250  0.85110  Biso   1.000  H
  H148     1.0000 0.47710  0.54750  0.35110  Biso   1.000  H
  H149     1.0000 0.02290  0.04750  0.35110  Biso   1.000  H
  H150     1.0000 0.47710  0.95250  0.85110  Biso   1.000  H
  H151     1.0000 0.97710  0.54750  0.14890  Biso   1.000  H
  H152     1.0000 0.52290  0.45250  0.64890  Biso   1.000  H
  H153     1.0000 0.00890  0.05200  0.64650  Biso   1.000  H
  H154     1.0000 0.49110  0.94800  0.14650  Biso   1.000  H
  H155     1.0000 0.99110  0.55200  0.85350  Biso   1.000  H
  H156     1.0000 0.50890  0.44800  0.35350  Biso   1.000  H
  H157     1.0000 0.99110  0.94800  0.35350  Biso   1.000  H
  H158     1.0000 0.50890  0.05200  0.85350  Biso   1.000  H
  H159     1.0000 0.00890  0.44800  0.14650  Biso   1.000  H
  H160     1.0000 0.49110  0.55200  0.64650  Biso   1.000  H
  C129     1.0000 0.34270  0.12880  0.44007  Biso   1.000  C
  C130     1.0000 0.15730  0.87120  0.94007  Biso   1.000  C
  C131     1.0000 0.65730  0.62880  0.05993  Biso   1.000  C
  C132     1.0000 0.84270  0.37120  0.55993  Biso   1.000  C
  C133     1.0000 0.65730  0.87120  0.55993  Biso   1.000  C
  C134     1.0000 0.84270  0.12880  0.05993  Biso   1.000  C
  C135     1.0000 0.34270  0.37120  0.94007  Biso   1.000  C
  C136     1.0000 0.15730  0.62880  0.44007  Biso   1.000  C
  C137     1.0000 0.17320  0.14140  0.45886  Biso   1.000  C
  C138     1.0000 0.32680  0.85860  0.95886  Biso   1.000  C
  C139     1.0000 0.82680  0.64140  0.04114  Biso   1.000  C
  C140     1.0000 0.67320  0.35860  0.54114  Biso   1.000  C
  C141     1.0000 0.82680  0.85860  0.54114  Biso   1.000  C
  C142     1.0000 0.67320  0.14140  0.04114  Biso   1.000  C
  C143     1.0000 0.17320  0.35860  0.95886  Biso   1.000  C
  C144     1.0000 0.32680  0.64140  0.45886  Biso   1.000  C
  C145     1.0000 0.23050  0.16720  0.49622  Biso   1.000  C
  C146     1.0000 0.26950  0.83280  0.99622  Biso   1.000  C
  C147     1.0000 0.76950  0.66720  0.00378  Biso   1.000  C
  C148     1.0000 0.73050  0.33280  0.50378  Biso   1.000  C
  C149     1.0000 0.76950  0.83280  0.50378  Biso   1.000  C
  C150     1.0000 0.73050  0.16720  0.00378  Biso   1.000  C
  C151     1.0000 0.23050  0.33280  0.99622  Biso   1.000  C
  C152     1.0000 0.26950  0.66720  0.49622  Biso   1.000  C
  C153     1.0000 0.20928  0.20250  0.54623  Biso   1.000  C
  C154     1.0000 0.29072  0.79750  0.04623  Biso   1.000  C
  C155     1.0000 0.79072  0.70250  0.95377  Biso   1.000  C
  C156     1.0000 0.70928  0.29750  0.45377  Biso   1.000  C
  C157     1.0000 0.79072  0.79750  0.45377  Biso   1.000  C
  C158     1.0000 0.70928  0.20250  0.95377  Biso   1.000  C
  C159     1.0000 0.20928  0.29750  0.04623  Biso   1.000  C
  C160     1.0000 0.29072  0.70250  0.54623  Biso   1.000  C
  C161     1.0000 0.12570  0.22010  0.56826  Biso   1.000  C
  C162     1.0000 0.37430  0.77990  0.06826  Biso   1.000  C
  C163     1.0000 0.87430  0.72010  0.93174  Biso   1.000  C
  C164     1.0000 0.62570  0.27990  0.43174  Biso   1.000  C
  C165     1.0000 0.87430  0.77990  0.43174  Biso   1.000  C
  C166     1.0000 0.62570  0.22010  0.93174  Biso   1.000  C
  C167     1.0000 0.12570  0.27990  0.06826  Biso   1.000  C
  C168     1.0000 0.37430  0.72010  0.56826  Biso   1.000  C
  C169     1.0000 0.26485  0.25640  0.61926  Biso   1.000  C
  C170     1.0000 0.23515  0.74360  0.11926  Biso   1.000  C
  C171     1.0000 0.73515  0.75640  0.88074  Biso   1.000  C
  C172     1.0000 0.76485  0.24360  0.38074  Biso   1.000  C
  C173     1.0000 0.73515  0.74360  0.38074  Biso   1.000  C
  C174     1.0000 0.76485  0.25640  0.88074  Biso   1.000  C
  C175     1.0000 0.26485  0.24360  0.11926  Biso   1.000  C
  C176     1.0000 0.23515  0.75640  0.61926  Biso   1.000  C
  H161     1.0000 0.47940  0.11800  0.43700  Biso   1.000  H
  H162     1.0000 0.02060  0.88200  0.93700  Biso   1.000  H
  H163     1.0000 0.52060  0.61800  0.06300  Biso   1.000  H
  H164     1.0000 0.97940  0.38200  0.56300  Biso   1.000  H
  H165     1.0000 0.52060  0.88200  0.56300  Biso   1.000  H
  H166     1.0000 0.97940  0.11800  0.06300  Biso   1.000  H
  H167     1.0000 0.47940  0.38200  0.93700  Biso   1.000  H
  H168     1.0000 0.02060  0.61800  0.43700  Biso   1.000  H
  H169     1.0000 0.43400  0.09100  0.39090  Biso   1.000  H
  H170     1.0000 0.06600  0.90900  0.89090  Biso   1.000  H
  H171     1.0000 0.56600  0.59100  0.10910  Biso   1.000  H
  H172     1.0000 0.93400  0.40900  0.60910  Biso   1.000  H
  H173     1.0000 0.56600  0.90900  0.60910  Biso   1.000  H
  H174     1.0000 0.93400  0.09100  0.10910  Biso   1.000  H
  H175     1.0000 0.43400  0.40900  0.89090  Biso   1.000  H
  H176     1.0000 0.06600  0.59100  0.39090  Biso   1.000  H
  H177     1.0000 0.38200  0.27500  0.64700  Biso   1.000  H
  H178     1.0000 0.11800  0.72500  0.14700  Biso   1.000  H
  H179     1.0000 0.61800  0.77500  0.85300  Biso   1.000  H
  H180     1.0000 0.88200  0.22500  0.35300  Biso   1.000  H
  H181     1.0000 0.61800  0.72500  0.35300  Biso   1.000  H
  H182     1.0000 0.88200  0.27500  0.85300  Biso   1.000  H
  H183     1.0000 0.38200  0.22500  0.14700  Biso   1.000  H
  H184     1.0000 0.11800  0.77500  0.64700  Biso   1.000  H
  H185     1.0000 0.30500  0.31500  0.67680  Biso   1.000  H
  H186     1.0000 0.19500  0.68500  0.17680  Biso   1.000  H
  H187     1.0000 0.69500  0.81500  0.82320  Biso   1.000  H
  H188     1.0000 0.80500  0.18500  0.32320  Biso   1.000  H
  H189     1.0000 0.69500  0.68500  0.32320  Biso   1.000  H
  H190     1.0000 0.80500  0.31500  0.82320  Biso   1.000  H
  H191     1.0000 0.30500  0.18500  0.17680  Biso   1.000  H
  H192     1.0000 0.19500  0.81500  0.67680  Biso   1.000  H
  H193     1.0000 0.11200  0.14200  0.45990  Biso   1.000  H
  H194     1.0000 0.38800  0.85800  0.95990  Biso   1.000  H
  H195     1.0000 0.88800  0.64200  0.04010  Biso   1.000  H
  H196     1.0000 0.61200  0.35800  0.54010  Biso   1.000  H
  H197     1.0000 0.88800  0.85800  0.54010  Biso   1.000  H
  H198     1.0000 0.61200  0.14200  0.04010  Biso   1.000  H
  H199     1.0000 0.11200  0.35800  0.95990  Biso   1.000  H
  H200     1.0000 0.38800  0.64200  0.45990  Biso   1.000  H
  H201     1.0000 0.06900  0.21200  0.55380  Biso   1.000  H
  H202     1.0000 0.43100  0.78800  0.05380  Biso   1.000  H
  H203     1.0000 0.93100  0.71200  0.94620  Biso   1.000  H
  H204     1.0000 0.56900  0.28800  0.44620  Biso   1.000  H
  H205     1.0000 0.93100  0.78800  0.44620  Biso   1.000  H
  H206     1.0000 0.56900  0.21200  0.94620  Biso   1.000  H
  H207     1.0000 0.06900  0.28800  0.05380  Biso   1.000  H
  H208     1.0000 0.43100  0.71200  0.55380  Biso   1.000  H
  O33      1.0000 0.22350  0.40570  0.71780  Biso   1.000  O
  O34      1.0000 0.27650  0.59430  0.21780  Biso   1.000  O
  O35      1.0000 0.77650  0.90570  0.78220  Biso   1.000  O
  O36      1.0000 0.72350  0.09430  0.28220  Biso   1.000  O
  O37      1.0000 0.77650  0.59430  0.28220  Biso   1.000  O
  O38      1.0000 0.72350  0.40570  0.78220  Biso   1.000  O
  O39      1.0000 0.22350  0.09430  0.21780  Biso   1.000  O
  O40      1.0000 0.27650  0.90570  0.71780  Biso   1.000  O
  H209     1.0000 0.23630  0.44070  0.74200  Biso   1.000  H
  H210     1.0000 0.26370  0.55930  0.24200  Biso   1.000  H
  H211     1.0000 0.76370  0.94070  0.75800  Biso   1.000  H
  H212     1.0000 0.73630  0.05930  0.25800  Biso   1.000  H
  H213     1.0000 0.76370  0.55930  0.25800  Biso   1.000  H
  H214     1.0000 0.73630  0.44070  0.75800  Biso   1.000  H
  H215     1.0000 0.23630  0.05930  0.24200  Biso   1.000  H
  H216     1.0000 0.26370  0.94070  0.74200  Biso   1.000  H
  H217     1.0000 0.16540  0.41260  0.71040  Biso   1.000  H
  H218     1.0000 0.33460  0.58740  0.21040  Biso   1.000  H
  H219     1.0000 0.83460  0.91260  0.78960  Biso   1.000  H
  H220     1.0000 0.66540  0.08740  0.28960  Biso   1.000  H
  H221     1.0000 0.83460  0.58740  0.28960  Biso   1.000  H
  H222     1.0000 0.66540  0.41260  0.78960  Biso   1.000  H
  H223     1.0000 0.16540  0.08740  0.21040  Biso   1.000  H
  H224     1.0000 0.33460  0.91260  0.71040  Biso   1.000  H
  O41      1.0000 0.36090  0.06540  0.31461  Biso   1.000  O
  O42      1.0000 0.13910  0.93460  0.81461  Biso   1.000  O
  O43      1.0000 0.63910  0.56540  0.18539  Biso   1.000  O
  O44      1.0000 0.86090  0.43460  0.68539  Biso   1.000  O
  O45      1.0000 0.63910  0.93460  0.68539  Biso   1.000  O
  O46      1.0000 0.86090  0.06540  0.18539  Biso   1.000  O
  O47      1.0000 0.36090  0.43460  0.81461  Biso   1.000  O
  O48      1.0000 0.13910  0.56540  0.31461  Biso   1.000  O
  O49      1.0000 0.50830  0.04460  0.31707  Biso   1.000  O
  O50      1.0000 0.99170  0.95540  0.81707  Biso   1.000  O
  O51      1.0000 0.49170  0.54460  0.18293  Biso   1.000  O
  O52      1.0000 0.00830  0.45540  0.68293  Biso   1.000  O
  O53      1.0000 0.49170  0.95540  0.68293  Biso   1.000  O
  O54      1.0000 0.00830  0.04460  0.18293  Biso   1.000  O
  O55      1.0000 0.50830  0.45540  0.81707  Biso   1.000  O
  O56      1.0000 0.99170  0.54460  0.31707  Biso   1.000  O
  O57      1.0000 0.43180  0.03090  0.24903  Biso   1.000  O
  O58      1.0000 0.06820  0.96910  0.74903  Biso   1.000  O
  O59      1.0000 0.56820  0.53090  0.25097  Biso   1.000  O
  O60      1.0000 0.93180  0.46910  0.75097  Biso   1.000  O
  O61      1.0000 0.56820  0.96910  0.75097  Biso   1.000  O
  O62      1.0000 0.93180  0.03090  0.25097  Biso   1.000  O
  O63      1.0000 0.43180  0.46910  0.74903  Biso   1.000  O
  O64      1.0000 0.06820  0.53090  0.24903  Biso   1.000  O
  N57      1.0000 0.43480  0.04610  0.29332  Biso   1.000  N
  N58      1.0000 0.06520  0.95390  0.79332  Biso   1.000  N
  N59      1.0000 0.56520  0.54610  0.20668  Biso   1.000  N
  N60      1.0000 0.93480  0.45390  0.70668  Biso   1.000  N
  N61      1.0000 0.56520  0.95390  0.70668  Biso   1.000  N
  N62      1.0000 0.93480  0.04610  0.20668  Biso   1.000  N
  N63      1.0000 0.43480  0.45390  0.79332  Biso   1.000  N
  N64      1.0000 0.06520  0.54610  0.29332  Biso   1.000  N
