data_image0
_cell_length_a       5.1863
_cell_length_b       16.5502
_cell_length_c       10.248
_cell_angle_alpha    90
_cell_angle_beta     93.952
_cell_angle_gamma    90

_symmetry_space_group_name_H-M    "P 1"
_symmetry_int_tables_number       1

loop_
  _symmetry_equiv_pos_as_xyz
  'x, y, z'

loop_
  _atom_site_label
  _atom_site_occupancy
  _atom_site_fract_x
  _atom_site_fract_y
  _atom_site_fract_z
  _atom_site_thermal_displace_type
  _atom_site_B_iso_or_equiv
  _atom_site_type_symbol
  Cu1      1.0000 0.50000  0.50000  0.00000  Biso   1.000  Cu
  Cu2      1.0000 0.50000  0.00000  0.50000  Biso   1.000  Cu
  O1       1.0000 0.39740  0.44735  0.16177  Biso   1.000  O
  O2       1.0000 0.60260  0.94735  0.33823  Biso   1.000  O
  O3       1.0000 0.60260  0.55265  0.83823  Biso   1.000  O
  O4       1.0000 0.39740  0.05265  0.66177  Biso   1.000  O
  H1       1.0000 0.40210  0.48180  0.22450  Biso   1.000  H
  H2       1.0000 0.59790  0.98180  0.27550  Biso   1.000  H
  H3       1.0000 0.59790  0.51820  0.77550  Biso   1.000  H
  H4       1.0000 0.40210  0.01820  0.72450  Biso   1.000  H
  O5       1.0000 0.72510  0.40946  0.97550  Biso   1.000  O
  O6       1.0000 0.27490  0.90946  0.52450  Biso   1.000  O
  O7       1.0000 0.27490  0.59054  0.02450  Biso   1.000  O
  O8       1.0000 0.72510  0.09054  0.47550  Biso   1.000  O
  H5       1.0000 0.79460  0.39270  0.04990  Biso   1.000  H
  H6       1.0000 0.20540  0.89270  0.45010  Biso   1.000  H
  H7       1.0000 0.20540  0.60730  0.95010  Biso   1.000  H
  H8       1.0000 0.79460  0.10730  0.54990  Biso   1.000  H
  H9       1.0000 0.84810  0.42320  0.92690  Biso   1.000  H
  H10      1.0000 0.15190  0.92320  0.57310  Biso   1.000  H
  H11      1.0000 0.15190  0.57680  0.07310  Biso   1.000  H
  H12      1.0000 0.84810  0.07680  0.42690  Biso   1.000  H
  O9       1.0000 0.82810  0.56333  0.13971  Biso   1.000  O
  O10      1.0000 0.17190  0.06333  0.36029  Biso   1.000  O
  O11      1.0000 0.17190  0.43667  0.86029  Biso   1.000  O
  O12      1.0000 0.82810  0.93667  0.63971  Biso   1.000  O
  O13      1.0000 0.93350  0.66806  0.25707  Biso   1.000  O
  O14      1.0000 0.06650  0.16806  0.24293  Biso   1.000  O
  O15      1.0000 0.06650  0.33194  0.74293  Biso   1.000  O
  O16      1.0000 0.93350  0.83194  0.75707  Biso   1.000  O
  O17      1.0000 0.52190  0.73503  0.55020  Biso   1.000  O
  O18      1.0000 0.47810  0.23503  0.94980  Biso   1.000  O
  O19      1.0000 0.47810  0.26497  0.44980  Biso   1.000  O
  O20      1.0000 0.52190  0.76497  0.05020  Biso   1.000  O
  O21      1.0000 0.00230  0.56274  0.58310  Biso   1.000  O
  O22      1.0000 0.99770  0.06274  0.91690  Biso   1.000  O
  O23      1.0000 0.99770  0.43726  0.41690  Biso   1.000  O
  O24      1.0000 0.00230  0.93726  0.08310  Biso   1.000  O
  N1       1.0000 0.78740  0.61068  0.23278  Biso   1.000  N
  N2       1.0000 0.21260  0.11068  0.26722  Biso   1.000  N
  N3       1.0000 0.21260  0.38932  0.76722  Biso   1.000  N
  N4       1.0000 0.78740  0.88932  0.73278  Biso   1.000  N
  N5       1.0000 0.18200  0.50017  0.40700  Biso   1.000  N
  N6       1.0000 0.81800  0.00017  0.09300  Biso   1.000  N
  N7       1.0000 0.81800  0.49983  0.59300  Biso   1.000  N
  N8       1.0000 0.18200  0.99983  0.90700  Biso   1.000  N
  N9       1.0000 0.59020  0.59176  0.30138  Biso   1.000  N
  N10      1.0000 0.40980  0.09176  0.19862  Biso   1.000  N
  N11      1.0000 0.40980  0.40824  0.69862  Biso   1.000  N
  N12      1.0000 0.59020  0.90824  0.80138  Biso   1.000  N
  N13      1.0000 0.33700  0.68076  0.57794  Biso   1.000  N
  N14      1.0000 0.66300  0.18076  0.92206  Biso   1.000  N
  N15      1.0000 0.66300  0.31924  0.42206  Biso   1.000  N
  N16      1.0000 0.33700  0.81924  0.07794  Biso   1.000  N
  N17      1.0000 0.64990  0.71145  0.44070  Biso   1.000  N
  N18      1.0000 0.35010  0.21145  0.05930  Biso   1.000  N
  N19      1.0000 0.35010  0.28855  0.55930  Biso   1.000  N
  N20      1.0000 0.64990  0.78855  0.94070  Biso   1.000  N
  C1       1.0000 0.34460  0.62459  0.48939  Biso   1.000  C
  C2       1.0000 0.65540  0.12459  0.01061  Biso   1.000  C
  C3       1.0000 0.65540  0.37541  0.51061  Biso   1.000  C
  C4       1.0000 0.34460  0.87541  0.98939  Biso   1.000  C
  C5       1.0000 0.54180  0.64321  0.40211  Biso   1.000  C
  C6       1.0000 0.45820  0.14321  0.09789  Biso   1.000  C
  C7       1.0000 0.45820  0.35679  0.59789  Biso   1.000  C
  C8       1.0000 0.54180  0.85679  0.90211  Biso   1.000  C
  C9       1.0000 0.16900  0.55648  0.48991  Biso   1.000  C
  C10      1.0000 0.83100  0.05648  0.01009  Biso   1.000  C
  C11      1.0000 0.83100  0.44352  0.51009  Biso   1.000  C
  C12      1.0000 0.16900  0.94352  0.98991  Biso   1.000  C
  H13      1.0000 0.26500  0.41450  0.16600  Biso   1.000  H
  H14      1.0000 0.73500  0.91450  0.33400  Biso   1.000  H
  H15      1.0000 0.73500  0.58550  0.83400  Biso   1.000  H
  H16      1.0000 0.26500  0.08550  0.66600  Biso   1.000  H
  O25      1.0000 0.00510  0.33380  0.17329  Biso   1.000  O
  O26      1.0000 0.99490  0.83380  0.32671  Biso   1.000  O
  O27      1.0000 0.99490  0.66620  0.82671  Biso   1.000  O
  O28      1.0000 0.00510  0.16620  0.67329  Biso   1.000  O
  H17      1.0000 0.08000  0.29210  0.15000  Biso   1.000  H
  H18      1.0000 0.92000  0.79210  0.35000  Biso   1.000  H
  H19      1.0000 0.92000  0.70790  0.85000  Biso   1.000  H
  H20      1.0000 0.08000  0.20790  0.65000  Biso   1.000  H
  H21      1.0000 0.92600  0.33350  0.24100  Biso   1.000  H
  H22      1.0000 0.07400  0.83350  0.25900  Biso   1.000  H
  H23      1.0000 0.07400  0.66650  0.75900  Biso   1.000  H
  H24      1.0000 0.92600  0.16650  0.74100  Biso   1.000  H
