data_image0
_cell_length_a       30.511
_cell_length_b       7.9025
_cell_length_c       20.1039
_cell_angle_alpha    90
_cell_angle_beta     126.911
_cell_angle_gamma    90

_symmetry_space_group_name_H-M    "P 1"
_symmetry_int_tables_number       1

loop_
  _symmetry_equiv_pos_as_xyz
  'x, y, z'

loop_
  _atom_site_label
  _atom_site_occupancy
  _atom_site_fract_x
  _atom_site_fract_y
  _atom_site_fract_z
  _atom_site_thermal_displace_type
  _atom_site_B_iso_or_equiv
  _atom_site_type_symbol
  Cu1      1.0000 0.15225  0.40747  0.41171  Biso   1.000  Cu
  Cu2      1.0000 0.65225  0.90747  0.41171  Biso   1.000  Cu
  Cu3      1.0000 0.84775  0.40747  0.08829  Biso   1.000  Cu
  Cu4      1.0000 0.34775  0.90747  0.08829  Biso   1.000  Cu
  Cu5      1.0000 0.84775  0.59253  0.58829  Biso   1.000  Cu
  Cu6      1.0000 0.34775  0.09253  0.58829  Biso   1.000  Cu
  Cu7      1.0000 0.15225  0.59253  0.91171  Biso   1.000  Cu
  Cu8      1.0000 0.65225  0.09253  0.91171  Biso   1.000  Cu
  N1       1.0000 0.10328  0.25920  0.42430  Biso   1.000  N
  N2       1.0000 0.60328  0.75920  0.42430  Biso   1.000  N
  N3       1.0000 0.89672  0.25920  0.07570  Biso   1.000  N
  N4       1.0000 0.39672  0.75920  0.07570  Biso   1.000  N
  N5       1.0000 0.89672  0.74080  0.57570  Biso   1.000  N
  N6       1.0000 0.39672  0.24080  0.57570  Biso   1.000  N
  N7       1.0000 0.10328  0.74080  0.92430  Biso   1.000  N
  N8       1.0000 0.60328  0.24080  0.92430  Biso   1.000  N
  C1       1.0000 0.11121  0.27130  0.49810  Biso   1.000  C
  C2       1.0000 0.61121  0.77130  0.49810  Biso   1.000  C
  C3       1.0000 0.88879  0.27130  0.00190  Biso   1.000  C
  C4       1.0000 0.38879  0.77130  0.00190  Biso   1.000  C
  C5       1.0000 0.88879  0.72870  0.50190  Biso   1.000  C
  C6       1.0000 0.38879  0.22870  0.50190  Biso   1.000  C
  C7       1.0000 0.11121  0.72870  0.99810  Biso   1.000  C
  C8       1.0000 0.61121  0.22870  0.99810  Biso   1.000  C
  C9       1.0000 0.07958  0.18520  0.51470  Biso   1.000  C
  C10      1.0000 0.57958  0.68520  0.51470  Biso   1.000  C
  C11      1.0000 0.92042  0.18520  0.98530  Biso   1.000  C
  C12      1.0000 0.42042  0.68520  0.98530  Biso   1.000  C
  C13      1.0000 0.92042  0.81480  0.48530  Biso   1.000  C
  C14      1.0000 0.42042  0.31480  0.48530  Biso   1.000  C
  C15      1.0000 0.07958  0.81480  0.01470  Biso   1.000  C
  C16      1.0000 0.57958  0.31480  0.01470  Biso   1.000  C
  C17      1.0000 0.03645  0.08330  0.45450  Biso   1.000  C
  C18      1.0000 0.53645  0.58330  0.45450  Biso   1.000  C
  C19      1.0000 0.96355  0.08330  0.04550  Biso   1.000  C
  C20      1.0000 0.46355  0.58330  0.04550  Biso   1.000  C
  C21      1.0000 0.96355  0.91670  0.54550  Biso   1.000  C
  C22      1.0000 0.46355  0.41670  0.54550  Biso   1.000  C
  C23      1.0000 0.03645  0.91670  0.95450  Biso   1.000  C
  C24      1.0000 0.53645  0.41670  0.95450  Biso   1.000  C
  C25      1.0000 0.02852  0.07080  0.37820  Biso   1.000  C
  C26      1.0000 0.52852  0.57080  0.37820  Biso   1.000  C
  C27      1.0000 0.97148  0.07080  0.12180  Biso   1.000  C
  C28      1.0000 0.47148  0.57080  0.12180  Biso   1.000  C
  C29      1.0000 0.97148  0.92920  0.62180  Biso   1.000  C
  C30      1.0000 0.47148  0.42920  0.62180  Biso   1.000  C
  C31      1.0000 0.02852  0.92920  0.87820  Biso   1.000  C
  C32      1.0000 0.52852  0.42920  0.87820  Biso   1.000  C
  C33      1.0000 0.06278  0.15830  0.36660  Biso   1.000  C
  C34      1.0000 0.56278  0.65830  0.36660  Biso   1.000  C
  C35      1.0000 0.93722  0.15830  0.13340  Biso   1.000  C
  C36      1.0000 0.43722  0.65830  0.13340  Biso   1.000  C
  C37      1.0000 0.93722  0.84170  0.63340  Biso   1.000  C
  C38      1.0000 0.43722  0.34170  0.63340  Biso   1.000  C
  C39      1.0000 0.06278  0.84170  0.86660  Biso   1.000  C
  C40      1.0000 0.56278  0.34170  0.86660  Biso   1.000  C
  C41      1.0000 0.99886  0.99370  0.46550  Biso   1.000  C
  C42      1.0000 0.49886  0.49370  0.46550  Biso   1.000  C
  C43      1.0000 0.00114  0.99370  0.03450  Biso   1.000  C
  C44      1.0000 0.50114  0.49370  0.03450  Biso   1.000  C
  C45      1.0000 0.00114  0.00630  0.53450  Biso   1.000  C
  C46      1.0000 0.50114  0.50630  0.53450  Biso   1.000  C
  C47      1.0000 0.99886  0.00630  0.96550  Biso   1.000  C
  C48      1.0000 0.49886  0.50630  0.96550  Biso   1.000  C
  N9       1.0000 0.10020  0.43550  0.28862  Biso   1.000  N
  N10      1.0000 0.60020  0.93550  0.28862  Biso   1.000  N
  N11      1.0000 0.89980  0.43550  0.21138  Biso   1.000  N
  N12      1.0000 0.39980  0.93550  0.21138  Biso   1.000  N
  N13      1.0000 0.89980  0.56450  0.71138  Biso   1.000  N
  N14      1.0000 0.39980  0.06450  0.71138  Biso   1.000  N
  N15      1.0000 0.10020  0.56450  0.78862  Biso   1.000  N
  N16      1.0000 0.60020  0.06450  0.78862  Biso   1.000  N
  C49      1.0000 0.05652  0.53850  0.25280  Biso   1.000  C
  C50      1.0000 0.55652  0.03850  0.25280  Biso   1.000  C
  C51      1.0000 0.94348  0.53850  0.24720  Biso   1.000  C
  C52      1.0000 0.44348  0.03850  0.24720  Biso   1.000  C
  C53      1.0000 0.94348  0.46150  0.74720  Biso   1.000  C
  C54      1.0000 0.44348  0.96150  0.74720  Biso   1.000  C
  C55      1.0000 0.05652  0.46150  0.75280  Biso   1.000  C
  C56      1.0000 0.55652  0.96150  0.75280  Biso   1.000  C
  C57      1.0000 0.02189  0.56900  0.16870  Biso   1.000  C
  C58      1.0000 0.52189  0.06900  0.16870  Biso   1.000  C
  C59      1.0000 0.97811  0.56900  0.33130  Biso   1.000  C
  C60      1.0000 0.47811  0.06900  0.33130  Biso   1.000  C
  C61      1.0000 0.97811  0.43100  0.83130  Biso   1.000  C
  C62      1.0000 0.47811  0.93100  0.83130  Biso   1.000  C
  C63      1.0000 0.02189  0.43100  0.66870  Biso   1.000  C
  C64      1.0000 0.52189  0.93100  0.66870  Biso   1.000  C
  C65      1.0000 0.03191  0.49230  0.11650  Biso   1.000  C
  C66      1.0000 0.53191  0.99230  0.11650  Biso   1.000  C
  C67      1.0000 0.96809  0.49230  0.38350  Biso   1.000  C
  C68      1.0000 0.46809  0.99230  0.38350  Biso   1.000  C
  C69      1.0000 0.96809  0.50770  0.88350  Biso   1.000  C
  C70      1.0000 0.46809  0.00770  0.88350  Biso   1.000  C
  C71      1.0000 0.03191  0.50770  0.61650  Biso   1.000  C
  C72      1.0000 0.53191  0.00770  0.61650  Biso   1.000  C
  C73      1.0000 0.07745  0.38800  0.15350  Biso   1.000  C
  C74      1.0000 0.57745  0.88800  0.15350  Biso   1.000  C
  C75      1.0000 0.92255  0.38800  0.34650  Biso   1.000  C
  C76      1.0000 0.42255  0.88800  0.34650  Biso   1.000  C
  C77      1.0000 0.92255  0.61200  0.84650  Biso   1.000  C
  C78      1.0000 0.42255  0.11200  0.84650  Biso   1.000  C
  C79      1.0000 0.07745  0.61200  0.65350  Biso   1.000  C
  C80      1.0000 0.57745  0.11200  0.65350  Biso   1.000  C
  C81      1.0000 0.11001  0.36250  0.23860  Biso   1.000  C
  C82      1.0000 0.61001  0.86250  0.23860  Biso   1.000  C
  C83      1.0000 0.88999  0.36250  0.26140  Biso   1.000  C
  C84      1.0000 0.38999  0.86250  0.26140  Biso   1.000  C
  C85      1.0000 0.88999  0.63750  0.76140  Biso   1.000  C
  C86      1.0000 0.38999  0.13750  0.76140  Biso   1.000  C
  C87      1.0000 0.11001  0.63750  0.73860  Biso   1.000  C
  C88      1.0000 0.61001  0.13750  0.73860  Biso   1.000  C
  C89      1.0000 0.99496  0.52520  0.02610  Biso   1.000  C
  C90      1.0000 0.49496  0.02520  0.02610  Biso   1.000  C
  C91      1.0000 0.00504  0.52520  0.47390  Biso   1.000  C
  C92      1.0000 0.50504  0.02520  0.47390  Biso   1.000  C
  C93      1.0000 0.00504  0.47480  0.97390  Biso   1.000  C
  C94      1.0000 0.50504  0.97480  0.97390  Biso   1.000  C
  C95      1.0000 0.99496  0.47480  0.52610  Biso   1.000  C
  C96      1.0000 0.49496  0.97480  0.52610  Biso   1.000  C
  O1       1.0000 0.21350  0.34890  0.52742  Biso   1.000  O
  O2       1.0000 0.71350  0.84890  0.52742  Biso   1.000  O
  O3       1.0000 0.78650  0.34890  0.97258  Biso   1.000  O
  O4       1.0000 0.28650  0.84890  0.97258  Biso   1.000  O
  O5       1.0000 0.78650  0.65110  0.47258  Biso   1.000  O
  O6       1.0000 0.28650  0.15110  0.47258  Biso   1.000  O
  O7       1.0000 0.21350  0.65110  0.02742  Biso   1.000  O
  O8       1.0000 0.71350  0.15110  0.02742  Biso   1.000  O
  O9       1.0000 0.30431  0.37100  0.62080  Biso   1.000  O
  O10      1.0000 0.80431  0.87100  0.62080  Biso   1.000  O
  O11      1.0000 0.69569  0.37100  0.87920  Biso   1.000  O
  O12      1.0000 0.19569  0.87100  0.87920  Biso   1.000  O
  O13      1.0000 0.69569  0.62900  0.37920  Biso   1.000  O
  O14      1.0000 0.19569  0.12900  0.37920  Biso   1.000  O
  O15      1.0000 0.30431  0.62900  0.12080  Biso   1.000  O
  O16      1.0000 0.80431  0.12900  0.12080  Biso   1.000  O
  O17      1.0000 0.37062  0.78880  0.43990  Biso   1.000  O
  O18      1.0000 0.87062  0.28880  0.43990  Biso   1.000  O
  O19      1.0000 0.62938  0.78880  0.06010  Biso   1.000  O
  O20      1.0000 0.12938  0.28880  0.06010  Biso   1.000  O
  O21      1.0000 0.62938  0.21120  0.56010  Biso   1.000  O
  O22      1.0000 0.12938  0.71120  0.56010  Biso   1.000  O
  O23      1.0000 0.37062  0.21120  0.93990  Biso   1.000  O
  O24      1.0000 0.87062  0.71120  0.93990  Biso   1.000  O
  O25      1.0000 0.38309  0.87500  0.55628  Biso   1.000  O
  O26      1.0000 0.88309  0.37500  0.55628  Biso   1.000  O
  O27      1.0000 0.61691  0.87500  0.94372  Biso   1.000  O
  O28      1.0000 0.11691  0.37500  0.94372  Biso   1.000  O
  O29      1.0000 0.61691  0.12500  0.44372  Biso   1.000  O
  O30      1.0000 0.11691  0.62500  0.44372  Biso   1.000  O
  O31      1.0000 0.38309  0.12500  0.05628  Biso   1.000  O
  O32      1.0000 0.88309  0.62500  0.05628  Biso   1.000  O
  N17      1.0000 0.21218  0.53770  0.41867  Biso   1.000  N
  N18      1.0000 0.71218  0.03770  0.41867  Biso   1.000  N
  N19      1.0000 0.78782  0.53770  0.08133  Biso   1.000  N
  N20      1.0000 0.28782  0.03770  0.08133  Biso   1.000  N
  N21      1.0000 0.78782  0.46230  0.58133  Biso   1.000  N
  N22      1.0000 0.28782  0.96230  0.58133  Biso   1.000  N
  N23      1.0000 0.21218  0.46230  0.91867  Biso   1.000  N
  N24      1.0000 0.71218  0.96230  0.91867  Biso   1.000  N
  C97      1.0000 0.20980  0.64020  0.36350  Biso   1.000  C
  C98      1.0000 0.70980  0.14020  0.36350  Biso   1.000  C
  C99      1.0000 0.79020  0.64020  0.13650  Biso   1.000  C
  C100     1.0000 0.29020  0.14020  0.13650  Biso   1.000  C
  C101     1.0000 0.79020  0.35980  0.63650  Biso   1.000  C
  C102     1.0000 0.29020  0.85980  0.63650  Biso   1.000  C
  C103     1.0000 0.20980  0.35980  0.86350  Biso   1.000  C
  C104     1.0000 0.70980  0.85980  0.86350  Biso   1.000  C
  C105     1.0000 0.25534  0.72540  0.38150  Biso   1.000  C
  C106     1.0000 0.75534  0.22540  0.38150  Biso   1.000  C
  C107     1.0000 0.74466  0.72540  0.11850  Biso   1.000  C
  C108     1.0000 0.24466  0.22540  0.11850  Biso   1.000  C
  C109     1.0000 0.74466  0.27460  0.61850  Biso   1.000  C
  C110     1.0000 0.24466  0.77460  0.61850  Biso   1.000  C
  C111     1.0000 0.25534  0.27460  0.88150  Biso   1.000  C
  C112     1.0000 0.75534  0.77460  0.88150  Biso   1.000  C
  C113     1.0000 0.30524  0.71070  0.46030  Biso   1.000  C
  C114     1.0000 0.80524  0.21070  0.46030  Biso   1.000  C
  C115     1.0000 0.69476  0.71070  0.03970  Biso   1.000  C
  C116     1.0000 0.19476  0.21070  0.03970  Biso   1.000  C
  C117     1.0000 0.69476  0.28930  0.53970  Biso   1.000  C
  C118     1.0000 0.19476  0.78930  0.53970  Biso   1.000  C
  C119     1.0000 0.30524  0.28930  0.96030  Biso   1.000  C
  C120     1.0000 0.80524  0.78930  0.96030  Biso   1.000  C
  C121     1.0000 0.30730  0.60490  0.51730  Biso   1.000  C
  C122     1.0000 0.80730  0.10490  0.51730  Biso   1.000  C
  C123     1.0000 0.69270  0.60490  0.98270  Biso   1.000  C
  C124     1.0000 0.19270  0.10490  0.98270  Biso   1.000  C
  C125     1.0000 0.69270  0.39510  0.48270  Biso   1.000  C
  C126     1.0000 0.19270  0.89510  0.48270  Biso   1.000  C
  C127     1.0000 0.30730  0.39510  0.01730  Biso   1.000  C
  C128     1.0000 0.80730  0.89510  0.01730  Biso   1.000  C
  C129     1.0000 0.26064  0.51970  0.49420  Biso   1.000  C
  C130     1.0000 0.76064  0.01970  0.49420  Biso   1.000  C
  C131     1.0000 0.73936  0.51970  0.00580  Biso   1.000  C
  C132     1.0000 0.23936  0.01970  0.00580  Biso   1.000  C
  C133     1.0000 0.73936  0.48030  0.50580  Biso   1.000  C
  C134     1.0000 0.23936  0.98030  0.50580  Biso   1.000  C
  C135     1.0000 0.26064  0.48030  0.99420  Biso   1.000  C
  C136     1.0000 0.76064  0.98030  0.99420  Biso   1.000  C
  C137     1.0000 0.26076  0.40560  0.55350  Biso   1.000  C
  C138     1.0000 0.76076  0.90560  0.55350  Biso   1.000  C
  C139     1.0000 0.73924  0.40560  0.94650  Biso   1.000  C
  C140     1.0000 0.23924  0.90560  0.94650  Biso   1.000  C
  C141     1.0000 0.73924  0.59440  0.44650  Biso   1.000  C
  C142     1.0000 0.23924  0.09440  0.44650  Biso   1.000  C
  C143     1.0000 0.26076  0.59440  0.05350  Biso   1.000  C
  C144     1.0000 0.76076  0.09440  0.05350  Biso   1.000  C
  C145     1.0000 0.35741  0.80060  0.48710  Biso   1.000  C
  C146     1.0000 0.85741  0.30060  0.48710  Biso   1.000  C
  C147     1.0000 0.64259  0.80060  0.01290  Biso   1.000  C
  C148     1.0000 0.14259  0.30060  0.01290  Biso   1.000  C
  C149     1.0000 0.64259  0.19940  0.51290  Biso   1.000  C
  C150     1.0000 0.14259  0.69940  0.51290  Biso   1.000  C
  C151     1.0000 0.35741  0.19940  0.98710  Biso   1.000  C
  C152     1.0000 0.85741  0.69940  0.98710  Biso   1.000  C
  O33      1.0000 0.26320  0.29300  0.31740  Biso   1.000  O
  O34      1.0000 0.76320  0.79300  0.31740  Biso   1.000  O
  O35      1.0000 0.73680  0.29300  0.18260  Biso   1.000  O
  O36      1.0000 0.23680  0.79300  0.18260  Biso   1.000  O
  O37      1.0000 0.73680  0.70700  0.68260  Biso   1.000  O
  O38      1.0000 0.23680  0.20700  0.68260  Biso   1.000  O
  O39      1.0000 0.26320  0.70700  0.81740  Biso   1.000  O
  O40      1.0000 0.76320  0.20700  0.81740  Biso   1.000  O
  O41      1.0000 0.11533  0.07300  0.73460  Biso   1.000  O
  O42      1.0000 0.61533  0.57300  0.73460  Biso   1.000  O
  O43      1.0000 0.88467  0.07300  0.76540  Biso   1.000  O
  O44      1.0000 0.38467  0.57300  0.76540  Biso   1.000  O
  O45      1.0000 0.88467  0.92700  0.26540  Biso   1.000  O
  O46      1.0000 0.38467  0.42700  0.26540  Biso   1.000  O
  O47      1.0000 0.11533  0.92700  0.23460  Biso   1.000  O
  O48      1.0000 0.61533  0.42700  0.23460  Biso   1.000  O
  O49      1.0000 0.31943  0.56250  0.30980  Biso   1.000  O
  O50      1.0000 0.81943  0.06250  0.30980  Biso   1.000  O
  O51      1.0000 0.68057  0.56250  0.19020  Biso   1.000  O
  O52      1.0000 0.18057  0.06250  0.19020  Biso   1.000  O
  O53      1.0000 0.68057  0.43750  0.69020  Biso   1.000  O
  O54      1.0000 0.18057  0.93750  0.69020  Biso   1.000  O
  O55      1.0000 0.31943  0.43750  0.80980  Biso   1.000  O
  O56      1.0000 0.81943  0.93750  0.80980  Biso   1.000  O
  H1       1.0000 0.23790  0.21200  0.27400  Biso   1.000  H
  H2       1.0000 0.73790  0.71200  0.27400  Biso   1.000  H
  H3       1.0000 0.76210  0.21200  0.22600  Biso   1.000  H
  H4       1.0000 0.26210  0.71200  0.22600  Biso   1.000  H
  H5       1.0000 0.76210  0.78800  0.72600  Biso   1.000  H
  H6       1.0000 0.26210  0.28800  0.72600  Biso   1.000  H
  H7       1.0000 0.23790  0.78800  0.77400  Biso   1.000  H
  H8       1.0000 0.73790  0.28800  0.77400  Biso   1.000  H
  H9       1.0000 0.26500  0.27300  0.36670  Biso   1.000  H
  H10      1.0000 0.76500  0.77300  0.36670  Biso   1.000  H
  H11      1.0000 0.73500  0.27300  0.13330  Biso   1.000  H
  H12      1.0000 0.23500  0.77300  0.13330  Biso   1.000  H
  H13      1.0000 0.73500  0.72700  0.63330  Biso   1.000  H
  H14      1.0000 0.23500  0.22700  0.63330  Biso   1.000  H
  H15      1.0000 0.26500  0.72700  0.86670  Biso   1.000  H
  H16      1.0000 0.76500  0.22700  0.86670  Biso   1.000  H
  H17      1.0000 0.13710  0.03000  0.79250  Biso   1.000  H
  H18      1.0000 0.63710  0.53000  0.79250  Biso   1.000  H
  H19      1.0000 0.86290  0.03000  0.70750  Biso   1.000  H
  H20      1.0000 0.36290  0.53000  0.70750  Biso   1.000  H
  H21      1.0000 0.86290  0.97000  0.20750  Biso   1.000  H
  H22      1.0000 0.36290  0.47000  0.20750  Biso   1.000  H
  H23      1.0000 0.13710  0.97000  0.29250  Biso   1.000  H
  H24      1.0000 0.63710  0.47000  0.29250  Biso   1.000  H
  H25      1.0000 0.13310  0.03900  0.70800  Biso   1.000  H
  H26      1.0000 0.63310  0.53900  0.70800  Biso   1.000  H
  H27      1.0000 0.86690  0.03900  0.79200  Biso   1.000  H
  H28      1.0000 0.36690  0.53900  0.79200  Biso   1.000  H
  H29      1.0000 0.86690  0.96100  0.29200  Biso   1.000  H
  H30      1.0000 0.36690  0.46100  0.29200  Biso   1.000  H
  H31      1.0000 0.13310  0.96100  0.20800  Biso   1.000  H
  H32      1.0000 0.63310  0.46100  0.20800  Biso   1.000  H
  H33      1.0000 0.30400  0.46100  0.31700  Biso   1.000  H
  H34      1.0000 0.80400  0.96100  0.31700  Biso   1.000  H
  H35      1.0000 0.69600  0.46100  0.18300  Biso   1.000  H
  H36      1.0000 0.19600  0.96100  0.18300  Biso   1.000  H
  H37      1.0000 0.69600  0.53900  0.68300  Biso   1.000  H
  H38      1.0000 0.19600  0.03900  0.68300  Biso   1.000  H
  H39      1.0000 0.30400  0.53900  0.81700  Biso   1.000  H
  H40      1.0000 0.80400  0.03900  0.81700  Biso   1.000  H
  H41      1.0000 0.34300  0.62400  0.36320  Biso   1.000  H
  H42      1.0000 0.84300  0.12400  0.36320  Biso   1.000  H
  H43      1.0000 0.65700  0.62400  0.13680  Biso   1.000  H
  H44      1.0000 0.15700  0.12400  0.13680  Biso   1.000  H
  H45      1.0000 0.65700  0.37600  0.63680  Biso   1.000  H
  H46      1.0000 0.15700  0.87600  0.63680  Biso   1.000  H
  H47      1.0000 0.34300  0.37600  0.86320  Biso   1.000  H
  H48      1.0000 0.84300  0.87600  0.86320  Biso   1.000  H
  H49      1.0000 0.13950  0.34160  0.53970  Biso   1.000  H
  H50      1.0000 0.63950  0.84160  0.53970  Biso   1.000  H
  H51      1.0000 0.86050  0.34160  0.96030  Biso   1.000  H
  H52      1.0000 0.36050  0.84160  0.96030  Biso   1.000  H
  H53      1.0000 0.86050  0.65840  0.46030  Biso   1.000  H
  H54      1.0000 0.36050  0.15840  0.46030  Biso   1.000  H
  H55      1.0000 0.13950  0.65840  0.03970  Biso   1.000  H
  H56      1.0000 0.63950  0.15840  0.03970  Biso   1.000  H
  H57      1.0000 0.08760  0.19650  0.56840  Biso   1.000  H
  H58      1.0000 0.58760  0.69650  0.56840  Biso   1.000  H
  H59      1.0000 0.91240  0.19650  0.93160  Biso   1.000  H
  H60      1.0000 0.41240  0.69650  0.93160  Biso   1.000  H
  H61      1.0000 0.91240  0.80350  0.43160  Biso   1.000  H
  H62      1.0000 0.41240  0.30350  0.43160  Biso   1.000  H
  H63      1.0000 0.08760  0.80350  0.06840  Biso   1.000  H
  H64      1.0000 0.58760  0.30350  0.06840  Biso   1.000  H
  H65      1.0000 0.00000  0.00150  0.33440  Biso   1.000  H
  H66      1.0000 0.50000  0.50150  0.33440  Biso   1.000  H
  H67      1.0000 0.00000  0.00150  0.16560  Biso   1.000  H
  H68      1.0000 0.50000  0.50150  0.16560  Biso   1.000  H
  H69      1.0000 0.00000  0.99850  0.66560  Biso   1.000  H
  H70      1.0000 0.50000  0.49850  0.66560  Biso   1.000  H
  H71      1.0000 0.00000  0.99850  0.83440  Biso   1.000  H
  H72      1.0000 0.50000  0.49850  0.83440  Biso   1.000  H
  H73      1.0000 0.05650  0.14900  0.31460  Biso   1.000  H
  H74      1.0000 0.55650  0.64900  0.31460  Biso   1.000  H
  H75      1.0000 0.94350  0.14900  0.18540  Biso   1.000  H
  H76      1.0000 0.44350  0.64900  0.18540  Biso   1.000  H
  H77      1.0000 0.94350  0.85100  0.68540  Biso   1.000  H
  H78      1.0000 0.44350  0.35100  0.68540  Biso   1.000  H
  H79      1.0000 0.05650  0.85100  0.81460  Biso   1.000  H
  H80      1.0000 0.55650  0.35100  0.81460  Biso   1.000  H
  H81      1.0000 0.05000  0.59410  0.28820  Biso   1.000  H
  H82      1.0000 0.55000  0.09410  0.28820  Biso   1.000  H
  H83      1.0000 0.95000  0.59410  0.21180  Biso   1.000  H
  H84      1.0000 0.45000  0.09410  0.21180  Biso   1.000  H
  H85      1.0000 0.95000  0.40590  0.71180  Biso   1.000  H
  H86      1.0000 0.45000  0.90590  0.71180  Biso   1.000  H
  H87      1.0000 0.05000  0.40590  0.78820  Biso   1.000  H
  H88      1.0000 0.55000  0.90590  0.78820  Biso   1.000  H
  H89      1.0000 0.99100  0.64120  0.14570  Biso   1.000  H
  H90      1.0000 0.49100  0.14120  0.14570  Biso   1.000  H
  H91      1.0000 0.00900  0.64120  0.35430  Biso   1.000  H
  H92      1.0000 0.50900  0.14120  0.35430  Biso   1.000  H
  H93      1.0000 0.00900  0.35880  0.85430  Biso   1.000  H
  H94      1.0000 0.50900  0.85880  0.85430  Biso   1.000  H
  H95      1.0000 0.99100  0.35880  0.64570  Biso   1.000  H
  H96      1.0000 0.49100  0.85880  0.64570  Biso   1.000  H
  H97      1.0000 0.08570  0.33250  0.12020  Biso   1.000  H
  H98      1.0000 0.58570  0.83250  0.12020  Biso   1.000  H
  H99      1.0000 0.91430  0.33250  0.37980  Biso   1.000  H
  H100     1.0000 0.41430  0.83250  0.37980  Biso   1.000  H
  H101     1.0000 0.91430  0.66750  0.87980  Biso   1.000  H
  H102     1.0000 0.41430  0.16750  0.87980  Biso   1.000  H
  H103     1.0000 0.08570  0.66750  0.62020  Biso   1.000  H
  H104     1.0000 0.58570  0.16750  0.62020  Biso   1.000  H
  H105     1.0000 0.14170  0.29330  0.26360  Biso   1.000  H
  H106     1.0000 0.64170  0.79330  0.26360  Biso   1.000  H
  H107     1.0000 0.85830  0.29330  0.23640  Biso   1.000  H
  H108     1.0000 0.35830  0.79330  0.23640  Biso   1.000  H
  H109     1.0000 0.85830  0.70670  0.73640  Biso   1.000  H
  H110     1.0000 0.35830  0.20670  0.73640  Biso   1.000  H
  H111     1.0000 0.14170  0.70670  0.76360  Biso   1.000  H
  H112     1.0000 0.64170  0.20670  0.76360  Biso   1.000  H
  H113     1.0000 0.17580  0.65580  0.31040  Biso   1.000  H
  H114     1.0000 0.67580  0.15580  0.31040  Biso   1.000  H
  H115     1.0000 0.82420  0.65580  0.18960  Biso   1.000  H
  H116     1.0000 0.32420  0.15580  0.18960  Biso   1.000  H
  H117     1.0000 0.82420  0.34420  0.68960  Biso   1.000  H
  H118     1.0000 0.32420  0.84420  0.68960  Biso   1.000  H
  H119     1.0000 0.17580  0.34420  0.81040  Biso   1.000  H
  H120     1.0000 0.67580  0.84420  0.81040  Biso   1.000  H
  H121     1.0000 0.25240  0.79430  0.34030  Biso   1.000  H
  H122     1.0000 0.75240  0.29430  0.34030  Biso   1.000  H
  H123     1.0000 0.74760  0.79430  0.15970  Biso   1.000  H
  H124     1.0000 0.24760  0.29430  0.15970  Biso   1.000  H
  H125     1.0000 0.74760  0.20570  0.65970  Biso   1.000  H
  H126     1.0000 0.24760  0.70570  0.65970  Biso   1.000  H
  H127     1.0000 0.25240  0.20570  0.84030  Biso   1.000  H
  H128     1.0000 0.75240  0.70570  0.84030  Biso   1.000  H
  H129     1.0000 0.34060  0.59090  0.57150  Biso   1.000  H
  H130     1.0000 0.84060  0.09090  0.57150  Biso   1.000  H
  H131     1.0000 0.65940  0.59090  0.92850  Biso   1.000  H
  H132     1.0000 0.15940  0.09090  0.92850  Biso   1.000  H
  H133     1.0000 0.65940  0.40910  0.42850  Biso   1.000  H
  H134     1.0000 0.15940  0.90910  0.42850  Biso   1.000  H
  H135     1.0000 0.34060  0.40910  0.07150  Biso   1.000  H
  H136     1.0000 0.84060  0.90910  0.07150  Biso   1.000  H
  H137     1.0000 0.96210  0.58210  0.01140  Biso   1.000  H
  H138     1.0000 0.46210  0.08210  0.01140  Biso   1.000  H
  H139     1.0000 0.03790  0.58210  0.48860  Biso   1.000  H
  H140     1.0000 0.53790  0.08210  0.48860  Biso   1.000  H
  H141     1.0000 0.03790  0.41790  0.98860  Biso   1.000  H
  H142     1.0000 0.53790  0.91790  0.98860  Biso   1.000  H
  H143     1.0000 0.96210  0.41790  0.51140  Biso   1.000  H
  H144     1.0000 0.46210  0.91790  0.51140  Biso   1.000  H
  H145     1.0000 0.96580  0.91870  0.42020  Biso   1.000  H
  H146     1.0000 0.46580  0.41870  0.42020  Biso   1.000  H
  H147     1.0000 0.03420  0.91870  0.07980  Biso   1.000  H
  H148     1.0000 0.53420  0.41870  0.07980  Biso   1.000  H
  H149     1.0000 0.03420  0.08130  0.57980  Biso   1.000  H
  H150     1.0000 0.53420  0.58130  0.57980  Biso   1.000  H
  H151     1.0000 0.96580  0.08130  0.92020  Biso   1.000  H
  H152     1.0000 0.46580  0.58130  0.92020  Biso   1.000  H
