data_image0
_cell_length_a       11.2752
_cell_length_b       9.7976
_cell_length_c       17.8504
_cell_angle_alpha    90
_cell_angle_beta     93.7
_cell_angle_gamma    90

_symmetry_space_group_name_H-M    "P 1"
_symmetry_int_tables_number       1

loop_
  _symmetry_equiv_pos_as_xyz
  'x, y, z'

loop_
  _atom_site_label
  _atom_site_occupancy
  _atom_site_fract_x
  _atom_site_fract_y
  _atom_site_fract_z
  _atom_site_thermal_displace_type
  _atom_site_B_iso_or_equiv
  _atom_site_type_symbol
  Cu1      1.0000 0.12896  0.90305  0.27426  Biso   1.000  Cu
  Cu2      1.0000 0.62896  0.40305  0.27426  Biso   1.000  Cu
  Cu3      1.0000 0.87104  0.90305  0.22574  Biso   1.000  Cu
  Cu4      1.0000 0.37104  0.40305  0.22574  Biso   1.000  Cu
  Cu5      1.0000 0.87104  0.09695  0.72574  Biso   1.000  Cu
  Cu6      1.0000 0.37104  0.59695  0.72574  Biso   1.000  Cu
  Cu7      1.0000 0.12896  0.09695  0.77426  Biso   1.000  Cu
  Cu8      1.0000 0.62896  0.59695  0.77426  Biso   1.000  Cu
  Cu9      1.0000 0.37175  0.70383  0.22317  Biso   1.000  Cu
  Cu10     1.0000 0.87175  0.20383  0.22317  Biso   1.000  Cu
  Cu11     1.0000 0.62825  0.70383  0.27683  Biso   1.000  Cu
  Cu12     1.0000 0.12825  0.20383  0.27683  Biso   1.000  Cu
  Cu13     1.0000 0.62825  0.29617  0.77683  Biso   1.000  Cu
  Cu14     1.0000 0.12825  0.79617  0.77683  Biso   1.000  Cu
  Cu15     1.0000 0.37175  0.29617  0.72317  Biso   1.000  Cu
  Cu16     1.0000 0.87175  0.79617  0.72317  Biso   1.000  Cu
  O1       1.0000 0.22470  0.66820  0.27360  Biso   1.000  O
  O2       1.0000 0.72470  0.16820  0.27360  Biso   1.000  O
  O3       1.0000 0.77530  0.66820  0.22640  Biso   1.000  O
  O4       1.0000 0.27530  0.16820  0.22640  Biso   1.000  O
  O5       1.0000 0.77530  0.33180  0.72640  Biso   1.000  O
  O6       1.0000 0.27530  0.83180  0.72640  Biso   1.000  O
  O7       1.0000 0.22470  0.33180  0.77360  Biso   1.000  O
  O8       1.0000 0.72470  0.83180  0.77360  Biso   1.000  O
  O9       1.0000 0.22690  0.43900  0.27912  Biso   1.000  O
  O10      1.0000 0.72690  0.93900  0.27912  Biso   1.000  O
  O11      1.0000 0.77310  0.43900  0.22088  Biso   1.000  O
  O12      1.0000 0.27310  0.93900  0.22088  Biso   1.000  O
  O13      1.0000 0.77310  0.56100  0.72088  Biso   1.000  O
  O14      1.0000 0.27310  0.06100  0.72088  Biso   1.000  O
  O15      1.0000 0.22690  0.56100  0.77912  Biso   1.000  O
  O16      1.0000 0.72690  0.06100  0.77912  Biso   1.000  O
  O17      1.0000 0.20910  0.94030  0.37103  Biso   1.000  O
  O18      1.0000 0.70910  0.44030  0.37103  Biso   1.000  O
  O19      1.0000 0.79090  0.94030  0.12897  Biso   1.000  O
  O20      1.0000 0.29090  0.44030  0.12897  Biso   1.000  O
  O21      1.0000 0.79090  0.05970  0.62897  Biso   1.000  O
  O22      1.0000 0.29090  0.55970  0.62897  Biso   1.000  O
  O23      1.0000 0.20910  0.05970  0.87103  Biso   1.000  O
  O24      1.0000 0.70910  0.55970  0.87103  Biso   1.000  O
  O25      1.0000 0.20430  0.16880  0.37555  Biso   1.000  O
  O26      1.0000 0.70430  0.66880  0.37555  Biso   1.000  O
  O27      1.0000 0.79570  0.16880  0.12445  Biso   1.000  O
  O28      1.0000 0.29570  0.66880  0.12445  Biso   1.000  O
  O29      1.0000 0.79570  0.83120  0.62445  Biso   1.000  O
  O30      1.0000 0.29570  0.33120  0.62445  Biso   1.000  O
  O31      1.0000 0.20430  0.83120  0.87555  Biso   1.000  O
  O32      1.0000 0.70430  0.33120  0.87555  Biso   1.000  O
  O33      1.0000 0.47210  0.72780  0.31320  Biso   1.000  O
  O34      1.0000 0.97210  0.22780  0.31320  Biso   1.000  O
  O35      1.0000 0.52790  0.72780  0.18680  Biso   1.000  O
  O36      1.0000 0.02790  0.22780  0.18680  Biso   1.000  O
  O37      1.0000 0.52790  0.27220  0.68680  Biso   1.000  O
  O38      1.0000 0.02790  0.77220  0.68680  Biso   1.000  O
  O39      1.0000 0.47210  0.27220  0.81320  Biso   1.000  O
  O40      1.0000 0.97210  0.77220  0.81320  Biso   1.000  O
  O41      1.0000 0.97530  0.87770  0.31357  Biso   1.000  O
  O42      1.0000 0.47530  0.37770  0.31357  Biso   1.000  O
  O43      1.0000 0.02470  0.87770  0.18643  Biso   1.000  O
  O44      1.0000 0.52470  0.37770  0.18643  Biso   1.000  O
  O45      1.0000 0.02470  0.12230  0.68643  Biso   1.000  O
  O46      1.0000 0.52470  0.62230  0.68643  Biso   1.000  O
  O47      1.0000 0.97530  0.12230  0.81357  Biso   1.000  O
  O48      1.0000 0.47530  0.62230  0.81357  Biso   1.000  O
  C1       1.0000 0.18140  0.55440  0.29230  Biso   1.000  C
  C2       1.0000 0.68140  0.05440  0.29230  Biso   1.000  C
  C3       1.0000 0.81860  0.55440  0.20770  Biso   1.000  C
  C4       1.0000 0.31860  0.05440  0.20770  Biso   1.000  C
  C5       1.0000 0.81860  0.44560  0.70770  Biso   1.000  C
  C6       1.0000 0.31860  0.94560  0.70770  Biso   1.000  C
  C7       1.0000 0.18140  0.44560  0.79230  Biso   1.000  C
  C8       1.0000 0.68140  0.94560  0.79230  Biso   1.000  C
  C9       1.0000 0.07050  0.55620  0.33430  Biso   1.000  C
  C10      1.0000 0.57050  0.05620  0.33430  Biso   1.000  C
  C11      1.0000 0.92950  0.55620  0.16570  Biso   1.000  C
  C12      1.0000 0.42950  0.05620  0.16570  Biso   1.000  C
  C13      1.0000 0.92950  0.44380  0.66570  Biso   1.000  C
  C14      1.0000 0.42950  0.94380  0.66570  Biso   1.000  C
  C15      1.0000 0.07050  0.44380  0.83430  Biso   1.000  C
  C16      1.0000 0.57050  0.94380  0.83430  Biso   1.000  C
  C17      1.0000 0.23140  0.05340  0.40230  Biso   1.000  C
  C18      1.0000 0.73140  0.55340  0.40230  Biso   1.000  C
  C19      1.0000 0.76860  0.05340  0.09770  Biso   1.000  C
  C20      1.0000 0.26860  0.55340  0.09770  Biso   1.000  C
  C21      1.0000 0.76860  0.94660  0.59770  Biso   1.000  C
  C22      1.0000 0.26860  0.44660  0.59770  Biso   1.000  C
  C23      1.0000 0.23140  0.94660  0.90230  Biso   1.000  C
  C24      1.0000 0.73140  0.44660  0.90230  Biso   1.000  C
  C25      1.0000 0.29720  0.04750  0.47820  Biso   1.000  C
  C26      1.0000 0.79720  0.54750  0.47820  Biso   1.000  C
  C27      1.0000 0.70280  0.04750  0.02180  Biso   1.000  C
  C28      1.0000 0.20280  0.54750  0.02180  Biso   1.000  C
  C29      1.0000 0.70280  0.95250  0.52180  Biso   1.000  C
  C30      1.0000 0.20280  0.45250  0.52180  Biso   1.000  C
  C31      1.0000 0.29720  0.95250  0.97820  Biso   1.000  C
  C32      1.0000 0.79720  0.45250  0.97820  Biso   1.000  C
  C33      1.0000 0.43980  0.73200  0.38850  Biso   1.000  C
  C34      1.0000 0.93980  0.23200  0.38850  Biso   1.000  C
  C35      1.0000 0.56020  0.73200  0.11150  Biso   1.000  C
  C36      1.0000 0.06020  0.23200  0.11150  Biso   1.000  C
  C37      1.0000 0.56020  0.26800  0.61150  Biso   1.000  C
  C38      1.0000 0.06020  0.76800  0.61150  Biso   1.000  C
  C39      1.0000 0.43980  0.26800  0.88850  Biso   1.000  C
  C40      1.0000 0.93980  0.76800  0.88850  Biso   1.000  C
  C41      1.0000 0.94690  0.87080  0.39010  Biso   1.000  C
  C42      1.0000 0.44690  0.37080  0.39010  Biso   1.000  C
  C43      1.0000 0.05310  0.87080  0.10990  Biso   1.000  C
  C44      1.0000 0.55310  0.37080  0.10990  Biso   1.000  C
  C45      1.0000 0.05310  0.12920  0.60990  Biso   1.000  C
  C46      1.0000 0.55310  0.62920  0.60990  Biso   1.000  C
  C47      1.0000 0.94690  0.12920  0.89010  Biso   1.000  C
  C48      1.0000 0.44690  0.62920  0.89010  Biso   1.000  C
  H1       1.0000 0.09180  0.56240  0.38840  Biso   1.000  H
  H2       1.0000 0.59180  0.06240  0.38840  Biso   1.000  H
  H3       1.0000 0.90820  0.56240  0.11160  Biso   1.000  H
  H4       1.0000 0.40820  0.06240  0.11160  Biso   1.000  H
  H5       1.0000 0.90820  0.43760  0.61160  Biso   1.000  H
  H6       1.0000 0.40820  0.93760  0.61160  Biso   1.000  H
  H7       1.0000 0.09180  0.43760  0.88840  Biso   1.000  H
  H8       1.0000 0.59180  0.93760  0.88840  Biso   1.000  H
  H9       1.0000 0.02510  0.47230  0.32380  Biso   1.000  H
  H10      1.0000 0.52510  0.97230  0.32380  Biso   1.000  H
  H11      1.0000 0.97490  0.47230  0.17620  Biso   1.000  H
  H12      1.0000 0.47490  0.97230  0.17620  Biso   1.000  H
  H13      1.0000 0.97490  0.52770  0.67620  Biso   1.000  H
  H14      1.0000 0.47490  0.02770  0.67620  Biso   1.000  H
  H15      1.0000 0.02510  0.52770  0.82380  Biso   1.000  H
  H16      1.0000 0.52510  0.02770  0.82380  Biso   1.000  H
  H17      1.0000 0.02190  0.63530  0.31850  Biso   1.000  H
  H18      1.0000 0.52190  0.13530  0.31850  Biso   1.000  H
  H19      1.0000 0.97810  0.63530  0.18150  Biso   1.000  H
  H20      1.0000 0.47810  0.13530  0.18150  Biso   1.000  H
  H21      1.0000 0.97810  0.36470  0.68150  Biso   1.000  H
  H22      1.0000 0.47810  0.86470  0.68150  Biso   1.000  H
  H23      1.0000 0.02190  0.36470  0.81850  Biso   1.000  H
  H24      1.0000 0.52190  0.86470  0.81850  Biso   1.000  H
  H25      1.0000 0.38280  0.04200  0.47200  Biso   1.000  H
  H26      1.0000 0.88280  0.54200  0.47200  Biso   1.000  H
  H27      1.0000 0.61720  0.04200  0.02800  Biso   1.000  H
  H28      1.0000 0.11720  0.54200  0.02800  Biso   1.000  H
  H29      1.0000 0.61720  0.95800  0.52800  Biso   1.000  H
  H30      1.0000 0.11720  0.45800  0.52800  Biso   1.000  H
  H31      1.0000 0.38280  0.95800  0.97200  Biso   1.000  H
  H32      1.0000 0.88280  0.45800  0.97200  Biso   1.000  H
  H33      1.0000 0.27180  0.96680  0.50530  Biso   1.000  H
  H34      1.0000 0.77180  0.46680  0.50530  Biso   1.000  H
  H35      1.0000 0.72820  0.96680  0.99470  Biso   1.000  H
  H36      1.0000 0.22820  0.46680  0.99470  Biso   1.000  H
  H37      1.0000 0.72820  0.03320  0.49470  Biso   1.000  H
  H38      1.0000 0.22820  0.53320  0.49470  Biso   1.000  H
  H39      1.0000 0.27180  0.03320  0.00530  Biso   1.000  H
  H40      1.0000 0.77180  0.53320  0.00530  Biso   1.000  H
  H41      1.0000 0.28000  0.12980  0.50670  Biso   1.000  H
  H42      1.0000 0.78000  0.62980  0.50670  Biso   1.000  H
  H43      1.0000 0.72000  0.12980  0.99330  Biso   1.000  H
  H44      1.0000 0.22000  0.62980  0.99330  Biso   1.000  H
  H45      1.0000 0.72000  0.87020  0.49330  Biso   1.000  H
  H46      1.0000 0.22000  0.37020  0.49330  Biso   1.000  H
  H47      1.0000 0.28000  0.87020  0.00670  Biso   1.000  H
  H48      1.0000 0.78000  0.37020  0.00670  Biso   1.000  H
  H49      1.0000 0.46240  0.82040  0.41080  Biso   1.000  H
  H50      1.0000 0.96240  0.32040  0.41080  Biso   1.000  H
  H51      1.0000 0.53760  0.82040  0.08920  Biso   1.000  H
  H52      1.0000 0.03760  0.32040  0.08920  Biso   1.000  H
  H53      1.0000 0.53760  0.17960  0.58920  Biso   1.000  H
  H54      1.0000 0.03760  0.67960  0.58920  Biso   1.000  H
  H55      1.0000 0.46240  0.17960  0.91080  Biso   1.000  H
  H56      1.0000 0.96240  0.67960  0.91080  Biso   1.000  H
  H57      1.0000 0.48090  0.65870  0.41720  Biso   1.000  H
  H58      1.0000 0.98090  0.15870  0.41720  Biso   1.000  H
  H59      1.0000 0.51910  0.65870  0.08280  Biso   1.000  H
  H60      1.0000 0.01910  0.15870  0.08280  Biso   1.000  H
  H61      1.0000 0.51910  0.34130  0.58280  Biso   1.000  H
  H62      1.0000 0.01910  0.84130  0.58280  Biso   1.000  H
  H63      1.0000 0.48090  0.34130  0.91720  Biso   1.000  H
  H64      1.0000 0.98090  0.84130  0.91720  Biso   1.000  H
  H65      1.0000 0.35370  0.71950  0.38980  Biso   1.000  H
  H66      1.0000 0.85370  0.21950  0.38980  Biso   1.000  H
  H67      1.0000 0.64630  0.71950  0.11020  Biso   1.000  H
  H68      1.0000 0.14630  0.21950  0.11020  Biso   1.000  H
  H69      1.0000 0.64630  0.28050  0.61020  Biso   1.000  H
  H70      1.0000 0.14630  0.78050  0.61020  Biso   1.000  H
  H71      1.0000 0.35370  0.28050  0.88980  Biso   1.000  H
  H72      1.0000 0.85370  0.78050  0.88980  Biso   1.000  H
  H73      1.0000 0.86830  0.82900  0.39320  Biso   1.000  H
  H74      1.0000 0.36830  0.32900  0.39320  Biso   1.000  H
  H75      1.0000 0.13170  0.82900  0.10680  Biso   1.000  H
  H76      1.0000 0.63170  0.32900  0.10680  Biso   1.000  H
  H77      1.0000 0.13170  0.17100  0.60680  Biso   1.000  H
  H78      1.0000 0.63170  0.67100  0.60680  Biso   1.000  H
  H79      1.0000 0.86830  0.17100  0.89320  Biso   1.000  H
  H80      1.0000 0.36830  0.67100  0.89320  Biso   1.000  H
  H81      1.0000 0.94620  0.96290  0.41130  Biso   1.000  H
  H82      1.0000 0.44620  0.46290  0.41130  Biso   1.000  H
  H83      1.0000 0.05380  0.96290  0.08870  Biso   1.000  H
  H84      1.0000 0.55380  0.46290  0.08870  Biso   1.000  H
  H85      1.0000 0.05380  0.03710  0.58870  Biso   1.000  H
  H86      1.0000 0.55380  0.53710  0.58870  Biso   1.000  H
  H87      1.0000 0.94620  0.03710  0.91130  Biso   1.000  H
  H88      1.0000 0.44620  0.53710  0.91130  Biso   1.000  H
  H89      1.0000 0.00660  0.81530  0.41850  Biso   1.000  H
  H90      1.0000 0.50660  0.31530  0.41850  Biso   1.000  H
  H91      1.0000 0.99340  0.81530  0.08150  Biso   1.000  H
  H92      1.0000 0.49340  0.31530  0.08150  Biso   1.000  H
  H93      1.0000 0.99340  0.18470  0.58150  Biso   1.000  H
  H94      1.0000 0.49340  0.68470  0.58150  Biso   1.000  H
  H95      1.0000 0.00660  0.18470  0.91850  Biso   1.000  H
  H96      1.0000 0.50660  0.68470  0.91850  Biso   1.000  H
