data_image0
_cell_length_a       11.3294
_cell_length_b       9.8537
_cell_length_c       18.1359
_cell_angle_alpha    90
_cell_angle_beta     94.305
_cell_angle_gamma    90

_symmetry_space_group_name_H-M    "P 1"
_symmetry_int_tables_number       1

loop_
  _symmetry_equiv_pos_as_xyz
  'x, y, z'

loop_
  _atom_site_label
  _atom_site_occupancy
  _atom_site_fract_x
  _atom_site_fract_y
  _atom_site_fract_z
  _atom_site_thermal_displace_type
  _atom_site_B_iso_or_equiv
  _atom_site_type_symbol
  Cu1      1.0000 0.12754  0.10243  0.27469  Biso   1.000  Cu
  Cu2      1.0000 0.87246  0.10243  0.22531  Biso   1.000  Cu
  Cu3      1.0000 0.62754  0.60243  0.27469  Biso   1.000  Cu
  Cu4      1.0000 0.37246  0.60243  0.22531  Biso   1.000  Cu
  Cu5      1.0000 0.87246  0.89757  0.72531  Biso   1.000  Cu
  Cu6      1.0000 0.12754  0.89757  0.77469  Biso   1.000  Cu
  Cu7      1.0000 0.37246  0.39757  0.72531  Biso   1.000  Cu
  Cu8      1.0000 0.62754  0.39757  0.77469  Biso   1.000  Cu
  Cu9      1.0000 0.12714  0.80222  0.27628  Biso   1.000  Cu
  Cu10     1.0000 0.87286  0.80222  0.22372  Biso   1.000  Cu
  Cu11     1.0000 0.62714  0.30222  0.27628  Biso   1.000  Cu
  Cu12     1.0000 0.37286  0.30222  0.22372  Biso   1.000  Cu
  Cu13     1.0000 0.87286  0.19778  0.72372  Biso   1.000  Cu
  Cu14     1.0000 0.12714  0.19778  0.77628  Biso   1.000  Cu
  Cu15     1.0000 0.37286  0.69778  0.72372  Biso   1.000  Cu
  Cu16     1.0000 0.62714  0.69778  0.77628  Biso   1.000  Cu
  O1       1.0000 0.20720  0.06550  0.37030  Biso   1.000  O
  O2       1.0000 0.79280  0.06550  0.12970  Biso   1.000  O
  O3       1.0000 0.70720  0.56550  0.37030  Biso   1.000  O
  O4       1.0000 0.29280  0.56550  0.12970  Biso   1.000  O
  O5       1.0000 0.79280  0.93450  0.62970  Biso   1.000  O
  O6       1.0000 0.20720  0.93450  0.87030  Biso   1.000  O
  O7       1.0000 0.29280  0.43450  0.62970  Biso   1.000  O
  O8       1.0000 0.70720  0.43450  0.87030  Biso   1.000  O
  O9       1.0000 0.20410  0.83870  0.37320  Biso   1.000  O
  O10      1.0000 0.79590  0.83870  0.12680  Biso   1.000  O
  O11      1.0000 0.70410  0.33870  0.37320  Biso   1.000  O
  O12      1.0000 0.29590  0.33870  0.12680  Biso   1.000  O
  O13      1.0000 0.79590  0.16130  0.62680  Biso   1.000  O
  O14      1.0000 0.20410  0.16130  0.87320  Biso   1.000  O
  O15      1.0000 0.29590  0.66130  0.62680  Biso   1.000  O
  O16      1.0000 0.70410  0.66130  0.87320  Biso   1.000  O
  O17      1.0000 0.27010  0.06590  0.22300  Biso   1.000  O
  O18      1.0000 0.72990  0.06590  0.27700  Biso   1.000  O
  O19      1.0000 0.77010  0.56590  0.22300  Biso   1.000  O
  O20      1.0000 0.22990  0.56590  0.27700  Biso   1.000  O
  O21      1.0000 0.72990  0.93410  0.77700  Biso   1.000  O
  O22      1.0000 0.27010  0.93410  0.72300  Biso   1.000  O
  O23      1.0000 0.22990  0.43410  0.77700  Biso   1.000  O
  O24      1.0000 0.77010  0.43410  0.72300  Biso   1.000  O
  O25      1.0000 0.27190  0.83890  0.22660  Biso   1.000  O
  O26      1.0000 0.72810  0.83890  0.27340  Biso   1.000  O
  O27      1.0000 0.77190  0.33890  0.22660  Biso   1.000  O
  O28      1.0000 0.22810  0.33890  0.27340  Biso   1.000  O
  O29      1.0000 0.72810  0.16110  0.77340  Biso   1.000  O
  O30      1.0000 0.27190  0.16110  0.72660  Biso   1.000  O
  O31      1.0000 0.22810  0.66110  0.77340  Biso   1.000  O
  O32      1.0000 0.77190  0.66110  0.72660  Biso   1.000  O
  O33      1.0000 0.97530  0.12830  0.31220  Biso   1.000  O
  O34      1.0000 0.02470  0.12830  0.18780  Biso   1.000  O
  O35      1.0000 0.47530  0.62830  0.31220  Biso   1.000  O
  O36      1.0000 0.52470  0.62830  0.18780  Biso   1.000  O
  O37      1.0000 0.02470  0.87170  0.68780  Biso   1.000  O
  O38      1.0000 0.97530  0.87170  0.81220  Biso   1.000  O
  O39      1.0000 0.52470  0.37170  0.68780  Biso   1.000  O
  O40      1.0000 0.47530  0.37170  0.81220  Biso   1.000  O
  O41      1.0000 0.97320  0.77830  0.31230  Biso   1.000  O
  O42      1.0000 0.02680  0.77830  0.18770  Biso   1.000  O
  O43      1.0000 0.47320  0.27830  0.31230  Biso   1.000  O
  O44      1.0000 0.52680  0.27830  0.18770  Biso   1.000  O
  O45      1.0000 0.02680  0.22170  0.68770  Biso   1.000  O
  O46      1.0000 0.97320  0.22170  0.81230  Biso   1.000  O
  O47      1.0000 0.52680  0.72170  0.68770  Biso   1.000  O
  O48      1.0000 0.47320  0.72170  0.81230  Biso   1.000  O
  C1       1.0000 0.22880  0.95280  0.40030  Biso   1.000  C
  C2       1.0000 0.77120  0.95280  0.09970  Biso   1.000  C
  C3       1.0000 0.72880  0.45280  0.40030  Biso   1.000  C
  C4       1.0000 0.27120  0.45280  0.09970  Biso   1.000  C
  C5       1.0000 0.77120  0.04720  0.59970  Biso   1.000  C
  C6       1.0000 0.22880  0.04720  0.90030  Biso   1.000  C
  C7       1.0000 0.27120  0.54720  0.59970  Biso   1.000  C
  C8       1.0000 0.72880  0.54720  0.90030  Biso   1.000  C
  C9       1.0000 0.29270  0.95590  0.47590  Biso   1.000  C
  C10      1.0000 0.70730  0.95590  0.02410  Biso   1.000  C
  C11      1.0000 0.79270  0.45590  0.47590  Biso   1.000  C
  C12      1.0000 0.20730  0.45590  0.02410  Biso   1.000  C
  C13      1.0000 0.70730  0.04410  0.52410  Biso   1.000  C
  C14      1.0000 0.29270  0.04410  0.97590  Biso   1.000  C
  C15      1.0000 0.20730  0.54410  0.52410  Biso   1.000  C
  C16      1.0000 0.79270  0.54410  0.97590  Biso   1.000  C
  H1       1.0000 0.26020  0.02650  0.50470  Biso   1.000  H
  H2       1.0000 0.73980  0.02650  0.99530  Biso   1.000  H
  H3       1.0000 0.76020  0.52650  0.50470  Biso   1.000  H
  H4       1.0000 0.23980  0.52650  0.99530  Biso   1.000  H
  H5       1.0000 0.73980  0.97350  0.49530  Biso   1.000  H
  H6       1.0000 0.26020  0.97350  0.00470  Biso   1.000  H
  H7       1.0000 0.23980  0.47350  0.49530  Biso   1.000  H
  H8       1.0000 0.76020  0.47350  0.00470  Biso   1.000  H
  H9       1.0000 0.37530  0.97310  0.47150  Biso   1.000  H
  H10      1.0000 0.62470  0.97310  0.02850  Biso   1.000  H
  H11      1.0000 0.87530  0.47310  0.47150  Biso   1.000  H
  H12      1.0000 0.12470  0.47310  0.02850  Biso   1.000  H
  H13      1.0000 0.62470  0.02690  0.52850  Biso   1.000  H
  H14      1.0000 0.37530  0.02690  0.97150  Biso   1.000  H
  H15      1.0000 0.12470  0.52690  0.52850  Biso   1.000  H
  H16      1.0000 0.87530  0.52690  0.97150  Biso   1.000  H
  H17      1.0000 0.28350  0.87010  0.49980  Biso   1.000  H
  H18      1.0000 0.71650  0.87010  0.00020  Biso   1.000  H
  H19      1.0000 0.78350  0.37010  0.49980  Biso   1.000  H
  H20      1.0000 0.21650  0.37010  0.00020  Biso   1.000  H
  H21      1.0000 0.71650  0.12990  0.50020  Biso   1.000  H
  H22      1.0000 0.28350  0.12990  0.99980  Biso   1.000  H
  H23      1.0000 0.21650  0.62990  0.50020  Biso   1.000  H
  H24      1.0000 0.78350  0.62990  0.99980  Biso   1.000  H
  C17      1.0000 0.31370  0.95130  0.20890  Biso   1.000  C
  C18      1.0000 0.68630  0.95130  0.29110  Biso   1.000  C
  C19      1.0000 0.81370  0.45130  0.20890  Biso   1.000  C
  C20      1.0000 0.18630  0.45130  0.29110  Biso   1.000  C
  C21      1.0000 0.68630  0.04870  0.79110  Biso   1.000  C
  C22      1.0000 0.31370  0.04870  0.70890  Biso   1.000  C
  C23      1.0000 0.18630  0.54870  0.79110  Biso   1.000  C
  C24      1.0000 0.81370  0.54870  0.70890  Biso   1.000  C
  C25      1.0000 0.42020  0.95010  0.16560  Biso   1.000  C
  C26      1.0000 0.57980  0.95010  0.33440  Biso   1.000  C
  C27      1.0000 0.92020  0.45010  0.16560  Biso   1.000  C
  C28      1.0000 0.07980  0.45010  0.33440  Biso   1.000  C
  C29      1.0000 0.57980  0.04990  0.83440  Biso   1.000  C
  C30      1.0000 0.42020  0.04990  0.66560  Biso   1.000  C
  C31      1.0000 0.07980  0.54990  0.83440  Biso   1.000  C
  C32      1.0000 0.92020  0.54990  0.66560  Biso   1.000  C
  H25      1.0000 0.47020  0.87530  0.18130  Biso   1.000  H
  H26      1.0000 0.52980  0.87530  0.31870  Biso   1.000  H
  H27      1.0000 0.97020  0.37530  0.18130  Biso   1.000  H
  H28      1.0000 0.02980  0.37530  0.31870  Biso   1.000  H
  H29      1.0000 0.52980  0.12470  0.81870  Biso   1.000  H
  H30      1.0000 0.47020  0.12470  0.68130  Biso   1.000  H
  H31      1.0000 0.02980  0.62470  0.81870  Biso   1.000  H
  H32      1.0000 0.97020  0.62470  0.68130  Biso   1.000  H
  H33      1.0000 0.46300  0.03350  0.17350  Biso   1.000  H
  H34      1.0000 0.53700  0.03350  0.32650  Biso   1.000  H
  H35      1.0000 0.96300  0.53350  0.17350  Biso   1.000  H
  H36      1.0000 0.03700  0.53350  0.32650  Biso   1.000  H
  H37      1.0000 0.53700  0.96650  0.82650  Biso   1.000  H
  H38      1.0000 0.46300  0.96650  0.67350  Biso   1.000  H
  H39      1.0000 0.03700  0.46650  0.82650  Biso   1.000  H
  H40      1.0000 0.96300  0.46650  0.67350  Biso   1.000  H
  H41      1.0000 0.39620  0.94060  0.11390  Biso   1.000  H
  H42      1.0000 0.60380  0.94060  0.38610  Biso   1.000  H
  H43      1.0000 0.89620  0.44060  0.11390  Biso   1.000  H
  H44      1.0000 0.10380  0.44060  0.38610  Biso   1.000  H
  H45      1.0000 0.60380  0.05940  0.88610  Biso   1.000  H
  H46      1.0000 0.39620  0.05940  0.61390  Biso   1.000  H
  H47      1.0000 0.10380  0.55940  0.88610  Biso   1.000  H
  H48      1.0000 0.89620  0.55940  0.61390  Biso   1.000  H
  C33      1.0000 0.94770  0.13490  0.38660  Biso   1.000  C
  C34      1.0000 0.05230  0.13490  0.11340  Biso   1.000  C
  C35      1.0000 0.44770  0.63490  0.38660  Biso   1.000  C
  C36      1.0000 0.55230  0.63490  0.11340  Biso   1.000  C
  C37      1.0000 0.05230  0.86510  0.61340  Biso   1.000  C
  C38      1.0000 0.94770  0.86510  0.88660  Biso   1.000  C
  C39      1.0000 0.55230  0.36510  0.61340  Biso   1.000  C
  C40      1.0000 0.44770  0.36510  0.88660  Biso   1.000  C
  H49      1.0000 0.87320  0.18010  0.38950  Biso   1.000  H
  H50      1.0000 0.12680  0.18010  0.11050  Biso   1.000  H
  H51      1.0000 0.37320  0.68010  0.38950  Biso   1.000  H
  H52      1.0000 0.62680  0.68010  0.11050  Biso   1.000  H
  H53      1.0000 0.12680  0.81990  0.61050  Biso   1.000  H
  H54      1.0000 0.87320  0.81990  0.88950  Biso   1.000  H
  H55      1.0000 0.62680  0.31990  0.61050  Biso   1.000  H
  H56      1.0000 0.37320  0.31990  0.88950  Biso   1.000  H
  H57      1.0000 0.00850  0.18450  0.41480  Biso   1.000  H
  H58      1.0000 0.99150  0.18450  0.08520  Biso   1.000  H
  H59      1.0000 0.50850  0.68450  0.41480  Biso   1.000  H
  H60      1.0000 0.49150  0.68450  0.08520  Biso   1.000  H
  H61      1.0000 0.99150  0.81550  0.58520  Biso   1.000  H
  H62      1.0000 0.00850  0.81550  0.91480  Biso   1.000  H
  H63      1.0000 0.49150  0.31550  0.58520  Biso   1.000  H
  H64      1.0000 0.50850  0.31550  0.91480  Biso   1.000  H
  H65      1.0000 0.94280  0.04470  0.40610  Biso   1.000  H
  H66      1.0000 0.05720  0.04470  0.09390  Biso   1.000  H
  H67      1.0000 0.44280  0.54470  0.40610  Biso   1.000  H
  H68      1.0000 0.55720  0.54470  0.09390  Biso   1.000  H
  H69      1.0000 0.05720  0.95530  0.59390  Biso   1.000  H
  H70      1.0000 0.94280  0.95530  0.90610  Biso   1.000  H
  H71      1.0000 0.55720  0.45530  0.59390  Biso   1.000  H
  H72      1.0000 0.44280  0.45530  0.90610  Biso   1.000  H
  C41      1.0000 0.94290  0.77040  0.38580  Biso   1.000  C
  C42      1.0000 0.05710  0.77040  0.11420  Biso   1.000  C
  C43      1.0000 0.44290  0.27040  0.38580  Biso   1.000  C
  C44      1.0000 0.55710  0.27040  0.11420  Biso   1.000  C
  C45      1.0000 0.05710  0.22960  0.61420  Biso   1.000  C
  C46      1.0000 0.94290  0.22960  0.88580  Biso   1.000  C
  C47      1.0000 0.55710  0.72960  0.61420  Biso   1.000  C
  C48      1.0000 0.44290  0.72960  0.88580  Biso   1.000  C
  H73      1.0000 0.87580  0.82740  0.39210  Biso   1.000  H
  H74      1.0000 0.12420  0.82740  0.10790  Biso   1.000  H
  H75      1.0000 0.37580  0.32740  0.39210  Biso   1.000  H
  H76      1.0000 0.62420  0.32740  0.10790  Biso   1.000  H
  H77      1.0000 0.12420  0.17260  0.60790  Biso   1.000  H
  H78      1.0000 0.87580  0.17260  0.89210  Biso   1.000  H
  H79      1.0000 0.62420  0.67260  0.60790  Biso   1.000  H
  H80      1.0000 0.37580  0.67260  0.89210  Biso   1.000  H
  H81      1.0000 0.00870  0.80010  0.41830  Biso   1.000  H
  H82      1.0000 0.99130  0.80010  0.08170  Biso   1.000  H
  H83      1.0000 0.50870  0.30010  0.41830  Biso   1.000  H
  H84      1.0000 0.49130  0.30010  0.08170  Biso   1.000  H
  H85      1.0000 0.99130  0.19990  0.58170  Biso   1.000  H
  H86      1.0000 0.00870  0.19990  0.91830  Biso   1.000  H
  H87      1.0000 0.49130  0.69990  0.58170  Biso   1.000  H
  H88      1.0000 0.50870  0.69990  0.91830  Biso   1.000  H
  H89      1.0000 0.92380  0.67820  0.39730  Biso   1.000  H
  H90      1.0000 0.07620  0.67820  0.10270  Biso   1.000  H
  H91      1.0000 0.42380  0.17820  0.39730  Biso   1.000  H
  H92      1.0000 0.57620  0.17820  0.10270  Biso   1.000  H
  H93      1.0000 0.07620  0.32180  0.60270  Biso   1.000  H
  H94      1.0000 0.92380  0.32180  0.89730  Biso   1.000  H
  H95      1.0000 0.57620  0.82180  0.60270  Biso   1.000  H
  H96      1.0000 0.42380  0.82180  0.89730  Biso   1.000  H
