data_image0
_cell_length_a       12.505
_cell_length_b       10.834
_cell_length_c       15.031
_cell_angle_alpha    90
_cell_angle_beta     98.69
_cell_angle_gamma    90

_symmetry_space_group_name_H-M    "P 1"
_symmetry_int_tables_number       1

loop_
  _symmetry_equiv_pos_as_xyz
  'x, y, z'

loop_
  _atom_site_label
  _atom_site_occupancy
  _atom_site_fract_x
  _atom_site_fract_y
  _atom_site_fract_z
  _atom_site_thermal_displace_type
  _atom_site_B_iso_or_equiv
  _atom_site_type_symbol
  Na1      1.0000 0.11560  0.63990  0.12100  Biso   1.000  Na
  Na2      1.0000 0.38440  0.13990  0.37900  Biso   1.000  Na
  Na3      1.0000 0.88440  0.36010  0.87900  Biso   1.000  Na
  Na4      1.0000 0.61560  0.86010  0.62100  Biso   1.000  Na
  Cu1      1.0000 0.41353  0.83311  0.29861  Biso   1.000  Cu
  Cu2      1.0000 0.08647  0.33311  0.20139  Biso   1.000  Cu
  Cu3      1.0000 0.58647  0.16689  0.70139  Biso   1.000  Cu
  Cu4      1.0000 0.91353  0.66689  0.79861  Biso   1.000  Cu
  N1       1.0000 0.48400  0.87600  0.18930  Biso   1.000  N
  N2       1.0000 0.01600  0.37600  0.31070  Biso   1.000  N
  N3       1.0000 0.51600  0.12400  0.81070  Biso   1.000  N
  N4       1.0000 0.98400  0.62400  0.68930  Biso   1.000  N
  O1       1.0000 0.32090  0.68450  0.17030  Biso   1.000  O
  O2       1.0000 0.17910  0.18450  0.32970  Biso   1.000  O
  O3       1.0000 0.67910  0.31550  0.82970  Biso   1.000  O
  O4       1.0000 0.82090  0.81550  0.67030  Biso   1.000  O
  H1       1.0000 0.33440  0.61310  0.18620  Biso   1.000  H
  H2       1.0000 0.16560  0.11310  0.31380  Biso   1.000  H
  H3       1.0000 0.66560  0.38690  0.81380  Biso   1.000  H
  H4       1.0000 0.83440  0.88690  0.68620  Biso   1.000  H
  O5       1.0000 0.31040  0.96490  0.25540  Biso   1.000  O
  O6       1.0000 0.18960  0.46490  0.24460  Biso   1.000  O
  O7       1.0000 0.68960  0.03510  0.74460  Biso   1.000  O
  O8       1.0000 0.81040  0.53510  0.75540  Biso   1.000  O
  H5       1.0000 0.23790  0.93940  0.26510  Biso   1.000  H
  H6       1.0000 0.26210  0.43940  0.23490  Biso   1.000  H
  H7       1.0000 0.76210  0.06060  0.73490  Biso   1.000  H
  H8       1.0000 0.73790  0.56060  0.76510  Biso   1.000  H
  O9       1.0000 0.53820  0.99070  0.35750  Biso   1.000  O
  O10      1.0000 0.96180  0.49070  0.14250  Biso   1.000  O
  O11      1.0000 0.46180  0.00930  0.64250  Biso   1.000  O
  O12      1.0000 0.03820  0.50930  0.85750  Biso   1.000  O
  H9       1.0000 0.57830  0.96590  0.41590  Biso   1.000  H
  H10      1.0000 0.92170  0.46590  0.08410  Biso   1.000  H
  H11      1.0000 0.42170  0.03410  0.58410  Biso   1.000  H
  H12      1.0000 0.07830  0.53410  0.91590  Biso   1.000  H
  O13      1.0000 0.17400  0.28670  0.11050  Biso   1.000  O
  O14      1.0000 0.32600  0.78670  0.38950  Biso   1.000  O
  O15      1.0000 0.82600  0.71330  0.88950  Biso   1.000  O
  O16      1.0000 0.67400  0.21330  0.61050  Biso   1.000  O
  O17      1.0000 0.16010  0.46710  0.03660  Biso   1.000  O
  O18      1.0000 0.33990  0.96710  0.46340  Biso   1.000  O
  O19      1.0000 0.83990  0.53290  0.96340  Biso   1.000  O
  O20      1.0000 0.66010  0.03290  0.53660  Biso   1.000  O
  O21      1.0000 0.01450  0.79870  0.83690  Biso   1.000  O
  O22      1.0000 0.48550  0.29870  0.66310  Biso   1.000  O
  O23      1.0000 0.98550  0.20130  0.16310  Biso   1.000  O
  O24      1.0000 0.51450  0.70130  0.33690  Biso   1.000  O
  O25      1.0000 0.07920  0.73840  0.97630  Biso   1.000  O
  O26      1.0000 0.42080  0.23840  0.52370  Biso   1.000  O
  O27      1.0000 0.92080  0.26160  0.02370  Biso   1.000  O
  O28      1.0000 0.57920  0.76160  0.47630  Biso   1.000  O
  O29      1.0000 0.06290  0.76010  0.23260  Biso   1.000  O
  O30      1.0000 0.43710  0.26010  0.26740  Biso   1.000  O
  O31      1.0000 0.93710  0.23990  0.76740  Biso   1.000  O
  O32      1.0000 0.56290  0.73990  0.73260  Biso   1.000  O
  O33      1.0000 0.11920  0.94200  0.29130  Biso   1.000  O
  O34      1.0000 0.38080  0.44200  0.20870  Biso   1.000  O
  O35      1.0000 0.88080  0.05800  0.70870  Biso   1.000  O
  O36      1.0000 0.61920  0.55800  0.79130  Biso   1.000  O
  C1       1.0000 0.48500  0.76820  0.12900  Biso   1.000  C
  C2       1.0000 0.01500  0.26820  0.37100  Biso   1.000  C
  C3       1.0000 0.51500  0.23180  0.87100  Biso   1.000  C
  C4       1.0000 0.98500  0.73180  0.62900  Biso   1.000  C
  H13      1.0000 0.53120  0.70500  0.16020  Biso   1.000  H
  H14      1.0000 0.96880  0.20500  0.33980  Biso   1.000  H
  H15      1.0000 0.46880  0.29500  0.83980  Biso   1.000  H
  H16      1.0000 0.03120  0.79500  0.66020  Biso   1.000  H
  H17      1.0000 0.51650  0.79300  0.07660  Biso   1.000  H
  H18      1.0000 0.98350  0.29300  0.42340  Biso   1.000  H
  H19      1.0000 0.48350  0.20700  0.92340  Biso   1.000  H
  H20      1.0000 0.01650  0.70700  0.57660  Biso   1.000  H
  C5       1.0000 0.37550  0.71330  0.09780  Biso   1.000  C
  C6       1.0000 0.12450  0.21330  0.40220  Biso   1.000  C
  C7       1.0000 0.62450  0.28670  0.90220  Biso   1.000  C
  C8       1.0000 0.87550  0.78670  0.59780  Biso   1.000  C
  H21      1.0000 0.33250  0.77130  0.05830  Biso   1.000  H
  H22      1.0000 0.16750  0.27130  0.44170  Biso   1.000  H
  H23      1.0000 0.66750  0.22870  0.94170  Biso   1.000  H
  H24      1.0000 0.83250  0.72870  0.55830  Biso   1.000  H
  H25      1.0000 0.38370  0.63890  0.06360  Biso   1.000  H
  H26      1.0000 0.11630  0.13890  0.43640  Biso   1.000  H
  H27      1.0000 0.61630  0.36110  0.93640  Biso   1.000  H
  H28      1.0000 0.88370  0.86110  0.56360  Biso   1.000  H
  C9       1.0000 0.42380  0.98310  0.14430  Biso   1.000  C
  C10      1.0000 0.07620  0.48310  0.35570  Biso   1.000  C
  C11      1.0000 0.57620  0.01690  0.85570  Biso   1.000  C
  C12      1.0000 0.92380  0.51690  0.64430  Biso   1.000  C
  H29      1.0000 0.45910  0.05900  0.16670  Biso   1.000  H
  H30      1.0000 0.04090  0.55900  0.33330  Biso   1.000  H
  H31      1.0000 0.54090  0.94100  0.83330  Biso   1.000  H
  H32      1.0000 0.95910  0.44100  0.66670  Biso   1.000  H
  H33      1.0000 0.42540  0.97890  0.08000  Biso   1.000  H
  H34      1.0000 0.07460  0.47890  0.42000  Biso   1.000  H
  H35      1.0000 0.57460  0.02110  0.92000  Biso   1.000  H
  H36      1.0000 0.92540  0.52110  0.58000  Biso   1.000  H
  C13      1.0000 0.30960  0.98460  0.16070  Biso   1.000  C
  C14      1.0000 0.19040  0.48460  0.33930  Biso   1.000  C
  C15      1.0000 0.69040  0.01540  0.83930  Biso   1.000  C
  C16      1.0000 0.80960  0.51540  0.66070  Biso   1.000  C
  H37      1.0000 0.27630  0.06340  0.14260  Biso   1.000  H
  H38      1.0000 0.22370  0.56340  0.35740  Biso   1.000  H
  H39      1.0000 0.72370  0.93660  0.85740  Biso   1.000  H
  H40      1.0000 0.77630  0.43660  0.64260  Biso   1.000  H
  H41      1.0000 0.26870  0.91990  0.12620  Biso   1.000  H
  H42      1.0000 0.23130  0.41990  0.37380  Biso   1.000  H
  H43      1.0000 0.73130  0.08010  0.87380  Biso   1.000  H
  H44      1.0000 0.76870  0.58010  0.62620  Biso   1.000  H
  C17      1.0000 0.59850  0.90910  0.22280  Biso   1.000  C
  C18      1.0000 0.90150  0.40910  0.27720  Biso   1.000  C
  C19      1.0000 0.40150  0.09090  0.77720  Biso   1.000  C
  C20      1.0000 0.09850  0.59090  0.72280  Biso   1.000  C
  H45      1.0000 0.63270  0.93550  0.17220  Biso   1.000  H
  H46      1.0000 0.86730  0.43550  0.32780  Biso   1.000  H
  H47      1.0000 0.36730  0.06450  0.82780  Biso   1.000  H
  H48      1.0000 0.13270  0.56450  0.67220  Biso   1.000  H
  H49      1.0000 0.63630  0.83590  0.24810  Biso   1.000  H
  H50      1.0000 0.86370  0.33590  0.25190  Biso   1.000  H
  H51      1.0000 0.36370  0.16410  0.75190  Biso   1.000  H
  H52      1.0000 0.13630  0.66410  0.74810  Biso   1.000  H
  C21      1.0000 0.61140  0.00930  0.29260  Biso   1.000  C
  C22      1.0000 0.88860  0.50930  0.20740  Biso   1.000  C
  C23      1.0000 0.38860  0.99070  0.70740  Biso   1.000  C
  C24      1.0000 0.11140  0.49070  0.79260  Biso   1.000  C
  H53      1.0000 0.68540  0.00980  0.32350  Biso   1.000  H
  H54      1.0000 0.81460  0.50980  0.17650  Biso   1.000  H
  H55      1.0000 0.31460  0.99020  0.67650  Biso   1.000  H
  H56      1.0000 0.18540  0.49020  0.82350  Biso   1.000  H
  H57      1.0000 0.59700  0.08870  0.26350  Biso   1.000  H
  H58      1.0000 0.90300  0.58870  0.23650  Biso   1.000  H
  H59      1.0000 0.40300  0.91130  0.73650  Biso   1.000  H
  H60      1.0000 0.09700  0.41130  0.76350  Biso   1.000  H
  C25      1.0000 0.19160  0.36030  0.04970  Biso   1.000  C
  C26      1.0000 0.30840  0.86030  0.45030  Biso   1.000  C
  C27      1.0000 0.80840  0.63970  0.95030  Biso   1.000  C
  C28      1.0000 0.69160  0.13970  0.54970  Biso   1.000  C
  C29      1.0000 0.25860  0.30580  0.98470  Biso   1.000  C
  C30      1.0000 0.24140  0.80580  0.51530  Biso   1.000  C
  C31      1.0000 0.74140  0.69420  0.01530  Biso   1.000  C
  C32      1.0000 0.75860  0.19420  0.48470  Biso   1.000  C
  F1       1.0000 0.32100  0.38690  0.95340  Biso   1.000  F
  F2       1.0000 0.17900  0.88690  0.54660  Biso   1.000  F
  F3       1.0000 0.67900  0.61310  0.04660  Biso   1.000  F
  F4       1.0000 0.82100  0.11310  0.45340  Biso   1.000  F
  F5       1.0000 0.19520  0.26090  0.91300  Biso   1.000  F
  F6       1.0000 0.30480  0.76090  0.58700  Biso   1.000  F
  F7       1.0000 0.80480  0.73910  0.08700  Biso   1.000  F
  F8       1.0000 0.69520  0.23910  0.41300  Biso   1.000  F
  F9       1.0000 0.31980  0.21160  0.01710  Biso   1.000  F
  F10      1.0000 0.18020  0.71160  0.48290  Biso   1.000  F
  F11      1.0000 0.68020  0.78840  0.98290  Biso   1.000  F
  F12      1.0000 0.81980  0.28840  0.51710  Biso   1.000  F
  C33      1.0000 0.06810  0.80930  0.91340  Biso   1.000  C
  C34      1.0000 0.43190  0.30930  0.58660  Biso   1.000  C
  C35      1.0000 0.93190  0.19070  0.08660  Biso   1.000  C
  C36      1.0000 0.56810  0.69070  0.41340  Biso   1.000  C
  C37      1.0000 0.12340  0.93320  0.92620  Biso   1.000  C
  C38      1.0000 0.37660  0.43320  0.57380  Biso   1.000  C
  C39      1.0000 0.87660  0.06680  0.07380  Biso   1.000  C
  C40      1.0000 0.62340  0.56680  0.42620  Biso   1.000  C
  F13      1.0000 0.10560  0.98220  0.00930  Biso   1.000  F
  F14      1.0000 0.39440  0.48220  0.49070  Biso   1.000  F
  F15      1.0000 0.89440  0.01780  0.99070  Biso   1.000  F
  F16      1.0000 0.60560  0.51780  0.50930  Biso   1.000  F
  F17      1.0000 0.09900  0.01790  0.86650  Biso   1.000  F
  F18      1.0000 0.40100  0.51790  0.63350  Biso   1.000  F
  F19      1.0000 0.90100  0.98210  0.13350  Biso   1.000  F
  F20      1.0000 0.59900  0.48210  0.36650  Biso   1.000  F
  F21      1.0000 0.23360  0.92110  0.94030  Biso   1.000  F
  F22      1.0000 0.26640  0.42110  0.55970  Biso   1.000  F
  F23      1.0000 0.76640  0.07890  0.05970  Biso   1.000  F
  F24      1.0000 0.73360  0.57890  0.44030  Biso   1.000  F
  F25      1.0000 0.94280  0.97370  0.11000  Biso   1.000  F
  F26      1.0000 0.55720  0.47370  0.39000  Biso   1.000  F
  F27      1.0000 0.05720  0.02630  0.89000  Biso   1.000  F
  F28      1.0000 0.44280  0.52630  0.61000  Biso   1.000  F
  F29      1.0000 0.78770  0.06120  0.11400  Biso   1.000  F
  F30      1.0000 0.71230  0.56120  0.38600  Biso   1.000  F
  F31      1.0000 0.21230  0.93880  0.88600  Biso   1.000  F
  F32      1.0000 0.28770  0.43880  0.61400  Biso   1.000  F
  F33      1.0000 0.84500  0.03320  0.98850  Biso   1.000  F
  F34      1.0000 0.65500  0.53320  0.51150  Biso   1.000  F
  F35      1.0000 0.15500  0.96680  0.01150  Biso   1.000  F
  F36      1.0000 0.34500  0.46680  0.48850  Biso   1.000  F
  F37      1.0000 0.95080  0.97460  0.06800  Biso   1.000  F
  F38      1.0000 0.54920  0.47460  0.43200  Biso   1.000  F
  F39      1.0000 0.04920  0.02540  0.93200  Biso   1.000  F
  F40      1.0000 0.45080  0.52540  0.56800  Biso   1.000  F
  F41      1.0000 0.84300  0.03200  0.15570  Biso   1.000  F
  F42      1.0000 0.65700  0.53200  0.34430  Biso   1.000  F
  F43      1.0000 0.15700  0.96800  0.84430  Biso   1.000  F
  F44      1.0000 0.34300  0.46800  0.65570  Biso   1.000  F
  F45      1.0000 0.79380  0.05070  0.01380  Biso   1.000  F
  F46      1.0000 0.70620  0.55070  0.48620  Biso   1.000  F
  F47      1.0000 0.20620  0.94930  0.98620  Biso   1.000  F
  F48      1.0000 0.29380  0.44930  0.51380  Biso   1.000  F
  C41      1.0000 0.05570  0.85240  0.27750  Biso   1.000  C
  C42      1.0000 0.44430  0.35240  0.22250  Biso   1.000  C
  C43      1.0000 0.94430  0.14760  0.72250  Biso   1.000  C
  C44      1.0000 0.55570  0.64760  0.77750  Biso   1.000  C
  C45      1.0000 0.95880  0.85990  0.32640  Biso   1.000  C
  C46      1.0000 0.54120  0.35990  0.17360  Biso   1.000  C
  C47      1.0000 0.04120  0.14010  0.67360  Biso   1.000  C
  C48      1.0000 0.45880  0.64010  0.82640  Biso   1.000  C
  F49      1.0000 0.94230  0.96520  0.36450  Biso   1.000  F
  F50      1.0000 0.55770  0.46520  0.13550  Biso   1.000  F
  F51      1.0000 0.05770  0.03480  0.63550  Biso   1.000  F
  F52      1.0000 0.44230  0.53480  0.86450  Biso   1.000  F
  F53      1.0000 0.86550  0.83070  0.27060  Biso   1.000  F
  F54      1.0000 0.63450  0.33070  0.22940  Biso   1.000  F
  F55      1.0000 0.13450  0.16930  0.72940  Biso   1.000  F
  F56      1.0000 0.36550  0.66930  0.77060  Biso   1.000  F
  F57      1.0000 0.96480  0.77060  0.39140  Biso   1.000  F
  F58      1.0000 0.53520  0.27060  0.10860  Biso   1.000  F
  F59      1.0000 0.03520  0.22940  0.60860  Biso   1.000  F
  F60      1.0000 0.46480  0.72940  0.89140  Biso   1.000  F
  F61      1.0000 0.87120  0.91200  0.27920  Biso   1.000  F
  F62      1.0000 0.62880  0.41200  0.22080  Biso   1.000  F
  F63      1.0000 0.12880  0.08800  0.72080  Biso   1.000  F
  F64      1.0000 0.37120  0.58800  0.77920  Biso   1.000  F
  F65      1.0000 0.92750  0.75050  0.35620  Biso   1.000  F
  F66      1.0000 0.57250  0.25050  0.14380  Biso   1.000  F
  F67      1.0000 0.07250  0.24950  0.64380  Biso   1.000  F
  F68      1.0000 0.42750  0.74950  0.85620  Biso   1.000  F
  F69      1.0000 0.98000  0.93000  0.40320  Biso   1.000  F
  F70      1.0000 0.52000  0.43000  0.09680  Biso   1.000  F
  F71      1.0000 0.02000  0.07000  0.59680  Biso   1.000  F
  F72      1.0000 0.48000  0.57000  0.90320  Biso   1.000  F
  F73      1.0000 0.87790  0.78310  0.29690  Biso   1.000  F
  F74      1.0000 0.62210  0.28310  0.20310  Biso   1.000  F
  F75      1.0000 0.12210  0.21690  0.70310  Biso   1.000  F
  F76      1.0000 0.37790  0.71690  0.79690  Biso   1.000  F
  F77      1.0000 0.91160  0.97540  0.31660  Biso   1.000  F
  F78      1.0000 0.58840  0.47540  0.18340  Biso   1.000  F
  F79      1.0000 0.08840  0.02460  0.68340  Biso   1.000  F
  F80      1.0000 0.41160  0.52460  0.81660  Biso   1.000  F
  F81      1.0000 0.98290  0.84500  0.41550  Biso   1.000  F
  F82      1.0000 0.51710  0.34500  0.08450  Biso   1.000  F
  F83      1.0000 0.01710  0.15500  0.58450  Biso   1.000  F
  F84      1.0000 0.48290  0.65500  0.91550  Biso   1.000  F
