data_image0
_cell_length_a       7.156
_cell_length_b       9.8692
_cell_length_c       12.9585
_cell_angle_alpha    95.853
_cell_angle_beta     90.544
_cell_angle_gamma    95.643

_symmetry_space_group_name_H-M    "P 1"
_symmetry_int_tables_number       1

loop_
  _symmetry_equiv_pos_as_xyz
  'x, y, z'

loop_
  _atom_site_label
  _atom_site_occupancy
  _atom_site_fract_x
  _atom_site_fract_y
  _atom_site_fract_z
  _atom_site_thermal_displace_type
  _atom_site_B_iso_or_equiv
  _atom_site_type_symbol
  Na1      1.0000 0.63906  0.64665  0.05549  Biso   1.000  Na
  Na2      1.0000 0.36094  0.35335  0.94451  Biso   1.000  Na
  Cu1      1.0000 0.81668  0.49559  0.24636  Biso   1.000  Cu
  Cu2      1.0000 0.18332  0.50441  0.75364  Biso   1.000  Cu
  S1       1.0000 0.17897  0.95225  0.20643  Biso   1.000  S
  S2       1.0000 0.82103  0.04775  0.79357  Biso   1.000  S
  O1       1.0000 0.90980  0.65127  0.16923  Biso   1.000  O
  O2       1.0000 0.09020  0.34873  0.83077  Biso   1.000  O
  O3       1.0000 0.16980  0.60962  0.24859  Biso   1.000  O
  O4       1.0000 0.83020  0.39038  0.75141  Biso   1.000  O
  O5       1.0000 0.11900  0.63830  0.86705  Biso   1.000  O
  O6       1.0000 0.88100  0.36170  0.13295  Biso   1.000  O
  O7       1.0000 0.31960  0.59098  0.98809  Biso   1.000  O
  O8       1.0000 0.68040  0.40902  0.01191  Biso   1.000  O
  O9       1.0000 0.33050  0.04046  0.16576  Biso   1.000  O
  O10      1.0000 0.66950  0.95954  0.83424  Biso   1.000  O
  O11      1.0000 0.20950  0.93430  0.31395  Biso   1.000  O
  O12      1.0000 0.79050  0.06570  0.68605  Biso   1.000  O
  O13      1.0000 0.99680  0.99340  0.18430  Biso   1.000  O
  O14      1.0000 0.00320  0.00660  0.81570  Biso   1.000  O
  O15      1.0000 0.51380  0.52714  0.20275  Biso   1.000  O
  O16      1.0000 0.48620  0.47286  0.79725  Biso   1.000  O
  H1       1.0000 0.46000  0.45500  0.17800  Biso   1.000  H
  H2       1.0000 0.54000  0.54500  0.82200  Biso   1.000  H
  H3       1.0000 0.43300  0.57000  0.22600  Biso   1.000  H
  H4       1.0000 0.56700  0.43000  0.77400  Biso   1.000  H
  O17      1.0000 0.64440  0.87840  0.11730  Biso   1.000  O
  O18      1.0000 0.35560  0.12160  0.88270  Biso   1.000  O
  H5       1.0000 0.56900  0.93700  0.12000  Biso   1.000  H
  H6       1.0000 0.43100  0.06300  0.88000  Biso   1.000  H
  H7       1.0000 0.75500  0.90900  0.13000  Biso   1.000  H
  H8       1.0000 0.24500  0.09100  0.87000  Biso   1.000  H
  O19      1.0000 0.72980  0.69570  0.88398  Biso   1.000  O
  O20      1.0000 0.27020  0.30430  0.11602  Biso   1.000  O
  H9       1.0000 0.72800  0.77800  0.88100  Biso   1.000  H
  H10      1.0000 0.27200  0.22200  0.11900  Biso   1.000  H
  H11      1.0000 0.83700  0.68300  0.86900  Biso   1.000  H
  H12      1.0000 0.16300  0.31700  0.13100  Biso   1.000  H
  N1       1.0000 0.74770  0.34523  0.33602  Biso   1.000  N
  N2       1.0000 0.25230  0.65477  0.66398  Biso   1.000  N
  N3       1.0000 0.80480  0.60898  0.38449  Biso   1.000  N
  N4       1.0000 0.19520  0.39102  0.61551  Biso   1.000  N
  C1       1.0000 0.08640  0.67470  0.18858  Biso   1.000  C
  C2       1.0000 0.91360  0.32530  0.81142  Biso   1.000  C
  C3       1.0000 0.19780  0.78680  0.13611  Biso   1.000  C
  C4       1.0000 0.80220  0.21320  0.86389  Biso   1.000  C
  H13      1.0000 0.33020  0.76970  0.14030  Biso   1.000  H
  H14      1.0000 0.66980  0.23030  0.85970  Biso   1.000  H
  C5       1.0000 0.14990  0.78810  0.02207  Biso   1.000  C
  C6       1.0000 0.85010  0.21190  0.97793  Biso   1.000  C
  H15      1.0000 0.21550  0.86880  0.99710  Biso   1.000  H
  H16      1.0000 0.78450  0.13120  0.00290  Biso   1.000  H
  H17      1.0000 0.01610  0.79420  0.01410  Biso   1.000  H
  H18      1.0000 0.98390  0.20580  0.98590  Biso   1.000  H
  C7       1.0000 0.20260  0.66090  0.95613  Biso   1.000  C
  C8       1.0000 0.79740  0.33910  0.04387  Biso   1.000  C
  C9       1.0000 0.71370  0.21190  0.30334  Biso   1.000  C
  C10      1.0000 0.28630  0.78810  0.69666  Biso   1.000  C
  H19      1.0000 0.72100  0.18400  0.23290  Biso   1.000  H
  H20      1.0000 0.27900  0.81600  0.76710  Biso   1.000  H
  C11      1.0000 0.66800  0.11450  0.37070  Biso   1.000  C
  C12      1.0000 0.33200  0.88550  0.62930  Biso   1.000  C
  H21      1.0000 0.64260  0.02270  0.34590  Biso   1.000  H
  H22      1.0000 0.35740  0.97730  0.65410  Biso   1.000  H
  C13      1.0000 0.66080  0.15560  0.47450  Biso   1.000  C
  C14      1.0000 0.33920  0.84440  0.52550  Biso   1.000  C
  H23      1.0000 0.63250  0.09150  0.52130  Biso   1.000  H
  H24      1.0000 0.36750  0.90850  0.47870  Biso   1.000  H
  C15      1.0000 0.69590  0.29320  0.50965  Biso   1.000  C
  C16      1.0000 0.30410  0.70680  0.49035  Biso   1.000  C
  H25      1.0000 0.69250  0.32240  0.58010  Biso   1.000  H
  H26      1.0000 0.30750  0.67760  0.41990  Biso   1.000  H
  C17      1.0000 0.73610  0.38620  0.43834  Biso   1.000  C
  C18      1.0000 0.26390  0.61380  0.56166  Biso   1.000  C
  C19      1.0000 0.77060  0.53570  0.46573  Biso   1.000  C
  C20      1.0000 0.22940  0.46430  0.53427  Biso   1.000  C
  C21      1.0000 0.76810  0.59810  0.56641  Biso   1.000  C
  C22      1.0000 0.23190  0.40190  0.43359  Biso   1.000  C
  H27      1.0000 0.74500  0.54600  0.62170  Biso   1.000  H
  H28      1.0000 0.25500  0.45400  0.37830  Biso   1.000  H
  C23      1.0000 0.80050  0.73880  0.58320  Biso   1.000  C
  C24      1.0000 0.19950  0.26120  0.41680  Biso   1.000  C
  H29      1.0000 0.79880  0.78280  0.65010  Biso   1.000  H
  H30      1.0000 0.20120  0.21720  0.34990  Biso   1.000  H
  C25      1.0000 0.83520  0.81310  0.50050  Biso   1.000  C
  C26      1.0000 0.16480  0.18690  0.49950  Biso   1.000  C
  H31      1.0000 0.85790  0.90800  0.51070  Biso   1.000  H
  H32      1.0000 0.14210  0.09200  0.48930  Biso   1.000  H
  C27      1.0000 0.83590  0.74590  0.40237  Biso   1.000  C
  C28      1.0000 0.16410  0.25410  0.59763  Biso   1.000  C
  H33      1.0000 0.85870  0.79690  0.34650  Biso   1.000  H
  H34      1.0000 0.14130  0.20310  0.65350  Biso   1.000  H
