data_image0
_cell_length_a       10.27
_cell_length_b       12.8186
_cell_length_c       20.588
_cell_angle_alpha    90
_cell_angle_beta     93.281
_cell_angle_gamma    90

_symmetry_space_group_name_H-M    "P 1"
_symmetry_int_tables_number       1

loop_
  _symmetry_equiv_pos_as_xyz
  'x, y, z'

loop_
  _atom_site_label
  _atom_site_occupancy
  _atom_site_fract_x
  _atom_site_fract_y
  _atom_site_fract_z
  _atom_site_thermal_displace_type
  _atom_site_B_iso_or_equiv
  _atom_site_type_symbol
  Cu1      1.0000 0.50860  0.31480  0.65443  Biso   1.000  Cu
  Cu2      1.0000 0.49140  0.81480  0.34557  Biso   1.000  Cu
  Cu3      1.0000 0.48700  0.46570  0.75610  Biso   1.000  Cu
  Cu4      1.0000 0.51300  0.96570  0.24390  Biso   1.000  Cu
  Cu5      1.0000 0.50480  0.81560  0.84187  Biso   1.000  Cu
  Cu6      1.0000 0.49520  0.31560  0.15813  Biso   1.000  Cu
  Cu7      1.0000 0.48850  0.96200  0.73700  Biso   1.000  Cu
  Cu8      1.0000 0.51150  0.46200  0.26300  Biso   1.000  Cu
  Cu9      1.0000 0.53450  0.17600  0.90672  Biso   1.000  Cu
  Cu10     1.0000 0.46550  0.67600  0.09328  Biso   1.000  Cu
  Cu11     1.0000 0.49020  0.66990  0.59020  Biso   1.000  Cu
  Cu12     1.0000 0.50980  0.16990  0.40980  Biso   1.000  Cu
  Br1      1.0000 0.67080  0.22310  0.60096  Biso   1.000  Br
  Br2      1.0000 0.32920  0.72310  0.39904  Biso   1.000  Br
  Br3      1.0000 0.32260  0.48240  0.83204  Biso   1.000  Br
  Br4      1.0000 0.67740  0.98240  0.16796  Biso   1.000  Br
  Br5      1.0000 0.66260  0.71950  0.90805  Biso   1.000  Br
  Br6      1.0000 0.33740  0.21950  0.09195  Biso   1.000  Br
  Br7      1.0000 0.31900  0.98180  0.65320  Biso   1.000  Br
  Br8      1.0000 0.68100  0.48180  0.34680  Biso   1.000  Br
  Br9      1.0000 0.51450  0.19080  0.77201  Biso   1.000  Br
  Br10     1.0000 0.48550  0.69080  0.22799  Biso   1.000  Br
  Br11     1.0000 0.67140  0.31910  0.95072  Biso   1.000  Br
  Br12     1.0000 0.32860  0.81910  0.04928  Biso   1.000  Br
  Br13     1.0000 0.48370  0.69450  0.72152  Biso   1.000  Br
  Br14     1.0000 0.51630  0.19450  0.27848  Biso   1.000  Br
  Br15     1.0000 0.63660  0.79750  0.55086  Biso   1.000  Br
  Br16     1.0000 0.36340  0.29750  0.44914  Biso   1.000  Br
  O1       1.0000 0.37500  0.41810  0.67800  Biso   1.000  O
  O2       1.0000 0.62500  0.91810  0.32200  Biso   1.000  O
  C1       1.0000 0.24300  0.37100  0.68600  Biso   1.000  C
  C2       1.0000 0.75700  0.87100  0.31400  Biso   1.000  C
  H1       1.0000 0.22250  0.36930  0.73230  Biso   1.000  H
  H2       1.0000 0.77750  0.86930  0.26770  Biso   1.000  H
  H3       1.0000 0.17450  0.41030  0.66090  Biso   1.000  H
  H4       1.0000 0.82550  0.91030  0.33910  Biso   1.000  H
  C3       1.0000 0.25400  0.26400  0.66020  Biso   1.000  C
  C4       1.0000 0.74600  0.76400  0.33980  Biso   1.000  C
  H5       1.0000 0.25060  0.21090  0.69550  Biso   1.000  H
  H6       1.0000 0.74940  0.71090  0.30450  Biso   1.000  H
  C5       1.0000 0.13700  0.25500  0.61100  Biso   1.000  C
  C6       1.0000 0.86300  0.75500  0.38900  Biso   1.000  C
  H7       1.0000 0.13360  0.18520  0.58990  Biso   1.000  H
  H8       1.0000 0.86640  0.68520  0.41010  Biso   1.000  H
  H9       1.0000 0.13780  0.30960  0.57730  Biso   1.000  H
  H10      1.0000 0.86220  0.80960  0.42270  Biso   1.000  H
  C7       1.0000 0.02400  0.27000  0.65600  Biso   1.000  C
  C8       1.0000 0.97600  0.77000  0.34400  Biso   1.000  C
  H11      1.0000 0.03670  0.33540  0.68010  Biso   1.000  H
  H12      1.0000 0.96330  0.83540  0.31990  Biso   1.000  H
  H13      1.0000 0.02330  0.21160  0.68700  Biso   1.000  H
  H14      1.0000 0.97670  0.71160  0.31300  Biso   1.000  H
  H15      1.0000 0.94160  0.27190  0.63010  Biso   1.000  H
  H16      1.0000 0.05840  0.77190  0.36990  Biso   1.000  H
  N1       1.0000 0.36300  0.24200  0.61700  Biso   1.000  N
  N2       1.0000 0.63700  0.74200  0.38300  Biso   1.000  N
  H17      1.0000 0.34210  0.26520  0.57540  Biso   1.000  H
  H18      1.0000 0.65790  0.76520  0.42460  Biso   1.000  H
  H19      1.0000 0.37930  0.17140  0.61550  Biso   1.000  H
  H20      1.0000 0.62070  0.67140  0.38450  Biso   1.000  H
  O3       1.0000 0.62000  0.42290  0.69210  Biso   1.000  O
  O4       1.0000 0.38000  0.92290  0.30790  Biso   1.000  O
  C9       1.0000 0.74200  0.39600  0.73330  Biso   1.000  C
  C10      1.0000 0.25800  0.89600  0.26670  Biso   1.000  C
  H21      1.0000 0.73130  0.32510  0.75180  Biso   1.000  H
  H22      1.0000 0.26870  0.82510  0.24820  Biso   1.000  H
  H23      1.0000 0.81630  0.39340  0.70490  Biso   1.000  H
  H24      1.0000 0.18370  0.89340  0.29510  Biso   1.000  H
  C11      1.0000 0.77300  0.47100  0.78800  Biso   1.000  C
  C12      1.0000 0.22700  0.97100  0.21200  Biso   1.000  C
  H25      1.0000 0.83790  0.44000  0.82060  Biso   1.000  H
  H26      1.0000 0.16210  0.94000  0.17940  Biso   1.000  H
  C13      1.0000 0.82500  0.57600  0.76160  Biso   1.000  C
  C14      1.0000 0.17500  0.07600  0.23840  Biso   1.000  C
  H27      1.0000 0.75630  0.60590  0.73130  Biso   1.000  H
  H28      1.0000 0.24370  0.10590  0.26870  Biso   1.000  H
  H29      1.0000 0.83830  0.62470  0.79850  Biso   1.000  H
  H30      1.0000 0.16170  0.12470  0.20150  Biso   1.000  H
  C15      1.0000 0.95300  0.56900  0.72600  Biso   1.000  C
  C16      1.0000 0.04700  0.06900  0.27400  Biso   1.000  C
  H31      1.0000 0.01450  0.52270  0.74990  Biso   1.000  H
  H32      1.0000 0.98550  0.02270  0.25010  Biso   1.000  H
  H33      1.0000 0.99130  0.63860  0.72290  Biso   1.000  H
  H34      1.0000 0.00870  0.13860  0.27710  Biso   1.000  H
  H35      1.0000 0.93450  0.54110  0.68190  Biso   1.000  H
  H36      1.0000 0.06550  0.04110  0.31810  Biso   1.000  H
  N3       1.0000 0.64300  0.48900  0.81840  Biso   1.000  N
  N4       1.0000 0.35700  0.98900  0.18160  Biso   1.000  N
  H37      1.0000 0.64060  0.55640  0.83380  Biso   1.000  H
  H38      1.0000 0.35940  0.05640  0.16620  Biso   1.000  H
  H39      1.0000 0.63730  0.44500  0.85340  Biso   1.000  H
  H40      1.0000 0.36270  0.94500  0.14660  Biso   1.000  H
  O5       1.0000 0.38050  0.92630  0.80700  Biso   1.000  O
  O6       1.0000 0.61950  0.42630  0.19300  Biso   1.000  O
  C17      1.0000 0.24800  0.87700  0.80220  Biso   1.000  C
  C18      1.0000 0.75200  0.37700  0.19780  Biso   1.000  C
  H41      1.0000 0.23980  0.83120  0.76350  Biso   1.000  H
  H42      1.0000 0.76020  0.33120  0.23650  Biso   1.000  H
  H43      1.0000 0.18020  0.93170  0.79770  Biso   1.000  H
  H44      1.0000 0.81980  0.43170  0.20230  Biso   1.000  H
  C19      1.0000 0.23200  0.81500  0.86250  Biso   1.000  C
  C20      1.0000 0.76800  0.31500  0.13750  Biso   1.000  C
  H45      1.0000 0.22980  0.86360  0.90040  Biso   1.000  H
  H46      1.0000 0.77020  0.36360  0.09960  Biso   1.000  H
  C21      1.0000 0.09900  0.75700  0.85440  Biso   1.000  C
  C22      1.0000 0.90100  0.25700  0.14560  Biso   1.000  C
  H47      1.0000 0.02850  0.80950  0.84810  Biso   1.000  H
  H48      1.0000 0.97150  0.30950  0.15190  Biso   1.000  H
  H49      1.0000 0.09820  0.71340  0.81470  Biso   1.000  H
  H50      1.0000 0.90180  0.21340  0.18530  Biso   1.000  H
  C23      1.0000 0.07100  0.68800  0.91280  Biso   1.000  C
  C24      1.0000 0.92900  0.18800  0.08720  Biso   1.000  C
  H51      1.0000 0.13980  0.63510  0.91870  Biso   1.000  H
  H52      1.0000 0.86020  0.13510  0.08130  Biso   1.000  H
  H53      1.0000 0.98660  0.65400  0.90510  Biso   1.000  H
  H54      1.0000 0.01340  0.15400  0.09490  Biso   1.000  H
  H55      1.0000 0.07030  0.73130  0.95210  Biso   1.000  H
  H56      1.0000 0.92970  0.23130  0.04790  Biso   1.000  H
  N5       1.0000 0.35000  0.74380  0.87260  Biso   1.000  N
  N6       1.0000 0.65000  0.24380  0.12740  Biso   1.000  N
  H57      1.0000 0.33600  0.68270  0.84980  Biso   1.000  H
  H58      1.0000 0.66400  0.18270  0.15020  Biso   1.000  H
  H59      1.0000 0.36330  0.72770  0.91600  Biso   1.000  H
  H60      1.0000 0.63670  0.22770  0.08400  Biso   1.000  H
  O7       1.0000 0.61700  0.91670  0.80530  Biso   1.000  O
  O8       1.0000 0.38300  0.41670  0.19470  Biso   1.000  O
  C25      1.0000 0.73900  0.88800  0.77250  Biso   1.000  C
  C26      1.0000 0.26100  0.38800  0.22750  Biso   1.000  C
  H61      1.0000 0.81390  0.88450  0.80500  Biso   1.000  H
  H62      1.0000 0.18610  0.38450  0.19500  Biso   1.000  H
  H63      1.0000 0.72870  0.81920  0.75120  Biso   1.000  H
  H64      1.0000 0.27130  0.31920  0.24880  Biso   1.000  H
  C27      1.0000 0.76300  0.97000  0.72270  Biso   1.000  C
  C28      1.0000 0.23700  0.47000  0.27730  Biso   1.000  C
  H65      1.0000 0.78380  0.03790  0.74550  Biso   1.000  H
  H66      1.0000 0.21620  0.53790  0.25450  Biso   1.000  H
  C29      1.0000 0.88500  0.93300  0.68870  Biso   1.000  C
  C30      1.0000 0.11500  0.43300  0.31130  Biso   1.000  C
  H67      1.0000 0.96140  0.93050  0.72040  Biso   1.000  H
  H68      1.0000 0.03860  0.43050  0.27960  Biso   1.000  H
  H69      1.0000 0.87020  0.86190  0.67100  Biso   1.000  H
  H70      1.0000 0.12980  0.36190  0.32900  Biso   1.000  H
  C31      1.0000 0.91200  0.00900  0.63300  Biso   1.000  C
  C32      1.0000 0.08800  0.50900  0.36700  Biso   1.000  C
  H71      1.0000 0.89080  0.08010  0.64670  Biso   1.000  H
  H72      1.0000 0.10920  0.58010  0.35330  Biso   1.000  H
  H73      1.0000 0.85740  0.99010  0.59450  Biso   1.000  H
  H74      1.0000 0.14260  0.49010  0.40550  Biso   1.000  H
  H75      1.0000 0.00400  0.00500  0.62380  Biso   1.000  H
  H76      1.0000 0.99600  0.50500  0.37620  Biso   1.000  H
  N7       1.0000 0.63400  0.98100  0.68320  Biso   1.000  N
  N8       1.0000 0.36600  0.48100  0.31680  Biso   1.000  N
  H77      1.0000 0.63050  0.93210  0.65040  Biso   1.000  H
  H78      1.0000 0.36950  0.43210  0.34960  Biso   1.000  H
  H79      1.0000 0.62950  0.04600  0.66430  Biso   1.000  H
  H80      1.0000 0.37050  0.54600  0.33570  Biso   1.000  H
  O9       1.0000 0.40620  0.05160  0.90410  Biso   1.000  O
  O10      1.0000 0.59380  0.55160  0.09590  Biso   1.000  O
  H81      1.0000 0.39700  0.00300  0.87400  Biso   1.000  H
  H82      1.0000 0.60300  0.50300  0.12600  Biso   1.000  H
  C33      1.0000 0.27300  0.09100  0.91820  Biso   1.000  C
  C34      1.0000 0.72700  0.59100  0.08180  Biso   1.000  C
  H83      1.0000 0.20510  0.04720  0.89540  Biso   1.000  H
  H84      1.0000 0.79490  0.54720  0.10460  Biso   1.000  H
  H85      1.0000 0.26060  0.08710  0.96550  Biso   1.000  H
  H86      1.0000 0.73940  0.58710  0.03450  Biso   1.000  H
  C35      1.0000 0.25900  0.20200  0.89560  Biso   1.000  C
  C36      1.0000 0.74100  0.70200  0.10440  Biso   1.000  C
  H87      1.0000 0.25810  0.20210  0.84710  Biso   1.000  H
  H88      1.0000 0.74190  0.70210  0.15290  Biso   1.000  H
  C37      1.0000 0.13000  0.25200  0.91580  Biso   1.000  C
  C38      1.0000 0.87000  0.75200  0.08420  Biso   1.000  C
  H89      1.0000 0.11590  0.23420  0.96170  Biso   1.000  H
  H90      1.0000 0.88410  0.73420  0.03830  Biso   1.000  H
  H91      1.0000 0.13610  0.32860  0.91220  Biso   1.000  H
  H92      1.0000 0.86390  0.82860  0.08780  Biso   1.000  H
  C39      1.0000 0.01400  0.21300  0.87200  Biso   1.000  C
  C40      1.0000 0.98600  0.71300  0.12800  Biso   1.000  C
  H93      1.0000 0.01760  0.24350  0.82890  Biso   1.000  H
  H94      1.0000 0.98240  0.74350  0.17110  Biso   1.000  H
  H95      1.0000 0.93250  0.23290  0.89130  Biso   1.000  H
  H96      1.0000 0.06750  0.73290  0.10870  Biso   1.000  H
  H97      1.0000 0.01820  0.13650  0.86890  Biso   1.000  H
  H98      1.0000 0.98180  0.63650  0.13110  Biso   1.000  H
  N9       1.0000 0.38400  0.25240  0.92190  Biso   1.000  N
  N10      1.0000 0.61600  0.75240  0.07810  Biso   1.000  N
  H99      1.0000 0.37930  0.26180  0.96600  Biso   1.000  H
  H100     1.0000 0.62070  0.76180  0.03400  Biso   1.000  H
  H101     1.0000 0.39030  0.31720  0.90320  Biso   1.000  H
  H102     1.0000 0.60970  0.81720  0.09680  Biso   1.000  H
  O11      1.0000 0.57500  0.08400  0.01540  Biso   1.000  O
  O12      1.0000 0.42500  0.58400  0.98460  Biso   1.000  O
  H103     1.0000 0.51020  0.09290  0.98560  Biso   1.000  H
  H104     1.0000 0.48980  0.59290  0.01440  Biso   1.000  H
  C41      1.0000 0.67300  0.00100  0.99780  Biso   1.000  C
  C42      1.0000 0.32700  0.50100  0.00220  Biso   1.000  C
  H105     1.0000 0.72040  0.97590  0.03780  Biso   1.000  H
  H106     1.0000 0.27960  0.47590  0.96220  Biso   1.000  H
  H107     1.0000 0.62630  0.94150  0.97670  Biso   1.000  H
  H108     1.0000 0.37370  0.44150  0.02330  Biso   1.000  H
  C43      1.0000 0.76700  0.04600  0.95270  Biso   1.000  C
  C44      1.0000 0.23300  0.54600  0.04730  Biso   1.000  C
  H109     1.0000 0.80450  0.11040  0.97380  Biso   1.000  H
  H110     1.0000 0.19550  0.61040  0.02620  Biso   1.000  H
  C45      1.0000 0.88200  0.97400  0.93780  Biso   1.000  C
  C46      1.0000 0.11800  0.47400  0.06220  Biso   1.000  C
  H111     1.0000 0.92380  0.00080  0.89900  Biso   1.000  H
  H112     1.0000 0.07620  0.50080  0.10100  Biso   1.000  H
  H113     1.0000 0.84830  0.90330  0.92740  Biso   1.000  H
  H114     1.0000 0.15170  0.40330  0.07260  Biso   1.000  H
  C47      1.0000 0.98600  0.96700  0.99500  Biso   1.000  C
  C48      1.0000 0.01400  0.46700  0.00500  Biso   1.000  C
  H115     1.0000 0.05090  0.02220  0.99140  Biso   1.000  H
  H116     1.0000 0.94910  0.52220  0.00860  Biso   1.000  H
  H117     1.0000 0.02990  0.89860  0.99410  Biso   1.000  H
  H118     1.0000 0.97010  0.39860  0.00590  Biso   1.000  H
  H119     1.0000 0.94410  0.97410  0.03650  Biso   1.000  H
  H120     1.0000 0.05590  0.47410  0.96350  Biso   1.000  H
  N11      1.0000 0.68200  0.08050  0.89430  Biso   1.000  N
  N12      1.0000 0.31800  0.58050  0.10570  Biso   1.000  N
  H121     1.0000 0.64810  0.02150  0.87420  Biso   1.000  H
  H122     1.0000 0.35190  0.52150  0.12580  Biso   1.000  H
  H123     1.0000 0.73480  0.11190  0.86560  Biso   1.000  H
  H124     1.0000 0.26520  0.61190  0.13440  Biso   1.000  H
  O13      1.0000 0.33900  0.55780  0.58850  Biso   1.000  O
  O14      1.0000 0.66100  0.05780  0.41150  Biso   1.000  O
  H125     1.0000 0.35000  0.50700  0.61600  Biso   1.000  H
  H126     1.0000 0.65000  0.00700  0.38400  Biso   1.000  H
  C49      1.0000 0.22500  0.62000  0.61300  Biso   1.000  C
  C50      1.0000 0.77500  0.12000  0.38700  Biso   1.000  C
  H127     1.0000 0.14630  0.57590  0.61620  Biso   1.000  H
  H128     1.0000 0.85370  0.07590  0.38380  Biso   1.000  H
  H129     1.0000 0.24740  0.65310  0.65540  Biso   1.000  H
  H130     1.0000 0.75260  0.15310  0.34460  Biso   1.000  H
  C51      1.0000 0.20700  0.69900  0.55970  Biso   1.000  C
  C52      1.0000 0.79300  0.19900  0.44030  Biso   1.000  C
  H131     1.0000 0.19140  0.66660  0.51580  Biso   1.000  H
  H132     1.0000 0.80860  0.16660  0.48420  Biso   1.000  H
  C53      1.0000 0.09600  0.77000  0.57700  Biso   1.000  C
  C54      1.0000 0.90400  0.27000  0.42300  Biso   1.000  C
  H133     1.0000 0.12240  0.81240  0.61590  Biso   1.000  H
  H134     1.0000 0.87760  0.31240  0.38410  Biso   1.000  H
  H135     1.0000 0.01900  0.72780  0.58760  Biso   1.000  H
  H136     1.0000 0.98100  0.22780  0.41240  Biso   1.000  H
  C55      1.0000 0.06000  0.84200  0.52000  Biso   1.000  C
  C56      1.0000 0.94000  0.34200  0.48000  Biso   1.000  C
  H137     1.0000 0.97770  0.81820  0.49780  Biso   1.000  H
  H138     1.0000 0.02230  0.31820  0.50220  Biso   1.000  H
  H139     1.0000 0.12910  0.84020  0.48900  Biso   1.000  H
  H140     1.0000 0.87090  0.34020  0.51100  Biso   1.000  H
  H141     1.0000 0.04890  0.91340  0.53550  Biso   1.000  H
  H142     1.0000 0.95110  0.41340  0.46450  Biso   1.000  H
  N13      1.0000 0.33400  0.75800  0.56630  Biso   1.000  N
  N14      1.0000 0.66600  0.25800  0.43370  Biso   1.000  N
  H143     1.0000 0.32740  0.80920  0.59750  Biso   1.000  H
  H144     1.0000 0.67260  0.30920  0.40250  Biso   1.000  H
  H145     1.0000 0.34710  0.79140  0.52750  Biso   1.000  H
  H146     1.0000 0.65290  0.29140  0.47250  Biso   1.000  H
  O15      1.0000 0.61600  0.56100  0.60010  Biso   1.000  O
  O16      1.0000 0.38400  0.06100  0.39990  Biso   1.000  O
  H147     1.0000 0.66700  0.55500  0.63500  Biso   1.000  H
  H148     1.0000 0.33300  0.05500  0.36500  Biso   1.000  H
  C57      1.0000 0.68800  0.52400  0.54700  Biso   1.000  C
  C58      1.0000 0.31200  0.02400  0.45300  Biso   1.000  C
  H149     1.0000 0.63290  0.52810  0.50640  Biso   1.000  H
  H150     1.0000 0.36710  0.02810  0.49360  Biso   1.000  H
  H151     1.0000 0.71450  0.45140  0.55460  Biso   1.000  H
  H152     1.0000 0.28550  0.95140  0.44540  Biso   1.000  H
  H153     1.0000 0.76580  0.56730  0.54280  Biso   1.000  H
  H154     1.0000 0.23420  0.06730  0.45720  Biso   1.000  H
