data_image0
_cell_length_a       23.3483
_cell_length_b       23.3483
_cell_length_c       23.3483
_cell_angle_alpha    90
_cell_angle_beta     90
_cell_angle_gamma    90

_symmetry_space_group_name_H-M    "P 1"
_symmetry_int_tables_number       1

loop_
  _symmetry_equiv_pos_as_xyz
  'x, y, z'

loop_
  _atom_site_label
  _atom_site_occupancy
  _atom_site_fract_x
  _atom_site_fract_y
  _atom_site_fract_z
  _atom_site_thermal_displace_type
  _atom_site_B_iso_or_equiv
  _atom_site_type_symbol
  Cu1      1.0000 0.50000  0.00000  0.93843  Biso   1.000  Cu
  Cu2      1.0000 0.50000  0.00000  0.06157  Biso   1.000  Cu
  Cu3      1.0000 0.93843  0.50000  0.00000  Biso   1.000  Cu
  Cu4      1.0000 0.06157  0.50000  0.00000  Biso   1.000  Cu
  Cu5      1.0000 0.00000  0.93843  0.50000  Biso   1.000  Cu
  Cu6      1.0000 0.00000  0.06157  0.50000  Biso   1.000  Cu
  Cu7      1.0000 0.00000  0.50000  0.43843  Biso   1.000  Cu
  Cu8      1.0000 0.00000  0.50000  0.56157  Biso   1.000  Cu
  Cu9      1.0000 0.43843  0.00000  0.50000  Biso   1.000  Cu
  Cu10     1.0000 0.56157  0.00000  0.50000  Biso   1.000  Cu
  Cu11     1.0000 0.50000  0.43843  0.00000  Biso   1.000  Cu
  Cu12     1.0000 0.50000  0.56157  0.00000  Biso   1.000  Cu
  Zn1      1.0000 0.29396  0.18241  0.76031  Biso   1.000  Zn
  Zn2      1.0000 0.70604  0.81759  0.76031  Biso   1.000  Zn
  Zn3      1.0000 0.70604  0.18241  0.23969  Biso   1.000  Zn
  Zn4      1.0000 0.29396  0.81759  0.23969  Biso   1.000  Zn
  Zn5      1.0000 0.76031  0.29396  0.18241  Biso   1.000  Zn
  Zn6      1.0000 0.76031  0.70604  0.81759  Biso   1.000  Zn
  Zn7      1.0000 0.23969  0.70604  0.18241  Biso   1.000  Zn
  Zn8      1.0000 0.23969  0.29396  0.81759  Biso   1.000  Zn
  Zn9      1.0000 0.18241  0.76031  0.29396  Biso   1.000  Zn
  Zn10     1.0000 0.81759  0.76031  0.70604  Biso   1.000  Zn
  Zn11     1.0000 0.18241  0.23969  0.70604  Biso   1.000  Zn
  Zn12     1.0000 0.81759  0.23969  0.29396  Biso   1.000  Zn
  Zn13     1.0000 0.79396  0.68241  0.26031  Biso   1.000  Zn
  Zn14     1.0000 0.20604  0.31759  0.26031  Biso   1.000  Zn
  Zn15     1.0000 0.20604  0.68241  0.73969  Biso   1.000  Zn
  Zn16     1.0000 0.79396  0.31759  0.73969  Biso   1.000  Zn
  Zn17     1.0000 0.26031  0.79396  0.68241  Biso   1.000  Zn
  Zn18     1.0000 0.26031  0.20604  0.31759  Biso   1.000  Zn
  Zn19     1.0000 0.73969  0.20604  0.68241  Biso   1.000  Zn
  Zn20     1.0000 0.73969  0.79396  0.31759  Biso   1.000  Zn
  Zn21     1.0000 0.68241  0.26031  0.79396  Biso   1.000  Zn
  Zn22     1.0000 0.31759  0.26031  0.20604  Biso   1.000  Zn
  Zn23     1.0000 0.68241  0.73969  0.20604  Biso   1.000  Zn
  Zn24     1.0000 0.31759  0.73969  0.79396  Biso   1.000  Zn
  O1       1.0000 0.43710  0.05404  0.95175  Biso   1.000  O
  O2       1.0000 0.56290  0.94596  0.95175  Biso   1.000  O
  O3       1.0000 0.56290  0.05404  0.04825  Biso   1.000  O
  O4       1.0000 0.43710  0.94596  0.04825  Biso   1.000  O
  O5       1.0000 0.95175  0.43710  0.05404  Biso   1.000  O
  O6       1.0000 0.95175  0.56290  0.94596  Biso   1.000  O
  O7       1.0000 0.04825  0.56290  0.05404  Biso   1.000  O
  O8       1.0000 0.04825  0.43710  0.94596  Biso   1.000  O
  O9       1.0000 0.05404  0.95175  0.43710  Biso   1.000  O
  O10      1.0000 0.94596  0.95175  0.56290  Biso   1.000  O
  O11      1.0000 0.05404  0.04825  0.56290  Biso   1.000  O
  O12      1.0000 0.94596  0.04825  0.43710  Biso   1.000  O
  O13      1.0000 0.93710  0.55404  0.45175  Biso   1.000  O
  O14      1.0000 0.06290  0.44596  0.45175  Biso   1.000  O
  O15      1.0000 0.06290  0.55404  0.54825  Biso   1.000  O
  O16      1.0000 0.93710  0.44596  0.54825  Biso   1.000  O
  O17      1.0000 0.45175  0.93710  0.55404  Biso   1.000  O
  O18      1.0000 0.45175  0.06290  0.44596  Biso   1.000  O
  O19      1.0000 0.54825  0.06290  0.55404  Biso   1.000  O
  O20      1.0000 0.54825  0.93710  0.44596  Biso   1.000  O
  O21      1.0000 0.55404  0.45175  0.93710  Biso   1.000  O
  O22      1.0000 0.44596  0.45175  0.06290  Biso   1.000  O
  O23      1.0000 0.55404  0.54825  0.06290  Biso   1.000  O
  O24      1.0000 0.44596  0.54825  0.93710  Biso   1.000  O
  O25      1.0000 0.44370  0.06521  0.04596  Biso   1.000  O
  O26      1.0000 0.55630  0.93479  0.04596  Biso   1.000  O
  O27      1.0000 0.55630  0.06521  0.95404  Biso   1.000  O
  O28      1.0000 0.44370  0.93479  0.95404  Biso   1.000  O
  O29      1.0000 0.04596  0.44370  0.06521  Biso   1.000  O
  O30      1.0000 0.04596  0.55630  0.93479  Biso   1.000  O
  O31      1.0000 0.95404  0.55630  0.06521  Biso   1.000  O
  O32      1.0000 0.95404  0.44370  0.93479  Biso   1.000  O
  O33      1.0000 0.06521  0.04596  0.44370  Biso   1.000  O
  O34      1.0000 0.93479  0.04596  0.55630  Biso   1.000  O
  O35      1.0000 0.06521  0.95404  0.55630  Biso   1.000  O
  O36      1.0000 0.93479  0.95404  0.44370  Biso   1.000  O
  O37      1.0000 0.94370  0.56521  0.54596  Biso   1.000  O
  O38      1.0000 0.05630  0.43479  0.54596  Biso   1.000  O
  O39      1.0000 0.05630  0.56521  0.45404  Biso   1.000  O
  O40      1.0000 0.94370  0.43479  0.45404  Biso   1.000  O
  O41      1.0000 0.54596  0.94370  0.56521  Biso   1.000  O
  O42      1.0000 0.54596  0.05630  0.43479  Biso   1.000  O
  O43      1.0000 0.45404  0.05630  0.56521  Biso   1.000  O
  O44      1.0000 0.45404  0.94370  0.43479  Biso   1.000  O
  O45      1.0000 0.56521  0.54596  0.94370  Biso   1.000  O
  O46      1.0000 0.43479  0.54596  0.05630  Biso   1.000  O
  O47      1.0000 0.56521  0.45404  0.05630  Biso   1.000  O
  O48      1.0000 0.43479  0.45404  0.94370  Biso   1.000  O
  O49      1.0000 0.30440  0.16936  0.84180  Biso   1.000  O
  O50      1.0000 0.69560  0.83064  0.84180  Biso   1.000  O
  O51      1.0000 0.69560  0.16936  0.15820  Biso   1.000  O
  O52      1.0000 0.30440  0.83064  0.15820  Biso   1.000  O
  O53      1.0000 0.84180  0.30440  0.16936  Biso   1.000  O
  O54      1.0000 0.84180  0.69560  0.83064  Biso   1.000  O
  O55      1.0000 0.15820  0.69560  0.16936  Biso   1.000  O
  O56      1.0000 0.15820  0.30440  0.83064  Biso   1.000  O
  O57      1.0000 0.16936  0.84180  0.30440  Biso   1.000  O
  O58      1.0000 0.83064  0.84180  0.69560  Biso   1.000  O
  O59      1.0000 0.16936  0.15820  0.69560  Biso   1.000  O
  O60      1.0000 0.83064  0.15820  0.30440  Biso   1.000  O
  O61      1.0000 0.80440  0.66936  0.34180  Biso   1.000  O
  O62      1.0000 0.19560  0.33064  0.34180  Biso   1.000  O
  O63      1.0000 0.19560  0.66936  0.65820  Biso   1.000  O
  O64      1.0000 0.80440  0.33064  0.65820  Biso   1.000  O
  O65      1.0000 0.34180  0.80440  0.66936  Biso   1.000  O
  O66      1.0000 0.34180  0.19560  0.33064  Biso   1.000  O
  O67      1.0000 0.65820  0.19560  0.66936  Biso   1.000  O
  O68      1.0000 0.65820  0.80440  0.33064  Biso   1.000  O
  O69      1.0000 0.66936  0.34180  0.80440  Biso   1.000  O
  O70      1.0000 0.33064  0.34180  0.19560  Biso   1.000  O
  O71      1.0000 0.66936  0.65820  0.19560  Biso   1.000  O
  O72      1.0000 0.33064  0.65820  0.80440  Biso   1.000  O
  O73      1.0000 0.26060  0.24353  0.88190  Biso   1.000  O
  O74      1.0000 0.73940  0.75647  0.88190  Biso   1.000  O
  O75      1.0000 0.73940  0.24353  0.11810  Biso   1.000  O
  O76      1.0000 0.26060  0.75647  0.11810  Biso   1.000  O
  O77      1.0000 0.88190  0.26060  0.24353  Biso   1.000  O
  O78      1.0000 0.88190  0.73940  0.75647  Biso   1.000  O
  O79      1.0000 0.11810  0.73940  0.24353  Biso   1.000  O
  O80      1.0000 0.11810  0.26060  0.75647  Biso   1.000  O
  O81      1.0000 0.24353  0.88190  0.26060  Biso   1.000  O
  O82      1.0000 0.75647  0.88190  0.73940  Biso   1.000  O
  O83      1.0000 0.24353  0.11810  0.73940  Biso   1.000  O
  O84      1.0000 0.75647  0.11810  0.26060  Biso   1.000  O
  O85      1.0000 0.76060  0.74353  0.38190  Biso   1.000  O
  O86      1.0000 0.23940  0.25647  0.38190  Biso   1.000  O
  O87      1.0000 0.23940  0.74353  0.61810  Biso   1.000  O
  O88      1.0000 0.76060  0.25647  0.61810  Biso   1.000  O
  O89      1.0000 0.38190  0.76060  0.74353  Biso   1.000  O
  O90      1.0000 0.38190  0.23940  0.25647  Biso   1.000  O
  O91      1.0000 0.61810  0.23940  0.74353  Biso   1.000  O
  O92      1.0000 0.61810  0.76060  0.25647  Biso   1.000  O
  O93      1.0000 0.74353  0.38190  0.76060  Biso   1.000  O
  O94      1.0000 0.25647  0.38190  0.23940  Biso   1.000  O
  O95      1.0000 0.74353  0.61810  0.23940  Biso   1.000  O
  O96      1.0000 0.25647  0.61810  0.76060  Biso   1.000  O
  O97      1.0000 0.27140  0.26550  0.09420  Biso   1.000  O
  O98      1.0000 0.72860  0.73450  0.09420  Biso   1.000  O
  O99      1.0000 0.72860  0.26550  0.90580  Biso   1.000  O
  O100     1.0000 0.27140  0.73450  0.90580  Biso   1.000  O
  O101     1.0000 0.09420  0.27140  0.26550  Biso   1.000  O
  O102     1.0000 0.09420  0.72860  0.73450  Biso   1.000  O
  O103     1.0000 0.90580  0.72860  0.26550  Biso   1.000  O
  O104     1.0000 0.90580  0.27140  0.73450  Biso   1.000  O
  O105     1.0000 0.26550  0.09420  0.27140  Biso   1.000  O
  O106     1.0000 0.73450  0.09420  0.72860  Biso   1.000  O
  O107     1.0000 0.26550  0.90580  0.72860  Biso   1.000  O
  O108     1.0000 0.73450  0.90580  0.27140  Biso   1.000  O
  O109     1.0000 0.77140  0.76550  0.59420  Biso   1.000  O
  O110     1.0000 0.22860  0.23450  0.59420  Biso   1.000  O
  O111     1.0000 0.22860  0.76550  0.40580  Biso   1.000  O
  O112     1.0000 0.77140  0.23450  0.40580  Biso   1.000  O
  O113     1.0000 0.59420  0.77140  0.76550  Biso   1.000  O
  O114     1.0000 0.59420  0.22860  0.23450  Biso   1.000  O
  O115     1.0000 0.40580  0.22860  0.76550  Biso   1.000  O
  O116     1.0000 0.40580  0.77140  0.23450  Biso   1.000  O
  O117     1.0000 0.76550  0.59420  0.77140  Biso   1.000  O
  O118     1.0000 0.23450  0.59420  0.22860  Biso   1.000  O
  O119     1.0000 0.76550  0.40580  0.22860  Biso   1.000  O
  O120     1.0000 0.23450  0.40580  0.77140  Biso   1.000  O
  O121     1.0000 0.33390  0.21420  0.14020  Biso   1.000  O
  O122     1.0000 0.66610  0.78580  0.14020  Biso   1.000  O
  O123     1.0000 0.66610  0.21420  0.85980  Biso   1.000  O
  O124     1.0000 0.33390  0.78580  0.85980  Biso   1.000  O
  O125     1.0000 0.14020  0.33390  0.21420  Biso   1.000  O
  O126     1.0000 0.14020  0.66610  0.78580  Biso   1.000  O
  O127     1.0000 0.85980  0.66610  0.21420  Biso   1.000  O
  O128     1.0000 0.85980  0.33390  0.78580  Biso   1.000  O
  O129     1.0000 0.21420  0.14020  0.33390  Biso   1.000  O
  O130     1.0000 0.78580  0.14020  0.66610  Biso   1.000  O
  O131     1.0000 0.21420  0.85980  0.66610  Biso   1.000  O
  O132     1.0000 0.78580  0.85980  0.33390  Biso   1.000  O
  O133     1.0000 0.83390  0.71420  0.64020  Biso   1.000  O
  O134     1.0000 0.16610  0.28580  0.64020  Biso   1.000  O
  O135     1.0000 0.16610  0.71420  0.35980  Biso   1.000  O
  O136     1.0000 0.83390  0.28580  0.35980  Biso   1.000  O
  O137     1.0000 0.64020  0.83390  0.71420  Biso   1.000  O
  O138     1.0000 0.64020  0.16610  0.28580  Biso   1.000  O
  O139     1.0000 0.35980  0.16610  0.71420  Biso   1.000  O
  O140     1.0000 0.35980  0.83390  0.28580  Biso   1.000  O
  O141     1.0000 0.71420  0.64020  0.83390  Biso   1.000  O
  O142     1.0000 0.28580  0.64020  0.16610  Biso   1.000  O
  O143     1.0000 0.71420  0.35980  0.16610  Biso   1.000  O
  O144     1.0000 0.28580  0.35980  0.83390  Biso   1.000  O
  O145     1.0000 0.50000  0.00000  0.85170  Biso   1.000  O
  O146     1.0000 0.50000  0.00000  0.14830  Biso   1.000  O
  O147     1.0000 0.85170  0.50000  0.00000  Biso   1.000  O
  O148     1.0000 0.14830  0.50000  0.00000  Biso   1.000  O
  O149     1.0000 0.00000  0.85170  0.50000  Biso   1.000  O
  O150     1.0000 0.00000  0.14830  0.50000  Biso   1.000  O
  O151     1.0000 0.00000  0.50000  0.35170  Biso   1.000  O
  O152     1.0000 0.00000  0.50000  0.64830  Biso   1.000  O
  O153     1.0000 0.35170  0.00000  0.50000  Biso   1.000  O
  O154     1.0000 0.64830  0.00000  0.50000  Biso   1.000  O
  O155     1.0000 0.50000  0.35170  0.00000  Biso   1.000  O
  O156     1.0000 0.50000  0.64830  0.00000  Biso   1.000  O
  O157     1.0000 0.25413  0.25413  0.74587  Biso   1.000  O
  O158     1.0000 0.74587  0.74587  0.74587  Biso   1.000  O
  O159     1.0000 0.74587  0.25413  0.25413  Biso   1.000  O
  O160     1.0000 0.25413  0.74587  0.25413  Biso   1.000  O
  O161     1.0000 0.75413  0.75413  0.24587  Biso   1.000  O
  O162     1.0000 0.24587  0.24587  0.24587  Biso   1.000  O
  O163     1.0000 0.24587  0.75413  0.75413  Biso   1.000  O
  O164     1.0000 0.75413  0.24587  0.75413  Biso   1.000  O
  C1       1.0000 0.37940  0.12350  0.99590  Biso   1.000  C
  C2       1.0000 0.62060  0.87650  0.99590  Biso   1.000  C
  C3       1.0000 0.62060  0.12350  0.00410  Biso   1.000  C
  C4       1.0000 0.37940  0.87650  0.00410  Biso   1.000  C
  C5       1.0000 0.99590  0.37940  0.12350  Biso   1.000  C
  C6       1.0000 0.99590  0.62060  0.87650  Biso   1.000  C
  C7       1.0000 0.00410  0.62060  0.12350  Biso   1.000  C
  C8       1.0000 0.00410  0.37940  0.87650  Biso   1.000  C
  C9       1.0000 0.12350  0.99590  0.37940  Biso   1.000  C
  C10      1.0000 0.87650  0.99590  0.62060  Biso   1.000  C
  C11      1.0000 0.12350  0.00410  0.62060  Biso   1.000  C
  C12      1.0000 0.87650  0.00410  0.37940  Biso   1.000  C
  C13      1.0000 0.87940  0.62350  0.49590  Biso   1.000  C
  C14      1.0000 0.12060  0.37650  0.49590  Biso   1.000  C
  C15      1.0000 0.12060  0.62350  0.50410  Biso   1.000  C
  C16      1.0000 0.87940  0.37650  0.50410  Biso   1.000  C
  C17      1.0000 0.49590  0.87940  0.62350  Biso   1.000  C
  C18      1.0000 0.49590  0.12060  0.37650  Biso   1.000  C
  C19      1.0000 0.50410  0.12060  0.62350  Biso   1.000  C
  C20      1.0000 0.50410  0.87940  0.37650  Biso   1.000  C
  C21      1.0000 0.62350  0.49590  0.87940  Biso   1.000  C
  C22      1.0000 0.37650  0.49590  0.12060  Biso   1.000  C
  C23      1.0000 0.62350  0.50410  0.12060  Biso   1.000  C
  C24      1.0000 0.37650  0.50410  0.87940  Biso   1.000  C
  C25      1.0000 0.35450  0.13880  0.94360  Biso   1.000  C
  C26      1.0000 0.64550  0.86120  0.94360  Biso   1.000  C
  C27      1.0000 0.64550  0.13880  0.05640  Biso   1.000  C
  C28      1.0000 0.35450  0.86120  0.05640  Biso   1.000  C
  C29      1.0000 0.94360  0.35450  0.13880  Biso   1.000  C
  C30      1.0000 0.94360  0.64550  0.86120  Biso   1.000  C
  C31      1.0000 0.05640  0.64550  0.13880  Biso   1.000  C
  C32      1.0000 0.05640  0.35450  0.86120  Biso   1.000  C
  C33      1.0000 0.13880  0.94360  0.35450  Biso   1.000  C
  C34      1.0000 0.86120  0.94360  0.64550  Biso   1.000  C
  C35      1.0000 0.13880  0.05640  0.64550  Biso   1.000  C
  C36      1.0000 0.86120  0.05640  0.35450  Biso   1.000  C
  C37      1.0000 0.85450  0.63880  0.44360  Biso   1.000  C
  C38      1.0000 0.14550  0.36120  0.44360  Biso   1.000  C
  C39      1.0000 0.14550  0.63880  0.55640  Biso   1.000  C
  C40      1.0000 0.85450  0.36120  0.55640  Biso   1.000  C
  C41      1.0000 0.44360  0.85450  0.63880  Biso   1.000  C
  C42      1.0000 0.44360  0.14550  0.36120  Biso   1.000  C
  C43      1.0000 0.55640  0.14550  0.63880  Biso   1.000  C
  C44      1.0000 0.55640  0.85450  0.36120  Biso   1.000  C
  C45      1.0000 0.63880  0.44360  0.85450  Biso   1.000  C
  C46      1.0000 0.36120  0.44360  0.14550  Biso   1.000  C
  C47      1.0000 0.63880  0.55640  0.14550  Biso   1.000  C
  C48      1.0000 0.36120  0.55640  0.85450  Biso   1.000  C
  H1       1.0000 0.36540  0.11980  0.91030  Biso   1.000  H
  H2       1.0000 0.63460  0.88020  0.91030  Biso   1.000  H
  H3       1.0000 0.63460  0.11980  0.08970  Biso   1.000  H
  H4       1.0000 0.36540  0.88020  0.08970  Biso   1.000  H
  H5       1.0000 0.91030  0.36540  0.11980  Biso   1.000  H
  H6       1.0000 0.91030  0.63460  0.88020  Biso   1.000  H
  H7       1.0000 0.08970  0.63460  0.11980  Biso   1.000  H
  H8       1.0000 0.08970  0.36540  0.88020  Biso   1.000  H
  H9       1.0000 0.11980  0.91030  0.36540  Biso   1.000  H
  H10      1.0000 0.88020  0.91030  0.63460  Biso   1.000  H
  H11      1.0000 0.11980  0.08970  0.63460  Biso   1.000  H
  H12      1.0000 0.88020  0.08970  0.36540  Biso   1.000  H
  H13      1.0000 0.86540  0.61980  0.41030  Biso   1.000  H
  H14      1.0000 0.13460  0.38020  0.41030  Biso   1.000  H
  H15      1.0000 0.13460  0.61980  0.58970  Biso   1.000  H
  H16      1.0000 0.86540  0.38020  0.58970  Biso   1.000  H
  H17      1.0000 0.41030  0.86540  0.61980  Biso   1.000  H
  H18      1.0000 0.41030  0.13460  0.38020  Biso   1.000  H
  H19      1.0000 0.58970  0.13460  0.61980  Biso   1.000  H
  H20      1.0000 0.58970  0.86540  0.38020  Biso   1.000  H
  H21      1.0000 0.61980  0.41030  0.86540  Biso   1.000  H
  H22      1.0000 0.38020  0.41030  0.13460  Biso   1.000  H
  H23      1.0000 0.61980  0.58970  0.13460  Biso   1.000  H
  H24      1.0000 0.38020  0.58970  0.86540  Biso   1.000  H
  C49      1.0000 0.31400  0.18180  0.94070  Biso   1.000  C
  C50      1.0000 0.68600  0.81820  0.94070  Biso   1.000  C
  C51      1.0000 0.68600  0.18180  0.05930  Biso   1.000  C
  C52      1.0000 0.31400  0.81820  0.05930  Biso   1.000  C
  C53      1.0000 0.94070  0.31400  0.18180  Biso   1.000  C
  C54      1.0000 0.94070  0.68600  0.81820  Biso   1.000  C
  C55      1.0000 0.05930  0.68600  0.18180  Biso   1.000  C
  C56      1.0000 0.05930  0.31400  0.81820  Biso   1.000  C
  C57      1.0000 0.18180  0.94070  0.31400  Biso   1.000  C
  C58      1.0000 0.81820  0.94070  0.68600  Biso   1.000  C
  C59      1.0000 0.18180  0.05930  0.68600  Biso   1.000  C
  C60      1.0000 0.81820  0.05930  0.31400  Biso   1.000  C
  C61      1.0000 0.81400  0.68180  0.44070  Biso   1.000  C
  C62      1.0000 0.18600  0.31820  0.44070  Biso   1.000  C
  C63      1.0000 0.18600  0.68180  0.55930  Biso   1.000  C
  C64      1.0000 0.81400  0.31820  0.55930  Biso   1.000  C
  C65      1.0000 0.44070  0.81400  0.68180  Biso   1.000  C
  C66      1.0000 0.44070  0.18600  0.31820  Biso   1.000  C
  C67      1.0000 0.55930  0.18600  0.68180  Biso   1.000  C
  C68      1.0000 0.55930  0.81400  0.31820  Biso   1.000  C
  C69      1.0000 0.68180  0.44070  0.81400  Biso   1.000  C
  C70      1.0000 0.31820  0.44070  0.18600  Biso   1.000  C
  C71      1.0000 0.68180  0.55930  0.18600  Biso   1.000  C
  C72      1.0000 0.31820  0.55930  0.81400  Biso   1.000  C
  C73      1.0000 0.29860  0.20970  0.98990  Biso   1.000  C
  C74      1.0000 0.70140  0.79030  0.98990  Biso   1.000  C
  C75      1.0000 0.70140  0.20970  0.01010  Biso   1.000  C
  C76      1.0000 0.29860  0.79030  0.01010  Biso   1.000  C
  C77      1.0000 0.98990  0.29860  0.20970  Biso   1.000  C
  C78      1.0000 0.98990  0.70140  0.79030  Biso   1.000  C
  C79      1.0000 0.01010  0.70140  0.20970  Biso   1.000  C
  C80      1.0000 0.01010  0.29860  0.79030  Biso   1.000  C
  C81      1.0000 0.20970  0.98990  0.29860  Biso   1.000  C
  C82      1.0000 0.79030  0.98990  0.70140  Biso   1.000  C
  C83      1.0000 0.20970  0.01010  0.70140  Biso   1.000  C
  C84      1.0000 0.79030  0.01010  0.29860  Biso   1.000  C
  C85      1.0000 0.79860  0.70970  0.48990  Biso   1.000  C
  C86      1.0000 0.20140  0.29030  0.48990  Biso   1.000  C
  C87      1.0000 0.20140  0.70970  0.51010  Biso   1.000  C
  C88      1.0000 0.79860  0.29030  0.51010  Biso   1.000  C
  C89      1.0000 0.48990  0.79860  0.70970  Biso   1.000  C
  C90      1.0000 0.48990  0.20140  0.29030  Biso   1.000  C
  C91      1.0000 0.51010  0.20140  0.70970  Biso   1.000  C
  C92      1.0000 0.51010  0.79860  0.29030  Biso   1.000  C
  C93      1.0000 0.70970  0.48990  0.79860  Biso   1.000  C
  C94      1.0000 0.29030  0.48990  0.20140  Biso   1.000  C
  C95      1.0000 0.70970  0.51010  0.20140  Biso   1.000  C
  C96      1.0000 0.29030  0.51010  0.79860  Biso   1.000  C
  H25      1.0000 0.27100  0.23830  0.98830  Biso   1.000  H
  H26      1.0000 0.72900  0.76170  0.98830  Biso   1.000  H
  H27      1.0000 0.72900  0.23830  0.01170  Biso   1.000  H
  H28      1.0000 0.27100  0.76170  0.01170  Biso   1.000  H
  H29      1.0000 0.98830  0.27100  0.23830  Biso   1.000  H
  H30      1.0000 0.98830  0.72900  0.76170  Biso   1.000  H
  H31      1.0000 0.01170  0.72900  0.23830  Biso   1.000  H
  H32      1.0000 0.01170  0.27100  0.76170  Biso   1.000  H
  H33      1.0000 0.23830  0.98830  0.27100  Biso   1.000  H
  H34      1.0000 0.76170  0.98830  0.72900  Biso   1.000  H
  H35      1.0000 0.23830  0.01170  0.72900  Biso   1.000  H
  H36      1.0000 0.76170  0.01170  0.27100  Biso   1.000  H
  H37      1.0000 0.77100  0.73830  0.48830  Biso   1.000  H
  H38      1.0000 0.22900  0.26170  0.48830  Biso   1.000  H
  H39      1.0000 0.22900  0.73830  0.51170  Biso   1.000  H
  H40      1.0000 0.77100  0.26170  0.51170  Biso   1.000  H
  H41      1.0000 0.48830  0.77100  0.73830  Biso   1.000  H
  H42      1.0000 0.48830  0.22900  0.26170  Biso   1.000  H
  H43      1.0000 0.51170  0.22900  0.73830  Biso   1.000  H
  H44      1.0000 0.51170  0.77100  0.26170  Biso   1.000  H
  H45      1.0000 0.73830  0.48830  0.77100  Biso   1.000  H
  H46      1.0000 0.26170  0.48830  0.22900  Biso   1.000  H
  H47      1.0000 0.73830  0.51170  0.22900  Biso   1.000  H
  H48      1.0000 0.26170  0.51170  0.77100  Biso   1.000  H
  C97      1.0000 0.32350  0.19610  0.04260  Biso   1.000  C
  C98      1.0000 0.67650  0.80390  0.04260  Biso   1.000  C
  C99      1.0000 0.67650  0.19610  0.95740  Biso   1.000  C
  C100     1.0000 0.32350  0.80390  0.95740  Biso   1.000  C
  C101     1.0000 0.04260  0.32350  0.19610  Biso   1.000  C
  C102     1.0000 0.04260  0.67650  0.80390  Biso   1.000  C
  C103     1.0000 0.95740  0.67650  0.19610  Biso   1.000  C
  C104     1.0000 0.95740  0.32350  0.80390  Biso   1.000  C
  C105     1.0000 0.19610  0.04260  0.32350  Biso   1.000  C
  C106     1.0000 0.80390  0.04260  0.67650  Biso   1.000  C
  C107     1.0000 0.19610  0.95740  0.67650  Biso   1.000  C
  C108     1.0000 0.80390  0.95740  0.32350  Biso   1.000  C
  C109     1.0000 0.82350  0.69610  0.54260  Biso   1.000  C
  C110     1.0000 0.17650  0.30390  0.54260  Biso   1.000  C
  C111     1.0000 0.17650  0.69610  0.45740  Biso   1.000  C
  C112     1.0000 0.82350  0.30390  0.45740  Biso   1.000  C
  C113     1.0000 0.54260  0.82350  0.69610  Biso   1.000  C
  C114     1.0000 0.54260  0.17650  0.30390  Biso   1.000  C
  C115     1.0000 0.45740  0.17650  0.69610  Biso   1.000  C
  C116     1.0000 0.45740  0.82350  0.30390  Biso   1.000  C
  C117     1.0000 0.69610  0.54260  0.82350  Biso   1.000  C
  C118     1.0000 0.30390  0.54260  0.17650  Biso   1.000  C
  C119     1.0000 0.69610  0.45740  0.17650  Biso   1.000  C
  C120     1.0000 0.30390  0.45740  0.82350  Biso   1.000  C
  C121     1.0000 0.36380  0.15370  0.04440  Biso   1.000  C
  C122     1.0000 0.63620  0.84630  0.04440  Biso   1.000  C
  C123     1.0000 0.63620  0.15370  0.95560  Biso   1.000  C
  C124     1.0000 0.36380  0.84630  0.95560  Biso   1.000  C
  C125     1.0000 0.04440  0.36380  0.15370  Biso   1.000  C
  C126     1.0000 0.04440  0.63620  0.84630  Biso   1.000  C
  C127     1.0000 0.95560  0.63620  0.15370  Biso   1.000  C
  C128     1.0000 0.95560  0.36380  0.84630  Biso   1.000  C
  C129     1.0000 0.15370  0.04440  0.36380  Biso   1.000  C
  C130     1.0000 0.84630  0.04440  0.63620  Biso   1.000  C
  C131     1.0000 0.15370  0.95560  0.63620  Biso   1.000  C
  C132     1.0000 0.84630  0.95560  0.36380  Biso   1.000  C
  C133     1.0000 0.86380  0.65370  0.54440  Biso   1.000  C
  C134     1.0000 0.13620  0.34630  0.54440  Biso   1.000  C
  C135     1.0000 0.13620  0.65370  0.45560  Biso   1.000  C
  C136     1.0000 0.86380  0.34630  0.45560  Biso   1.000  C
  C137     1.0000 0.54440  0.86380  0.65370  Biso   1.000  C
  C138     1.0000 0.54440  0.13620  0.34630  Biso   1.000  C
  C139     1.0000 0.45560  0.13620  0.65370  Biso   1.000  C
  C140     1.0000 0.45560  0.86380  0.34630  Biso   1.000  C
  C141     1.0000 0.65370  0.54440  0.86380  Biso   1.000  C
  C142     1.0000 0.34630  0.54440  0.13620  Biso   1.000  C
  C143     1.0000 0.65370  0.45560  0.13620  Biso   1.000  C
  C144     1.0000 0.34630  0.45560  0.86380  Biso   1.000  C
  H49      1.0000 0.38120  0.14490  0.07910  Biso   1.000  H
  H50      1.0000 0.61880  0.85510  0.07910  Biso   1.000  H
  H51      1.0000 0.61880  0.14490  0.92090  Biso   1.000  H
  H52      1.0000 0.38120  0.85510  0.92090  Biso   1.000  H
  H53      1.0000 0.07910  0.38120  0.14490  Biso   1.000  H
  H54      1.0000 0.07910  0.61880  0.85510  Biso   1.000  H
  H55      1.0000 0.92090  0.61880  0.14490  Biso   1.000  H
  H56      1.0000 0.92090  0.38120  0.85510  Biso   1.000  H
  H57      1.0000 0.14490  0.07910  0.38120  Biso   1.000  H
  H58      1.0000 0.85510  0.07910  0.61880  Biso   1.000  H
  H59      1.0000 0.14490  0.92090  0.61880  Biso   1.000  H
  H60      1.0000 0.85510  0.92090  0.38120  Biso   1.000  H
  H61      1.0000 0.88120  0.64490  0.57910  Biso   1.000  H
  H62      1.0000 0.11880  0.35510  0.57910  Biso   1.000  H
  H63      1.0000 0.11880  0.64490  0.42090  Biso   1.000  H
  H64      1.0000 0.88120  0.35510  0.42090  Biso   1.000  H
  H65      1.0000 0.57910  0.88120  0.64490  Biso   1.000  H
  H66      1.0000 0.57910  0.11880  0.35510  Biso   1.000  H
  H67      1.0000 0.42090  0.11880  0.64490  Biso   1.000  H
  H68      1.0000 0.42090  0.88120  0.35510  Biso   1.000  H
  H69      1.0000 0.64490  0.57910  0.88120  Biso   1.000  H
  H70      1.0000 0.35510  0.57910  0.11880  Biso   1.000  H
  H71      1.0000 0.64490  0.42090  0.11880  Biso   1.000  H
  H72      1.0000 0.35510  0.42090  0.88120  Biso   1.000  H
  C145     1.0000 0.42330  0.07680  0.99840  Biso   1.000  C
  C146     1.0000 0.57670  0.92320  0.99840  Biso   1.000  C
  C147     1.0000 0.57670  0.07680  0.00160  Biso   1.000  C
  C148     1.0000 0.42330  0.92320  0.00160  Biso   1.000  C
  C149     1.0000 0.99840  0.42330  0.07680  Biso   1.000  C
  C150     1.0000 0.99840  0.57670  0.92320  Biso   1.000  C
  C151     1.0000 0.00160  0.57670  0.07680  Biso   1.000  C
  C152     1.0000 0.00160  0.42330  0.92320  Biso   1.000  C
  C153     1.0000 0.07680  0.99840  0.42330  Biso   1.000  C
  C154     1.0000 0.92320  0.99840  0.57670  Biso   1.000  C
  C155     1.0000 0.07680  0.00160  0.57670  Biso   1.000  C
  C156     1.0000 0.92320  0.00160  0.42330  Biso   1.000  C
  C157     1.0000 0.92330  0.57680  0.49840  Biso   1.000  C
  C158     1.0000 0.07670  0.42320  0.49840  Biso   1.000  C
  C159     1.0000 0.07670  0.57680  0.50160  Biso   1.000  C
  C160     1.0000 0.92330  0.42320  0.50160  Biso   1.000  C
  C161     1.0000 0.49840  0.92330  0.57680  Biso   1.000  C
  C162     1.0000 0.49840  0.07670  0.42320  Biso   1.000  C
  C163     1.0000 0.50160  0.07670  0.57680  Biso   1.000  C
  C164     1.0000 0.50160  0.92330  0.42320  Biso   1.000  C
  C165     1.0000 0.57680  0.49840  0.92330  Biso   1.000  C
  C166     1.0000 0.42320  0.49840  0.07670  Biso   1.000  C
  C167     1.0000 0.57680  0.50160  0.07670  Biso   1.000  C
  C168     1.0000 0.42320  0.50160  0.92330  Biso   1.000  C
  C169     1.0000 0.29190  0.19960  0.88280  Biso   1.000  C
  C170     1.0000 0.70810  0.80040  0.88280  Biso   1.000  C
  C171     1.0000 0.70810  0.19960  0.11720  Biso   1.000  C
  C172     1.0000 0.29190  0.80040  0.11720  Biso   1.000  C
  C173     1.0000 0.88280  0.29190  0.19960  Biso   1.000  C
  C174     1.0000 0.88280  0.70810  0.80040  Biso   1.000  C
  C175     1.0000 0.11720  0.70810  0.19960  Biso   1.000  C
  C176     1.0000 0.11720  0.29190  0.80040  Biso   1.000  C
  C177     1.0000 0.19960  0.88280  0.29190  Biso   1.000  C
  C178     1.0000 0.80040  0.88280  0.70810  Biso   1.000  C
  C179     1.0000 0.19960  0.11720  0.70810  Biso   1.000  C
  C180     1.0000 0.80040  0.11720  0.29190  Biso   1.000  C
  C181     1.0000 0.79190  0.69960  0.38280  Biso   1.000  C
  C182     1.0000 0.20810  0.30040  0.38280  Biso   1.000  C
  C183     1.0000 0.20810  0.69960  0.61720  Biso   1.000  C
  C184     1.0000 0.79190  0.30040  0.61720  Biso   1.000  C
  C185     1.0000 0.38280  0.79190  0.69960  Biso   1.000  C
  C186     1.0000 0.38280  0.20810  0.30040  Biso   1.000  C
  C187     1.0000 0.61720  0.20810  0.69960  Biso   1.000  C
  C188     1.0000 0.61720  0.79190  0.30040  Biso   1.000  C
  C189     1.0000 0.69960  0.38280  0.79190  Biso   1.000  C
  C190     1.0000 0.30040  0.38280  0.20810  Biso   1.000  C
  C191     1.0000 0.69960  0.61720  0.20810  Biso   1.000  C
  C192     1.0000 0.30040  0.61720  0.79190  Biso   1.000  C
  C193     1.0000 0.30580  0.22760  0.09490  Biso   1.000  C
  C194     1.0000 0.69420  0.77240  0.09490  Biso   1.000  C
  C195     1.0000 0.69420  0.22760  0.90510  Biso   1.000  C
  C196     1.0000 0.30580  0.77240  0.90510  Biso   1.000  C
  C197     1.0000 0.09490  0.30580  0.22760  Biso   1.000  C
  C198     1.0000 0.09490  0.69420  0.77240  Biso   1.000  C
  C199     1.0000 0.90510  0.69420  0.22760  Biso   1.000  C
  C200     1.0000 0.90510  0.30580  0.77240  Biso   1.000  C
  C201     1.0000 0.22760  0.09490  0.30580  Biso   1.000  C
  C202     1.0000 0.77240  0.09490  0.69420  Biso   1.000  C
  C203     1.0000 0.22760  0.90510  0.69420  Biso   1.000  C
  C204     1.0000 0.77240  0.90510  0.30580  Biso   1.000  C
  C205     1.0000 0.80580  0.72760  0.59490  Biso   1.000  C
  C206     1.0000 0.19420  0.27240  0.59490  Biso   1.000  C
  C207     1.0000 0.19420  0.72760  0.40510  Biso   1.000  C
  C208     1.0000 0.80580  0.27240  0.40510  Biso   1.000  C
  C209     1.0000 0.59490  0.80580  0.72760  Biso   1.000  C
  C210     1.0000 0.59490  0.19420  0.27240  Biso   1.000  C
  C211     1.0000 0.40510  0.19420  0.72760  Biso   1.000  C
  C212     1.0000 0.40510  0.80580  0.27240  Biso   1.000  C
  C213     1.0000 0.72760  0.59490  0.80580  Biso   1.000  C
  C214     1.0000 0.27240  0.59490  0.19420  Biso   1.000  C
  C215     1.0000 0.72760  0.40510  0.19420  Biso   1.000  C
  C216     1.0000 0.27240  0.40510  0.80580  Biso   1.000  C
