data_image0
_cell_length_a       10.676
_cell_length_b       10.22
_cell_length_c       21.095
_cell_angle_alpha    90
_cell_angle_beta     100.699
_cell_angle_gamma    90

_symmetry_space_group_name_H-M    "P 1"
_symmetry_int_tables_number       1

loop_
  _symmetry_equiv_pos_as_xyz
  'x, y, z'

loop_
  _atom_site_label
  _atom_site_occupancy
  _atom_site_fract_x
  _atom_site_fract_y
  _atom_site_fract_z
  _atom_site_thermal_displace_type
  _atom_site_B_iso_or_equiv
  _atom_site_type_symbol
  Cu1      1.0000 0.32442  0.72980  0.19993  Biso   1.000  Cu
  Cu2      1.0000 0.17558  0.22980  0.30007  Biso   1.000  Cu
  Cu3      1.0000 0.67558  0.27020  0.80007  Biso   1.000  Cu
  Cu4      1.0000 0.82442  0.77020  0.69993  Biso   1.000  Cu
  S1       1.0000 0.71010  0.45550  0.03241  Biso   1.000  S
  S2       1.0000 0.78990  0.95550  0.46759  Biso   1.000  S
  S3       1.0000 0.28990  0.54450  0.96759  Biso   1.000  S
  S4       1.0000 0.21010  0.04450  0.53241  Biso   1.000  S
  S5       1.0000 0.80280  0.59820  0.99339  Biso   1.000  S
  S6       1.0000 0.69720  0.09820  0.50661  Biso   1.000  S
  S7       1.0000 0.19720  0.40180  0.00661  Biso   1.000  S
  S8       1.0000 0.30280  0.90180  0.49339  Biso   1.000  S
  O1       1.0000 0.46740  0.75820  0.26980  Biso   1.000  O
  O2       1.0000 0.03260  0.25820  0.23020  Biso   1.000  O
  O3       1.0000 0.53260  0.24180  0.73020  Biso   1.000  O
  O4       1.0000 0.96740  0.74180  0.76980  Biso   1.000  O
  O5       1.0000 0.51240  0.73820  0.37680  Biso   1.000  O
  O6       1.0000 0.98760  0.23820  0.12320  Biso   1.000  O
  O7       1.0000 0.48760  0.26180  0.62320  Biso   1.000  O
  O8       1.0000 0.01240  0.76180  0.87680  Biso   1.000  O
  O9       1.0000 0.22320  0.79000  0.26490  Biso   1.000  O
  O10      1.0000 0.27680  0.29000  0.23510  Biso   1.000  O
  O11      1.0000 0.77680  0.21000  0.73510  Biso   1.000  O
  O12      1.0000 0.72320  0.71000  0.76490  Biso   1.000  O
  H1       1.0000 0.20000  0.86800  0.26300  Biso   1.000  H
  H2       1.0000 0.30000  0.36800  0.23700  Biso   1.000  H
  H3       1.0000 0.80000  0.13200  0.73700  Biso   1.000  H
  H4       1.0000 0.70000  0.63200  0.76300  Biso   1.000  H
  O13      1.0000 0.29460  0.52340  0.27430  Biso   1.000  O
  O14      1.0000 0.20540  0.02340  0.22570  Biso   1.000  O
  O15      1.0000 0.70540  0.47660  0.72570  Biso   1.000  O
  O16      1.0000 0.79460  0.97660  0.77430  Biso   1.000  O
  O17      1.0000 0.17840  0.43700  0.34130  Biso   1.000  O
  O18      1.0000 0.32160  0.93700  0.15870  Biso   1.000  O
  O19      1.0000 0.82160  0.56300  0.65870  Biso   1.000  O
  O20      1.0000 0.67840  0.06300  0.84130  Biso   1.000  O
  N1       1.0000 0.44040  0.64880  0.14620  Biso   1.000  N
  N2       1.0000 0.05960  0.14880  0.35380  Biso   1.000  N
  N3       1.0000 0.55960  0.35120  0.85380  Biso   1.000  N
  N4       1.0000 0.94040  0.85120  0.64620  Biso   1.000  N
  N5       1.0000 0.16630  0.68490  0.13780  Biso   1.000  N
  N6       1.0000 0.33370  0.18490  0.36220  Biso   1.000  N
  N7       1.0000 0.83370  0.31510  0.86220  Biso   1.000  N
  N8       1.0000 0.66630  0.81510  0.63780  Biso   1.000  N
  C1       1.0000 0.45970  0.52290  0.14640  Biso   1.000  C
  C2       1.0000 0.04030  0.02290  0.35360  Biso   1.000  C
  C3       1.0000 0.54030  0.47710  0.85360  Biso   1.000  C
  C4       1.0000 0.95970  0.97710  0.64640  Biso   1.000  C
  H5       1.0000 0.41430  0.47040  0.17020  Biso   1.000  H
  H6       1.0000 0.08570  0.97040  0.32980  Biso   1.000  H
  H7       1.0000 0.58570  0.52960  0.82980  Biso   1.000  H
  H8       1.0000 0.91430  0.02960  0.67020  Biso   1.000  H
  C5       1.0000 0.54310  0.46390  0.11350  Biso   1.000  C
  C6       1.0000 0.95690  0.96390  0.38650  Biso   1.000  C
  C7       1.0000 0.45690  0.53610  0.88650  Biso   1.000  C
  C8       1.0000 0.04310  0.03610  0.61350  Biso   1.000  C
  H9       1.0000 0.55580  0.37390  0.11590  Biso   1.000  H
  H10      1.0000 0.94420  0.87390  0.38410  Biso   1.000  H
  H11      1.0000 0.44420  0.62610  0.88410  Biso   1.000  H
  H12      1.0000 0.05580  0.12610  0.61590  Biso   1.000  H
  C9       1.0000 0.60850  0.54080  0.07660  Biso   1.000  C
  C10      1.0000 0.89150  0.04080  0.42340  Biso   1.000  C
  C11      1.0000 0.39150  0.45920  0.92340  Biso   1.000  C
  C12      1.0000 0.10850  0.95920  0.57660  Biso   1.000  C
  C13      1.0000 0.59050  0.67310  0.07620  Biso   1.000  C
  C14      1.0000 0.90950  0.17310  0.42380  Biso   1.000  C
  C15      1.0000 0.40950  0.32690  0.92380  Biso   1.000  C
  C16      1.0000 0.09050  0.82690  0.57620  Biso   1.000  C
  H13      1.0000 0.63490  0.72830  0.05320  Biso   1.000  H
  H14      1.0000 0.86510  0.22830  0.44680  Biso   1.000  H
  H15      1.0000 0.36510  0.27170  0.94680  Biso   1.000  H
  H16      1.0000 0.13490  0.77170  0.55320  Biso   1.000  H
  C17      1.0000 0.50490  0.72160  0.11110  Biso   1.000  C
  C18      1.0000 0.99510  0.22160  0.38890  Biso   1.000  C
  C19      1.0000 0.49510  0.27840  0.88890  Biso   1.000  C
  C20      1.0000 0.00490  0.77840  0.61110  Biso   1.000  C
  H17      1.0000 0.49080  0.81150  0.11010  Biso   1.000  H
  H18      1.0000 0.00920  0.31150  0.38990  Biso   1.000  H
  H19      1.0000 0.50920  0.18850  0.88990  Biso   1.000  H
  H20      1.0000 0.99080  0.68850  0.61010  Biso   1.000  H
  C21      1.0000 0.94270  0.62780  0.05180  Biso   1.000  C
  C22      1.0000 0.55730  0.12780  0.44820  Biso   1.000  C
  C23      1.0000 0.05730  0.37220  0.94820  Biso   1.000  C
  C24      1.0000 0.44270  0.87220  0.55180  Biso   1.000  C
  C25      1.0000 0.96000  0.58210  0.11400  Biso   1.000  C
  C26      1.0000 0.54000  0.08210  0.38600  Biso   1.000  C
  C27      1.0000 0.04000  0.41790  0.88600  Biso   1.000  C
  C28      1.0000 0.46000  0.91790  0.61400  Biso   1.000  C
  H21      1.0000 0.89780  0.53210  0.12820  Biso   1.000  H
  H22      1.0000 0.60220  0.03210  0.37180  Biso   1.000  H
  H23      1.0000 0.10220  0.46790  0.87180  Biso   1.000  H
  H24      1.0000 0.39780  0.96790  0.62820  Biso   1.000  H
  C29      1.0000 0.07190  0.61270  0.15460  Biso   1.000  C
  C30      1.0000 0.42810  0.11270  0.34540  Biso   1.000  C
  C31      1.0000 0.92810  0.38730  0.84540  Biso   1.000  C
  C32      1.0000 0.57190  0.88730  0.65460  Biso   1.000  C
  H25      1.0000 0.08360  0.58140  0.19670  Biso   1.000  H
  H26      1.0000 0.41640  0.08140  0.30330  Biso   1.000  H
  H27      1.0000 0.91640  0.41860  0.80330  Biso   1.000  H
  H28      1.0000 0.58360  0.91860  0.69670  Biso   1.000  H
  C33      1.0000 0.14630  0.72810  0.07650  Biso   1.000  C
  C34      1.0000 0.35370  0.22810  0.42350  Biso   1.000  C
  C35      1.0000 0.85370  0.27190  0.92350  Biso   1.000  C
  C36      1.0000 0.64630  0.77190  0.57650  Biso   1.000  C
  H29      1.0000 0.20960  0.77770  0.06320  Biso   1.000  H
  H30      1.0000 0.29040  0.27770  0.43680  Biso   1.000  H
  H31      1.0000 0.79040  0.22230  0.93680  Biso   1.000  H
  H32      1.0000 0.70960  0.72230  0.56320  Biso   1.000  H
  C37      1.0000 0.03520  0.70210  0.03220  Biso   1.000  C
  C38      1.0000 0.46480  0.20210  0.46780  Biso   1.000  C
  C39      1.0000 0.96480  0.29790  0.96780  Biso   1.000  C
  C40      1.0000 0.53520  0.79790  0.53220  Biso   1.000  C
  H33      1.0000 0.02410  0.73440  0.99030  Biso   1.000  H
  H34      1.0000 0.47590  0.23440  0.50970  Biso   1.000  H
  H35      1.0000 0.97590  0.26560  0.00970  Biso   1.000  H
  H36      1.0000 0.52410  0.76560  0.49030  Biso   1.000  H
  C41      1.0000 0.43630  0.75360  0.32540  Biso   1.000  C
  C42      1.0000 0.06370  0.25360  0.17460  Biso   1.000  C
  C43      1.0000 0.56370  0.24640  0.67460  Biso   1.000  C
  C44      1.0000 0.93630  0.74640  0.82540  Biso   1.000  C
  C45      1.0000 0.29750  0.77120  0.32730  Biso   1.000  C
  C46      1.0000 0.20250  0.27120  0.17270  Biso   1.000  C
  C47      1.0000 0.70250  0.22880  0.67270  Biso   1.000  C
  C48      1.0000 0.79750  0.72880  0.82730  Biso   1.000  C
  H37      1.0000 0.28900  0.84990  0.35270  Biso   1.000  H
  H38      1.0000 0.21100  0.34990  0.14730  Biso   1.000  H
  H39      1.0000 0.71100  0.15010  0.64730  Biso   1.000  H
  H40      1.0000 0.78900  0.65010  0.85270  Biso   1.000  H
  C49      1.0000 0.23900  0.65660  0.35860  Biso   1.000  C
  C50      1.0000 0.26100  0.15660  0.14140  Biso   1.000  C
  C51      1.0000 0.76100  0.34340  0.64140  Biso   1.000  C
  C52      1.0000 0.73900  0.84340  0.85860  Biso   1.000  C
  H41      1.0000 0.28670  0.64370  0.40200  Biso   1.000  H
  H42      1.0000 0.21330  0.14370  0.09800  Biso   1.000  H
  H43      1.0000 0.71330  0.35630  0.59800  Biso   1.000  H
  H44      1.0000 0.78670  0.85630  0.90200  Biso   1.000  H
  H45      1.0000 0.15210  0.67870  0.36200  Biso   1.000  H
  H46      1.0000 0.34790  0.17870  0.13800  Biso   1.000  H
  H47      1.0000 0.84790  0.32130  0.63800  Biso   1.000  H
  H48      1.0000 0.65210  0.82130  0.86200  Biso   1.000  H
  C53      1.0000 0.23830  0.52900  0.32110  Biso   1.000  C
  C54      1.0000 0.26170  0.02900  0.17890  Biso   1.000  C
  C55      1.0000 0.76170  0.47100  0.67890  Biso   1.000  C
  C56      1.0000 0.73830  0.97100  0.82110  Biso   1.000  C
  O21      1.0000 0.82390  0.42100  0.24490  Biso   1.000  O
  O22      1.0000 0.67610  0.92100  0.25510  Biso   1.000  O
  O23      1.0000 0.17610  0.57900  0.75510  Biso   1.000  O
  O24      1.0000 0.32390  0.07900  0.74490  Biso   1.000  O
  O25      1.0000 0.88100  0.99270  0.04470  Biso   1.000  O
  O26      1.0000 0.61900  0.49270  0.45530  Biso   1.000  O
  O27      1.0000 0.11900  0.00730  0.95530  Biso   1.000  O
  O28      1.0000 0.38100  0.50730  0.54470  Biso   1.000  O
  O29      1.0000 0.66700  0.13800  0.11470  Biso   1.000  O
  O30      1.0000 0.83300  0.63800  0.38530  Biso   1.000  O
  O31      1.0000 0.33300  0.86200  0.88530  Biso   1.000  O
  O32      1.0000 0.16700  0.36200  0.61470  Biso   1.000  O
  O33      1.0000 0.36470  0.97450  0.00180  Biso   1.000  O
  O34      1.0000 0.13530  0.47450  0.49820  Biso   1.000  O
  O35      1.0000 0.63530  0.02550  0.99820  Biso   1.000  O
  O36      1.0000 0.86470  0.52550  0.50180  Biso   1.000  O
  O37      1.0000 0.62000  0.20000  0.22700  Biso   1.000  O
  O38      1.0000 0.88000  0.70000  0.27300  Biso   1.000  O
  O39      1.0000 0.38000  0.80000  0.77300  Biso   1.000  O
  O40      1.0000 0.12000  0.30000  0.72700  Biso   1.000  O
  O41      1.0000 0.87100  0.92600  0.18030  Biso   1.000  O
  O42      1.0000 0.62900  0.42600  0.31970  Biso   1.000  O
  O43      1.0000 0.12900  0.07400  0.81970  Biso   1.000  O
  O44      1.0000 0.37100  0.57400  0.68030  Biso   1.000  O
