data_image0
_cell_length_a       9.8935
_cell_length_b       5.7328
_cell_length_c       20.455
_cell_angle_alpha    90
_cell_angle_beta     99.489
_cell_angle_gamma    90

_symmetry_space_group_name_H-M    "P 1"
_symmetry_int_tables_number       1

loop_
  _symmetry_equiv_pos_as_xyz
  'x, y, z'

loop_
  _atom_site_label
  _atom_site_occupancy
  _atom_site_fract_x
  _atom_site_fract_y
  _atom_site_fract_z
  _atom_site_thermal_displace_type
  _atom_site_B_iso_or_equiv
  _atom_site_type_symbol
  Cu1      1.0000 0.50000  0.53421  0.75000  Biso   1.000  Cu
  Cu2      1.0000 0.50000  0.46579  0.25000  Biso   1.000  Cu
  O1       1.0000 0.61330  0.55230  0.68100  Biso   1.000  O
  O2       1.0000 0.38670  0.55230  0.81900  Biso   1.000  O
  O3       1.0000 0.38670  0.44770  0.31900  Biso   1.000  O
  O4       1.0000 0.61330  0.44770  0.18100  Biso   1.000  O
  N1       1.0000 0.33240  0.53870  0.67832  Biso   1.000  N
  N2       1.0000 0.66760  0.53870  0.82168  Biso   1.000  N
  N3       1.0000 0.66760  0.46130  0.32168  Biso   1.000  N
  N4       1.0000 0.33240  0.46130  0.17832  Biso   1.000  N
  O5       1.0000 0.50000  0.13980  0.75000  Biso   1.000  O
  O6       1.0000 0.50000  0.86020  0.25000  Biso   1.000  O
  H1       1.0000 0.42290  0.07410  0.76500  Biso   1.000  H
  H2       1.0000 0.57710  0.07410  0.73500  Biso   1.000  H
  H3       1.0000 0.57710  0.92590  0.23500  Biso   1.000  H
  H4       1.0000 0.42290  0.92590  0.26500  Biso   1.000  H
  O7       1.0000 0.70940  0.89250  0.71315  Biso   1.000  O
  O8       1.0000 0.29060  0.89250  0.78685  Biso   1.000  O
  O9       1.0000 0.29060  0.10750  0.28685  Biso   1.000  O
  O10      1.0000 0.70940  0.10750  0.21315  Biso   1.000  O
  N5       1.0000 0.99830  0.44550  0.52417  Biso   1.000  N
  N6       1.0000 0.00170  0.44550  0.97583  Biso   1.000  N
  N7       1.0000 0.00170  0.55450  0.47583  Biso   1.000  N
  N8       1.0000 0.99830  0.55450  0.02417  Biso   1.000  N
  C1       1.0000 0.69380  0.72040  0.67587  Biso   1.000  C
  C2       1.0000 0.30620  0.72040  0.82413  Biso   1.000  C
  C3       1.0000 0.30620  0.27960  0.32413  Biso   1.000  C
  C4       1.0000 0.69380  0.27960  0.17587  Biso   1.000  C
  C5       1.0000 0.32000  0.68050  0.62642  Biso   1.000  C
  C6       1.0000 0.68000  0.68050  0.87358  Biso   1.000  C
  C7       1.0000 0.68000  0.31950  0.37358  Biso   1.000  C
  C8       1.0000 0.32000  0.31950  0.12642  Biso   1.000  C
  H5       1.0000 0.38650  0.79410  0.62500  Biso   1.000  H
  H6       1.0000 0.61350  0.79410  0.87500  Biso   1.000  H
  H7       1.0000 0.61350  0.20590  0.37500  Biso   1.000  H
  H8       1.0000 0.38650  0.20590  0.12500  Biso   1.000  H
  C9       1.0000 0.11410  0.49610  0.57617  Biso   1.000  C
  C10      1.0000 0.88590  0.49610  0.92383  Biso   1.000  C
  C11      1.0000 0.88590  0.50390  0.42383  Biso   1.000  C
  C12      1.0000 0.11410  0.50390  0.07617  Biso   1.000  C
  C13      1.0000 0.21160  0.66510  0.57427  Biso   1.000  C
  C14      1.0000 0.78840  0.66510  0.92573  Biso   1.000  C
  C15      1.0000 0.78840  0.33490  0.42573  Biso   1.000  C
  C16      1.0000 0.21160  0.33490  0.07427  Biso   1.000  C
  H9       1.0000 0.20490  0.76750  0.53860  Biso   1.000  H
  H10      1.0000 0.79510  0.76750  0.96140  Biso   1.000  H
  H11      1.0000 0.79510  0.23250  0.46140  Biso   1.000  H
  H12      1.0000 0.20490  0.23250  0.03860  Biso   1.000  H
  C17      1.0000 0.23380  0.38340  0.68050  Biso   1.000  C
  C18      1.0000 0.76620  0.38340  0.81950  Biso   1.000  C
  C19      1.0000 0.76620  0.61660  0.31950  Biso   1.000  C
  C20      1.0000 0.23380  0.61660  0.18050  Biso   1.000  C
  H13      1.0000 0.23960  0.28790  0.71760  Biso   1.000  H
  H14      1.0000 0.76040  0.28790  0.78240  Biso   1.000  H
  H15      1.0000 0.76040  0.71210  0.28240  Biso   1.000  H
  H16      1.0000 0.23960  0.71210  0.21760  Biso   1.000  H
  C21      1.0000 0.12310  0.35680  0.63050  Biso   1.000  C
  C22      1.0000 0.87690  0.35680  0.86950  Biso   1.000  C
  C23      1.0000 0.87690  0.64320  0.36950  Biso   1.000  C
  C24      1.0000 0.12310  0.64320  0.13050  Biso   1.000  C
  H17      1.0000 0.05600  0.24580  0.63380  Biso   1.000  H
  H18      1.0000 0.94400  0.24580  0.86620  Biso   1.000  H
  H19      1.0000 0.94400  0.75420  0.36620  Biso   1.000  H
  H20      1.0000 0.05600  0.75420  0.13380  Biso   1.000  H
  C25      1.0000 0.63120  0.96250  0.53830  Biso   1.000  C
  C26      1.0000 0.36880  0.96250  0.96170  Biso   1.000  C
  C27      1.0000 0.36880  0.03750  0.46170  Biso   1.000  C
  C28      1.0000 0.63120  0.03750  0.03830  Biso   1.000  C
  C29      1.0000 0.58190  0.82880  0.48330  Biso   1.000  C
  C30      1.0000 0.41810  0.82880  0.01670  Biso   1.000  C
  C31      1.0000 0.41810  0.17120  0.51670  Biso   1.000  C
  C32      1.0000 0.58190  0.17120  0.98330  Biso   1.000  C
  H21      1.0000 0.63650  0.70960  0.47120  Biso   1.000  H
  H22      1.0000 0.36350  0.70960  0.02880  Biso   1.000  H
  H23      1.0000 0.36350  0.29040  0.52880  Biso   1.000  H
  H24      1.0000 0.63650  0.29040  0.97120  Biso   1.000  H
  C33      1.0000 0.45480  0.86570  0.44590  Biso   1.000  C
  C34      1.0000 0.54520  0.86570  0.05410  Biso   1.000  C
  C35      1.0000 0.54520  0.13430  0.55410  Biso   1.000  C
  C36      1.0000 0.45480  0.13430  0.94590  Biso   1.000  C
  H25      1.0000 0.42650  0.77230  0.40900  Biso   1.000  H
  H26      1.0000 0.57350  0.77230  0.09100  Biso   1.000  H
  H27      1.0000 0.57350  0.22770  0.59100  Biso   1.000  H
  H28      1.0000 0.42650  0.22770  0.90900  Biso   1.000  H
  C37      1.0000 0.77970  0.70170  0.62140  Biso   1.000  C
  C38      1.0000 0.22030  0.70170  0.87860  Biso   1.000  C
  C39      1.0000 0.22030  0.29830  0.37860  Biso   1.000  C
  C40      1.0000 0.77970  0.29830  0.12140  Biso   1.000  C
  H29      1.0000 0.74880  0.56890  0.59350  Biso   1.000  H
  H30      1.0000 0.25120  0.56890  0.90650  Biso   1.000  H
  H31      1.0000 0.25120  0.43110  0.40650  Biso   1.000  H
  H32      1.0000 0.74880  0.43110  0.09350  Biso   1.000  H
  H33      1.0000 0.87450  0.67450  0.64100  Biso   1.000  H
  H34      1.0000 0.12550  0.67450  0.85900  Biso   1.000  H
  H35      1.0000 0.12550  0.32550  0.35900  Biso   1.000  H
  H36      1.0000 0.87450  0.32550  0.14100  Biso   1.000  H
  C41      1.0000 0.77130  0.92110  0.57870  Biso   1.000  C
  C42      1.0000 0.22870  0.92110  0.92130  Biso   1.000  C
  C43      1.0000 0.22870  0.07890  0.42130  Biso   1.000  C
  C44      1.0000 0.77130  0.07890  0.07870  Biso   1.000  C
  H37      1.0000 0.79600  0.05480  0.60720  Biso   1.000  H
  H38      1.0000 0.20400  0.05480  0.89280  Biso   1.000  H
  H39      1.0000 0.20400  0.94520  0.39280  Biso   1.000  H
  H40      1.0000 0.79600  0.94520  0.10720  Biso   1.000  H
  H41      1.0000 0.83770  0.90910  0.54890  Biso   1.000  H
  H42      1.0000 0.16230  0.90910  0.95110  Biso   1.000  H
  H43      1.0000 0.16230  0.09090  0.45110  Biso   1.000  H
  H44      1.0000 0.83770  0.09090  0.04890  Biso   1.000  H
