data_image0
_cell_length_a       20.6628
_cell_length_b       5.7261
_cell_length_c       20.1113
_cell_angle_alpha    90
_cell_angle_beta     90
_cell_angle_gamma    90

_symmetry_space_group_name_H-M    "P 1"
_symmetry_int_tables_number       1

loop_
  _symmetry_equiv_pos_as_xyz
  'x, y, z'

loop_
  _atom_site_label
  _atom_site_occupancy
  _atom_site_fract_x
  _atom_site_fract_y
  _atom_site_fract_z
  _atom_site_thermal_displace_type
  _atom_site_B_iso_or_equiv
  _atom_site_type_symbol
  Cu1      1.0000 0.50000  0.46807  0.75000  Biso   1.000  Cu
  Cu2      1.0000 0.00000  0.53193  0.75000  Biso   1.000  Cu
  Cu3      1.0000 0.50000  0.53193  0.25000  Biso   1.000  Cu
  Cu4      1.0000 0.00000  0.46807  0.25000  Biso   1.000  Cu
  S1       1.0000 0.75000  0.50000  0.54985  Biso   1.000  S
  S2       1.0000 0.25000  0.50000  0.95015  Biso   1.000  S
  S3       1.0000 0.25000  0.50000  0.45015  Biso   1.000  S
  S4       1.0000 0.75000  0.50000  0.04985  Biso   1.000  S
  O1       1.0000 0.44453  0.44820  0.67176  Biso   1.000  O
  O2       1.0000 0.05547  0.55180  0.67176  Biso   1.000  O
  O3       1.0000 0.55547  0.44820  0.82824  Biso   1.000  O
  O4       1.0000 0.94453  0.55180  0.82824  Biso   1.000  O
  O5       1.0000 0.55547  0.55180  0.32824  Biso   1.000  O
  O6       1.0000 0.94453  0.44820  0.32824  Biso   1.000  O
  O7       1.0000 0.44453  0.55180  0.17176  Biso   1.000  O
  O8       1.0000 0.05547  0.44820  0.17176  Biso   1.000  O
  N1       1.0000 0.57763  0.46230  0.68940  Biso   1.000  N
  N2       1.0000 0.92237  0.53770  0.68940  Biso   1.000  N
  N3       1.0000 0.42237  0.46230  0.81060  Biso   1.000  N
  N4       1.0000 0.07763  0.53770  0.81060  Biso   1.000  N
  N5       1.0000 0.42237  0.53770  0.31060  Biso   1.000  N
  N6       1.0000 0.07763  0.46230  0.31060  Biso   1.000  N
  N7       1.0000 0.57763  0.53770  0.18940  Biso   1.000  N
  N8       1.0000 0.92237  0.46230  0.18940  Biso   1.000  N
  O9       1.0000 0.50000  0.86300  0.75000  Biso   1.000  O
  O10      1.0000 0.00000  0.13700  0.75000  Biso   1.000  O
  O11      1.0000 0.50000  0.13700  0.25000  Biso   1.000  O
  O12      1.0000 0.00000  0.86300  0.25000  Biso   1.000  O
  H1       1.0000 0.53570  0.92840  0.77120  Biso   1.000  H
  H2       1.0000 0.96430  0.07160  0.77120  Biso   1.000  H
  H3       1.0000 0.46430  0.92840  0.72880  Biso   1.000  H
  H4       1.0000 0.03570  0.07160  0.72880  Biso   1.000  H
  H5       1.0000 0.46430  0.07160  0.22880  Biso   1.000  H
  H6       1.0000 0.03570  0.92840  0.22880  Biso   1.000  H
  H7       1.0000 0.53570  0.07160  0.27120  Biso   1.000  H
  H8       1.0000 0.96430  0.92840  0.27120  Biso   1.000  H
  O13      1.0000 0.39987  0.10510  0.69512  Biso   1.000  O
  O14      1.0000 0.10013  0.89490  0.69512  Biso   1.000  O
  O15      1.0000 0.60013  0.10510  0.80488  Biso   1.000  O
  O16      1.0000 0.89987  0.89490  0.80488  Biso   1.000  O
  O17      1.0000 0.60013  0.89490  0.30488  Biso   1.000  O
  O18      1.0000 0.89987  0.10510  0.30488  Biso   1.000  O
  O19      1.0000 0.39987  0.89490  0.19512  Biso   1.000  O
  O20      1.0000 0.10013  0.10510  0.19512  Biso   1.000  O
  C1       1.0000 0.40653  0.28010  0.66007  Biso   1.000  C
  C2       1.0000 0.09347  0.71990  0.66007  Biso   1.000  C
  C3       1.0000 0.59347  0.28010  0.83993  Biso   1.000  C
  C4       1.0000 0.90653  0.71990  0.83993  Biso   1.000  C
  C5       1.0000 0.59347  0.71990  0.33993  Biso   1.000  C
  C6       1.0000 0.90653  0.28010  0.33993  Biso   1.000  C
  C7       1.0000 0.40653  0.71990  0.16007  Biso   1.000  C
  C8       1.0000 0.09347  0.28010  0.16007  Biso   1.000  C
  C9       1.0000 0.62557  0.61360  0.69979  Biso   1.000  C
  C10      1.0000 0.87443  0.38640  0.69979  Biso   1.000  C
  C11      1.0000 0.37443  0.61360  0.80021  Biso   1.000  C
  C12      1.0000 0.12557  0.38640  0.80021  Biso   1.000  C
  C13      1.0000 0.37443  0.38640  0.30021  Biso   1.000  C
  C14      1.0000 0.12557  0.61360  0.30021  Biso   1.000  C
  C15      1.0000 0.62557  0.38640  0.19979  Biso   1.000  C
  C16      1.0000 0.87443  0.61360  0.19979  Biso   1.000  C
  H9       1.0000 0.62270  0.71340  0.73620  Biso   1.000  H
  H10      1.0000 0.87730  0.28660  0.73620  Biso   1.000  H
  H11      1.0000 0.37730  0.71340  0.76380  Biso   1.000  H
  H12      1.0000 0.12270  0.28660  0.76380  Biso   1.000  H
  H13      1.0000 0.37730  0.28660  0.26380  Biso   1.000  H
  H14      1.0000 0.12270  0.71340  0.26380  Biso   1.000  H
  H15      1.0000 0.62270  0.28660  0.23620  Biso   1.000  H
  H16      1.0000 0.87730  0.71340  0.23620  Biso   1.000  H
  C17      1.0000 0.58345  0.31840  0.63787  Biso   1.000  C
  C18      1.0000 0.91655  0.68160  0.63787  Biso   1.000  C
  C19      1.0000 0.41655  0.31840  0.86213  Biso   1.000  C
  C20      1.0000 0.08345  0.68160  0.86213  Biso   1.000  C
  C21      1.0000 0.41655  0.68160  0.36213  Biso   1.000  C
  C22      1.0000 0.08345  0.31840  0.36213  Biso   1.000  C
  C23      1.0000 0.58345  0.68160  0.13787  Biso   1.000  C
  C24      1.0000 0.91655  0.31840  0.13787  Biso   1.000  C
  H17      1.0000 0.55060  0.21090  0.62980  Biso   1.000  H
  H18      1.0000 0.94940  0.78910  0.62980  Biso   1.000  H
  H19      1.0000 0.44940  0.21090  0.87020  Biso   1.000  H
  H20      1.0000 0.05060  0.78910  0.87020  Biso   1.000  H
  H21      1.0000 0.44940  0.78910  0.37020  Biso   1.000  H
  H22      1.0000 0.05060  0.21090  0.37020  Biso   1.000  H
  H23      1.0000 0.55060  0.78910  0.12980  Biso   1.000  H
  H24      1.0000 0.94940  0.21090  0.12980  Biso   1.000  H
  C25      1.0000 0.68445  0.48060  0.60650  Biso   1.000  C
  C26      1.0000 0.81555  0.51940  0.60650  Biso   1.000  C
  C27      1.0000 0.31555  0.48060  0.89350  Biso   1.000  C
  C28      1.0000 0.18445  0.51940  0.89350  Biso   1.000  C
  C29      1.0000 0.31555  0.51940  0.39350  Biso   1.000  C
  C30      1.0000 0.18445  0.48060  0.39350  Biso   1.000  C
  C31      1.0000 0.68445  0.51940  0.10650  Biso   1.000  C
  C32      1.0000 0.81555  0.48060  0.10650  Biso   1.000  C
  C33      1.0000 0.67877  0.62960  0.65959  Biso   1.000  C
  C34      1.0000 0.82123  0.37040  0.65959  Biso   1.000  C
  C35      1.0000 0.32123  0.62960  0.84041  Biso   1.000  C
  C36      1.0000 0.17877  0.37040  0.84041  Biso   1.000  C
  C37      1.0000 0.32123  0.37040  0.34041  Biso   1.000  C
  C38      1.0000 0.17877  0.62960  0.34041  Biso   1.000  C
  C39      1.0000 0.67877  0.37040  0.15959  Biso   1.000  C
  C40      1.0000 0.82123  0.62960  0.15959  Biso   1.000  C
  H25      1.0000 0.71070  0.74000  0.66810  Biso   1.000  H
  H26      1.0000 0.78930  0.26000  0.66810  Biso   1.000  H
  H27      1.0000 0.28930  0.74000  0.83190  Biso   1.000  H
  H28      1.0000 0.21070  0.26000  0.83190  Biso   1.000  H
  H29      1.0000 0.28930  0.26000  0.33190  Biso   1.000  H
  H30      1.0000 0.21070  0.74000  0.33190  Biso   1.000  H
  H31      1.0000 0.71070  0.26000  0.16810  Biso   1.000  H
  H32      1.0000 0.78930  0.74000  0.16810  Biso   1.000  H
  C41      1.0000 0.43742  0.03930  0.52659  Biso   1.000  C
  C42      1.0000 0.06258  0.96070  0.52659  Biso   1.000  C
  C43      1.0000 0.56258  0.03930  0.97341  Biso   1.000  C
  C44      1.0000 0.93742  0.96070  0.97341  Biso   1.000  C
  C45      1.0000 0.56258  0.96070  0.47341  Biso   1.000  C
  C46      1.0000 0.93742  0.03930  0.47341  Biso   1.000  C
  C47      1.0000 0.43742  0.96070  0.02659  Biso   1.000  C
  C48      1.0000 0.06258  0.03930  0.02659  Biso   1.000  C
  C49      1.0000 0.63615  0.32200  0.59583  Biso   1.000  C
  C50      1.0000 0.86385  0.67800  0.59583  Biso   1.000  C
  C51      1.0000 0.36385  0.32200  0.90417  Biso   1.000  C
  C52      1.0000 0.13615  0.67800  0.90417  Biso   1.000  C
  C53      1.0000 0.36385  0.67800  0.40417  Biso   1.000  C
  C54      1.0000 0.13615  0.32200  0.40417  Biso   1.000  C
  C55      1.0000 0.63615  0.67800  0.09583  Biso   1.000  C
  C56      1.0000 0.86385  0.32200  0.09583  Biso   1.000  C
  H33      1.0000 0.63880  0.21740  0.56060  Biso   1.000  H
  H34      1.0000 0.86120  0.78260  0.56060  Biso   1.000  H
  H35      1.0000 0.36120  0.21740  0.93940  Biso   1.000  H
  H36      1.0000 0.13880  0.78260  0.93940  Biso   1.000  H
  H37      1.0000 0.36120  0.78260  0.43940  Biso   1.000  H
  H38      1.0000 0.13880  0.21740  0.43940  Biso   1.000  H
  H39      1.0000 0.63880  0.78260  0.06060  Biso   1.000  H
  H40      1.0000 0.86120  0.21740  0.06060  Biso   1.000  H
  C57      1.0000 0.47731  0.86610  0.55109  Biso   1.000  C
  C58      1.0000 0.02269  0.13390  0.55109  Biso   1.000  C
  C59      1.0000 0.52269  0.86610  0.94891  Biso   1.000  C
  C60      1.0000 0.97731  0.13390  0.94891  Biso   1.000  C
  C61      1.0000 0.52269  0.13390  0.44891  Biso   1.000  C
  C62      1.0000 0.97731  0.86610  0.44891  Biso   1.000  C
  C63      1.0000 0.47731  0.13390  0.05109  Biso   1.000  C
  C64      1.0000 0.02269  0.86610  0.05109  Biso   1.000  C
  H41      1.0000 0.46270  0.77300  0.58590  Biso   1.000  H
  H42      1.0000 0.03730  0.22700  0.58590  Biso   1.000  H
  H43      1.0000 0.53730  0.77300  0.91410  Biso   1.000  H
  H44      1.0000 0.96270  0.22700  0.91410  Biso   1.000  H
  H45      1.0000 0.53730  0.22700  0.41410  Biso   1.000  H
  H46      1.0000 0.96270  0.77300  0.41410  Biso   1.000  H
  H47      1.0000 0.46270  0.22700  0.08590  Biso   1.000  H
  H48      1.0000 0.03730  0.77300  0.08590  Biso   1.000  H
  C65      1.0000 0.36598  0.30100  0.59738  Biso   1.000  C
  C66      1.0000 0.13402  0.69900  0.59738  Biso   1.000  C
  C67      1.0000 0.63402  0.30100  0.90262  Biso   1.000  C
  C68      1.0000 0.86598  0.69900  0.90262  Biso   1.000  C
  C69      1.0000 0.63402  0.69900  0.40262  Biso   1.000  C
  C70      1.0000 0.86598  0.30100  0.40262  Biso   1.000  C
  C71      1.0000 0.36598  0.69900  0.09738  Biso   1.000  C
  C72      1.0000 0.13402  0.30100  0.09738  Biso   1.000  C
  H49      1.0000 0.38040  0.43570  0.57210  Biso   1.000  H
  H50      1.0000 0.11960  0.56430  0.57210  Biso   1.000  H
  H51      1.0000 0.61960  0.43570  0.92790  Biso   1.000  H
  H52      1.0000 0.88040  0.56430  0.92790  Biso   1.000  H
  H53      1.0000 0.61960  0.56430  0.42790  Biso   1.000  H
  H54      1.0000 0.88040  0.43570  0.42790  Biso   1.000  H
  H55      1.0000 0.38040  0.56430  0.07210  Biso   1.000  H
  H56      1.0000 0.11960  0.43570  0.07210  Biso   1.000  H
  H57      1.0000 0.32110  0.32630  0.60960  Biso   1.000  H
  H58      1.0000 0.17890  0.67370  0.60960  Biso   1.000  H
  H59      1.0000 0.67890  0.32630  0.89040  Biso   1.000  H
  H60      1.0000 0.82110  0.67370  0.89040  Biso   1.000  H
  H61      1.0000 0.67890  0.67370  0.39040  Biso   1.000  H
  H62      1.0000 0.82110  0.32630  0.39040  Biso   1.000  H
  H63      1.0000 0.32110  0.67370  0.10960  Biso   1.000  H
  H64      1.0000 0.17890  0.32630  0.10960  Biso   1.000  H
  C73      1.0000 0.46210  0.17240  0.47462  Biso   1.000  C
  C74      1.0000 0.03790  0.82760  0.47462  Biso   1.000  C
  C75      1.0000 0.53790  0.17240  0.02538  Biso   1.000  C
  C76      1.0000 0.96210  0.82760  0.02538  Biso   1.000  C
  C77      1.0000 0.53790  0.82760  0.52538  Biso   1.000  C
  C78      1.0000 0.96210  0.17240  0.52538  Biso   1.000  C
  C79      1.0000 0.46210  0.82760  0.97462  Biso   1.000  C
  C80      1.0000 0.03790  0.17240  0.97462  Biso   1.000  C
  H65      1.0000 0.43680  0.29120  0.45670  Biso   1.000  H
  H66      1.0000 0.06320  0.70880  0.45670  Biso   1.000  H
  H67      1.0000 0.56320  0.29120  0.04330  Biso   1.000  H
  H68      1.0000 0.93680  0.70880  0.04330  Biso   1.000  H
  H69      1.0000 0.56320  0.70880  0.54330  Biso   1.000  H
  H70      1.0000 0.93680  0.29120  0.54330  Biso   1.000  H
  H71      1.0000 0.43680  0.70880  0.95670  Biso   1.000  H
  H72      1.0000 0.06320  0.29120  0.95670  Biso   1.000  H
  C81      1.0000 0.37063  0.08340  0.55366  Biso   1.000  C
  C82      1.0000 0.12937  0.91660  0.55366  Biso   1.000  C
  C83      1.0000 0.62937  0.08340  0.94634  Biso   1.000  C
  C84      1.0000 0.87063  0.91660  0.94634  Biso   1.000  C
  C85      1.0000 0.62937  0.91660  0.44634  Biso   1.000  C
  C86      1.0000 0.87063  0.08340  0.44634  Biso   1.000  C
  C87      1.0000 0.37063  0.91660  0.05366  Biso   1.000  C
  C88      1.0000 0.12937  0.08340  0.05366  Biso   1.000  C
  H73      1.0000 0.35720  0.94870  0.57950  Biso   1.000  H
  H74      1.0000 0.14280  0.05130  0.57950  Biso   1.000  H
  H75      1.0000 0.64280  0.94870  0.92050  Biso   1.000  H
  H76      1.0000 0.85720  0.05130  0.92050  Biso   1.000  H
  H77      1.0000 0.64280  0.05130  0.42050  Biso   1.000  H
  H78      1.0000 0.85720  0.94870  0.42050  Biso   1.000  H
  H79      1.0000 0.35720  0.05130  0.07950  Biso   1.000  H
  H80      1.0000 0.14280  0.94870  0.07950  Biso   1.000  H
  H81      1.0000 0.34080  0.09960  0.51670  Biso   1.000  H
  H82      1.0000 0.15920  0.90040  0.51670  Biso   1.000  H
  H83      1.0000 0.65920  0.09960  0.98330  Biso   1.000  H
  H84      1.0000 0.84080  0.90040  0.98330  Biso   1.000  H
  H85      1.0000 0.65920  0.90040  0.48330  Biso   1.000  H
  H86      1.0000 0.84080  0.09960  0.48330  Biso   1.000  H
  H87      1.0000 0.34080  0.90040  0.01670  Biso   1.000  H
  H88      1.0000 0.15920  0.09960  0.01670  Biso   1.000  H
