data_image0
_cell_length_a       19.002
_cell_length_b       14.816
_cell_length_c       11.148
_cell_angle_alpha    90
_cell_angle_beta     92.94
_cell_angle_gamma    90

_symmetry_space_group_name_H-M    "P 1"
_symmetry_int_tables_number       1

loop_
  _symmetry_equiv_pos_as_xyz
  'x, y, z'

loop_
  _atom_site_label
  _atom_site_occupancy
  _atom_site_fract_x
  _atom_site_fract_y
  _atom_site_fract_z
  _atom_site_thermal_displace_type
  _atom_site_B_iso_or_equiv
  _atom_site_type_symbol
  Cu1      1.0000 0.00000  0.72477  0.00000  Biso   1.000  Cu
  Cu2      1.0000 0.50000  0.22477  0.00000  Biso   1.000  Cu
  Cu3      1.0000 0.50251  0.60292  0.31437  Biso   1.000  Cu
  Cu4      1.0000 0.49749  0.60292  0.68563  Biso   1.000  Cu
  Cu5      1.0000 0.00251  0.10292  0.31437  Biso   1.000  Cu
  Cu6      1.0000 0.99749  0.10292  0.68563  Biso   1.000  Cu
  O1       1.0000 0.06880  0.63930  0.94730  Biso   1.000  O
  O2       1.0000 0.93120  0.63930  0.05270  Biso   1.000  O
  O3       1.0000 0.56880  0.13930  0.94730  Biso   1.000  O
  O4       1.0000 0.43120  0.13930  0.05270  Biso   1.000  O
  O5       1.0000 0.09480  0.61500  0.14100  Biso   1.000  O
  O6       1.0000 0.90520  0.61500  0.85900  Biso   1.000  O
  O7       1.0000 0.59480  0.11500  0.14100  Biso   1.000  O
  O8       1.0000 0.40520  0.11500  0.85900  Biso   1.000  O
  O9       1.0000 0.41950  0.67170  0.24800  Biso   1.000  O
  O10      1.0000 0.58050  0.67170  0.75200  Biso   1.000  O
  O11      1.0000 0.91950  0.17170  0.24800  Biso   1.000  O
  O12      1.0000 0.08050  0.17170  0.75200  Biso   1.000  O
  O13      1.0000 0.40370  0.76560  0.39870  Biso   1.000  O
  O14      1.0000 0.59630  0.76560  0.60130  Biso   1.000  O
  O15      1.0000 0.90370  0.26560  0.39870  Biso   1.000  O
  O16      1.0000 0.09630  0.26560  0.60130  Biso   1.000  O
  O17      1.0000 0.43680  0.69260  0.74990  Biso   1.000  O
  O18      1.0000 0.56320  0.69260  0.25010  Biso   1.000  O
  O19      1.0000 0.93680  0.19260  0.74990  Biso   1.000  O
  O20      1.0000 0.06320  0.19260  0.25010  Biso   1.000  O
  O21      1.0000 0.34880  0.66240  0.61510  Biso   1.000  O
  O22      1.0000 0.65120  0.66240  0.38490  Biso   1.000  O
  O23      1.0000 0.84880  0.16240  0.61510  Biso   1.000  O
  O24      1.0000 0.15120  0.16240  0.38490  Biso   1.000  O
  O25      1.0000 0.50000  0.66280  0.50000  Biso   1.000  O
  O26      1.0000 0.00000  0.16280  0.50000  Biso   1.000  O
  O27      1.0000 0.52380  0.01980  0.47500  Biso   1.000  O
  O28      1.0000 0.47620  0.01980  0.52500  Biso   1.000  O
  O29      1.0000 0.02380  0.51980  0.47500  Biso   1.000  O
  O30      1.0000 0.97620  0.51980  0.52500  Biso   1.000  O
  O31      1.0000 0.50160  0.84860  0.12550  Biso   1.000  O
  O32      1.0000 0.49840  0.84860  0.87450  Biso   1.000  O
  O33      1.0000 0.00160  0.34860  0.12550  Biso   1.000  O
  O34      1.0000 0.99840  0.34860  0.87450  Biso   1.000  O
  O35      1.0000 0.78640  0.65630  0.48780  Biso   1.000  O
  O36      1.0000 0.21360  0.65630  0.51220  Biso   1.000  O
  O37      1.0000 0.28640  0.15630  0.48780  Biso   1.000  O
  O38      1.0000 0.71360  0.15630  0.51220  Biso   1.000  O
  O39      1.0000 0.81380  0.53510  0.68120  Biso   1.000  O
  O40      1.0000 0.18620  0.53510  0.31880  Biso   1.000  O
  O41      1.0000 0.31380  0.03510  0.68120  Biso   1.000  O
  O42      1.0000 0.68620  0.03510  0.31880  Biso   1.000  O
  O43      1.0000 0.82600  0.52390  0.32140  Biso   1.000  O
  O44      1.0000 0.17400  0.52390  0.67860  Biso   1.000  O
  O45      1.0000 0.32600  0.02390  0.32140  Biso   1.000  O
  O46      1.0000 0.67400  0.02390  0.67860  Biso   1.000  O
  O47      1.0000 0.96680  0.50520  0.24630  Biso   1.000  O
  O48      1.0000 0.03320  0.50520  0.75370  Biso   1.000  O
  O49      1.0000 0.46680  0.00520  0.24630  Biso   1.000  O
  O50      1.0000 0.53320  0.00520  0.75370  Biso   1.000  O
  O51      1.0000 0.66170  0.90480  0.49280  Biso   1.000  O
  O52      1.0000 0.33830  0.90480  0.50720  Biso   1.000  O
  O53      1.0000 0.16170  0.40480  0.49280  Biso   1.000  O
  O54      1.0000 0.83830  0.40480  0.50720  Biso   1.000  O
  N1       1.0000 0.93810  0.82780  0.04430  Biso   1.000  N
  N2       1.0000 0.06190  0.82780  0.95570  Biso   1.000  N
  N3       1.0000 0.43810  0.32780  0.04430  Biso   1.000  N
  N4       1.0000 0.56190  0.32780  0.95570  Biso   1.000  N
  N5       1.0000 0.56480  0.49400  0.28100  Biso   1.000  N
  N6       1.0000 0.43520  0.49400  0.71900  Biso   1.000  N
  N7       1.0000 0.06480  0.99400  0.28100  Biso   1.000  N
  N8       1.0000 0.93520  0.99400  0.71900  Biso   1.000  N
  N9       1.0000 0.43870  0.50510  0.37080  Biso   1.000  N
  N10      1.0000 0.56130  0.50510  0.62920  Biso   1.000  N
  N11      1.0000 0.93870  0.00510  0.37080  Biso   1.000  N
  N12      1.0000 0.06130  0.00510  0.62920  Biso   1.000  N
  C1       1.0000 0.23360  0.63680  0.99700  Biso   1.000  C
  C2       1.0000 0.76640  0.63680  0.00300  Biso   1.000  C
  C3       1.0000 0.73360  0.13680  0.99700  Biso   1.000  C
  C4       1.0000 0.26640  0.13680  0.00300  Biso   1.000  C
  C5       1.0000 0.25910  0.67790  0.10380  Biso   1.000  C
  C6       1.0000 0.74090  0.67790  0.89620  Biso   1.000  C
  C7       1.0000 0.75910  0.17790  0.10380  Biso   1.000  C
  C8       1.0000 0.24090  0.17790  0.89620  Biso   1.000  C
  H1       1.0000 0.24350  0.65670  0.17830  Biso   1.000  H
  H2       1.0000 0.75650  0.65670  0.82170  Biso   1.000  H
  H3       1.0000 0.74350  0.15670  0.17830  Biso   1.000  H
  H4       1.0000 0.25650  0.15670  0.82170  Biso   1.000  H
  C9       1.0000 0.30680  0.74910  0.10310  Biso   1.000  C
  C10      1.0000 0.69320  0.74910  0.89690  Biso   1.000  C
  C11      1.0000 0.80680  0.24910  0.10310  Biso   1.000  C
  C12      1.0000 0.19320  0.24910  0.89690  Biso   1.000  C
  C13      1.0000 0.33030  0.77790  0.99280  Biso   1.000  C
  C14      1.0000 0.66970  0.77790  0.00720  Biso   1.000  C
  C15      1.0000 0.83030  0.27790  0.99280  Biso   1.000  C
  C16      1.0000 0.16970  0.27790  0.00720  Biso   1.000  C
  H5       1.0000 0.36410  0.82500  0.99150  Biso   1.000  H
  H6       1.0000 0.63590  0.82500  0.00850  Biso   1.000  H
  H7       1.0000 0.86410  0.32500  0.99150  Biso   1.000  H
  H8       1.0000 0.13590  0.32500  0.00850  Biso   1.000  H
  C17      1.0000 0.30590  0.74000  0.88610  Biso   1.000  C
  C18      1.0000 0.69410  0.74000  0.11390  Biso   1.000  C
  C19      1.0000 0.80590  0.24000  0.88610  Biso   1.000  C
  C20      1.0000 0.19410  0.24000  0.11390  Biso   1.000  C
  C21      1.0000 0.25770  0.66850  0.88940  Biso   1.000  C
  C22      1.0000 0.74230  0.66850  0.11060  Biso   1.000  C
  C23      1.0000 0.75770  0.16850  0.88940  Biso   1.000  C
  C24      1.0000 0.24230  0.16850  0.11060  Biso   1.000  C
  H9       1.0000 0.24100  0.64120  0.81620  Biso   1.000  H
  H10      1.0000 0.75900  0.64120  0.18380  Biso   1.000  H
  H11      1.0000 0.74100  0.14120  0.81620  Biso   1.000  H
  H12      1.0000 0.25900  0.14120  0.18380  Biso   1.000  H
  C25      1.0000 0.17830  0.56540  0.99920  Biso   1.000  C
  C26      1.0000 0.82170  0.56540  0.00080  Biso   1.000  C
  C27      1.0000 0.67830  0.06540  0.99920  Biso   1.000  C
  C28      1.0000 0.32170  0.06540  0.00080  Biso   1.000  C
  H13      1.0000 0.19280  0.51830  0.05850  Biso   1.000  H
  H14      1.0000 0.80720  0.51830  0.94150  Biso   1.000  H
  H15      1.0000 0.69280  0.01830  0.05850  Biso   1.000  H
  H16      1.0000 0.30720  0.01830  0.94150  Biso   1.000  H
  H17      1.0000 0.17240  0.53660  0.91920  Biso   1.000  H
  H18      1.0000 0.82760  0.53660  0.08080  Biso   1.000  H
  H19      1.0000 0.67240  0.03660  0.91920  Biso   1.000  H
  H20      1.0000 0.32760  0.03660  0.08080  Biso   1.000  H
  C29      1.0000 0.10890  0.60760  0.03280  Biso   1.000  C
  C30      1.0000 0.89110  0.60760  0.96720  Biso   1.000  C
  C31      1.0000 0.60890  0.10760  0.03280  Biso   1.000  C
  C32      1.0000 0.39110  0.10760  0.96720  Biso   1.000  C
  C33      1.0000 0.33350  0.79120  0.22250  Biso   1.000  C
  C34      1.0000 0.66650  0.79120  0.77750  Biso   1.000  C
  C35      1.0000 0.83350  0.29120  0.22250  Biso   1.000  C
  C36      1.0000 0.16650  0.29120  0.77750  Biso   1.000  C
  H21      1.0000 0.35180  0.85220  0.20580  Biso   1.000  H
  H22      1.0000 0.64820  0.85220  0.79420  Biso   1.000  H
  H23      1.0000 0.85180  0.35220  0.20580  Biso   1.000  H
  H24      1.0000 0.14820  0.35220  0.79420  Biso   1.000  H
  H25      1.0000 0.29280  0.79880  0.27360  Biso   1.000  H
  H26      1.0000 0.70720  0.79880  0.72640  Biso   1.000  H
  H27      1.0000 0.79280  0.29880  0.27360  Biso   1.000  H
  H28      1.0000 0.20720  0.29880  0.72640  Biso   1.000  H
  C37      1.0000 0.39060  0.73940  0.29440  Biso   1.000  C
  C38      1.0000 0.60940  0.73940  0.70560  Biso   1.000  C
  C39      1.0000 0.89060  0.23940  0.29440  Biso   1.000  C
  C40      1.0000 0.10940  0.23940  0.70560  Biso   1.000  C
  C41      1.0000 0.32930  0.77550  0.76620  Biso   1.000  C
  C42      1.0000 0.67070  0.77550  0.23380  Biso   1.000  C
  C43      1.0000 0.82930  0.27550  0.76620  Biso   1.000  C
  C44      1.0000 0.17070  0.27550  0.23380  Biso   1.000  C
  H29      1.0000 0.35670  0.83180  0.77970  Biso   1.000  H
  H30      1.0000 0.64330  0.83180  0.22030  Biso   1.000  H
  H31      1.0000 0.85670  0.33180  0.77970  Biso   1.000  H
  H32      1.0000 0.14330  0.33180  0.22030  Biso   1.000  H
  H33      1.0000 0.28730  0.79000  0.71360  Biso   1.000  H
  H34      1.0000 0.71270  0.79000  0.28640  Biso   1.000  H
  H35      1.0000 0.78730  0.29000  0.71360  Biso   1.000  H
  H36      1.0000 0.21270  0.29000  0.28640  Biso   1.000  H
  C45      1.0000 0.37460  0.70630  0.70390  Biso   1.000  C
  C46      1.0000 0.62540  0.70630  0.29610  Biso   1.000  C
  C47      1.0000 0.87460  0.20630  0.70390  Biso   1.000  C
  C48      1.0000 0.12540  0.20630  0.29610  Biso   1.000  C
  C49      1.0000 0.87540  0.82620  0.09220  Biso   1.000  C
  C50      1.0000 0.12460  0.82620  0.90780  Biso   1.000  C
  C51      1.0000 0.37540  0.32620  0.09220  Biso   1.000  C
  C52      1.0000 0.62460  0.32620  0.90780  Biso   1.000  C
  H37      1.0000 0.85520  0.76930  0.10980  Biso   1.000  H
  H38      1.0000 0.14480  0.76930  0.89020  Biso   1.000  H
  H39      1.0000 0.35520  0.26930  0.10980  Biso   1.000  H
  H40      1.0000 0.64480  0.26930  0.89020  Biso   1.000  H
  C53      1.0000 0.83720  0.90570  0.11810  Biso   1.000  C
  C54      1.0000 0.16280  0.90570  0.88190  Biso   1.000  C
  C55      1.0000 0.33720  0.40570  0.11810  Biso   1.000  C
  C56      1.0000 0.66280  0.40570  0.88190  Biso   1.000  C
  H41      1.0000 0.79200  0.90180  0.15030  Biso   1.000  H
  H42      1.0000 0.20800  0.90180  0.84970  Biso   1.000  H
  H43      1.0000 0.29200  0.40180  0.15030  Biso   1.000  H
  H44      1.0000 0.70800  0.40180  0.84970  Biso   1.000  H
  C57      1.0000 0.86600  0.98670  0.09650  Biso   1.000  C
  C58      1.0000 0.13400  0.98670  0.90350  Biso   1.000  C
  C59      1.0000 0.36600  0.48670  0.09650  Biso   1.000  C
  C60      1.0000 0.63400  0.48670  0.90350  Biso   1.000  C
  H45      1.0000 0.84110  0.04040  0.11360  Biso   1.000  H
  H46      1.0000 0.15890  0.04040  0.88640  Biso   1.000  H
  H47      1.0000 0.34110  0.54040  0.11360  Biso   1.000  H
  H48      1.0000 0.65890  0.54040  0.88640  Biso   1.000  H
  C61      1.0000 0.93160  0.99180  0.04960  Biso   1.000  C
  C62      1.0000 0.06840  0.99180  0.95040  Biso   1.000  C
  C63      1.0000 0.43160  0.49180  0.04960  Biso   1.000  C
  C64      1.0000 0.56840  0.49180  0.95040  Biso   1.000  C
  C65      1.0000 0.96850  0.07610  0.02230  Biso   1.000  C
  C66      1.0000 0.03150  0.07610  0.97770  Biso   1.000  C
  C67      1.0000 0.46850  0.57610  0.02230  Biso   1.000  C
  C68      1.0000 0.53150  0.57610  0.97770  Biso   1.000  C
  H49      1.0000 0.94640  0.13220  0.03730  Biso   1.000  H
  H50      1.0000 0.05360  0.13220  0.96270  Biso   1.000  H
  H51      1.0000 0.44640  0.63220  0.03730  Biso   1.000  H
  H52      1.0000 0.55360  0.63220  0.96270  Biso   1.000  H
  C69      1.0000 0.96600  0.90900  0.02580  Biso   1.000  C
  C70      1.0000 0.03400  0.90900  0.97420  Biso   1.000  C
  C71      1.0000 0.46600  0.40900  0.02580  Biso   1.000  C
  C72      1.0000 0.53400  0.40900  0.97420  Biso   1.000  C
  C73      1.0000 0.62800  0.48790  0.23830  Biso   1.000  C
  C74      1.0000 0.37200  0.48790  0.76170  Biso   1.000  C
  C75      1.0000 0.12800  0.98790  0.23830  Biso   1.000  C
  C76      1.0000 0.87200  0.98790  0.76170  Biso   1.000  C
  H53      1.0000 0.65210  0.54190  0.22030  Biso   1.000  H
  H54      1.0000 0.34790  0.54190  0.77970  Biso   1.000  H
  H55      1.0000 0.15210  0.04190  0.22030  Biso   1.000  H
  H56      1.0000 0.84790  0.04190  0.77970  Biso   1.000  H
  C77      1.0000 0.66050  0.40690  0.21880  Biso   1.000  C
  C78      1.0000 0.33950  0.40690  0.78120  Biso   1.000  C
  C79      1.0000 0.16050  0.90690  0.21880  Biso   1.000  C
  C80      1.0000 0.83950  0.90690  0.78120  Biso   1.000  C
  H57      1.0000 0.70600  0.40650  0.18720  Biso   1.000  H
  H58      1.0000 0.29400  0.40650  0.81280  Biso   1.000  H
  H59      1.0000 0.20600  0.90650  0.18720  Biso   1.000  H
  H60      1.0000 0.79400  0.90650  0.81280  Biso   1.000  H
  C81      1.0000 0.62870  0.32700  0.24390  Biso   1.000  C
  C82      1.0000 0.37130  0.32700  0.75610  Biso   1.000  C
  C83      1.0000 0.12870  0.82700  0.24390  Biso   1.000  C
  C84      1.0000 0.87130  0.82700  0.75610  Biso   1.000  C
  H61      1.0000 0.65160  0.27130  0.23000  Biso   1.000  H
  H62      1.0000 0.34840  0.27130  0.77000  Biso   1.000  H
  H63      1.0000 0.15160  0.77130  0.23000  Biso   1.000  H
  H64      1.0000 0.84840  0.77130  0.77000  Biso   1.000  H
  C85      1.0000 0.56110  0.32850  0.29070  Biso   1.000  C
  C86      1.0000 0.43890  0.32850  0.70930  Biso   1.000  C
  C87      1.0000 0.06110  0.82850  0.29070  Biso   1.000  C
  C88      1.0000 0.93890  0.82850  0.70930  Biso   1.000  C
  C89      1.0000 0.52310  0.25070  0.32040  Biso   1.000  C
  C90      1.0000 0.47690  0.25070  0.67960  Biso   1.000  C
  C91      1.0000 0.02310  0.75070  0.32040  Biso   1.000  C
  C92      1.0000 0.97690  0.75070  0.67960  Biso   1.000  C
  H65      1.0000 0.54290  0.19280  0.30790  Biso   1.000  H
  H66      1.0000 0.45710  0.19280  0.69210  Biso   1.000  H
  H67      1.0000 0.04290  0.69280  0.30790  Biso   1.000  H
  H68      1.0000 0.95710  0.69280  0.69210  Biso   1.000  H
  C93      1.0000 0.45710  0.25760  0.36770  Biso   1.000  C
  C94      1.0000 0.54290  0.25760  0.63230  Biso   1.000  C
  C95      1.0000 0.95710  0.75760  0.36770  Biso   1.000  C
  C96      1.0000 0.04290  0.75760  0.63230  Biso   1.000  C
  H69      1.0000 0.43220  0.20450  0.38790  Biso   1.000  H
  H70      1.0000 0.56780  0.20450  0.61210  Biso   1.000  H
  H71      1.0000 0.93220  0.70450  0.38790  Biso   1.000  H
  H72      1.0000 0.06780  0.70450  0.61210  Biso   1.000  H
  C97      1.0000 0.42670  0.34390  0.38570  Biso   1.000  C
  C98      1.0000 0.57330  0.34390  0.61430  Biso   1.000  C
  C99      1.0000 0.92670  0.84390  0.38570  Biso   1.000  C
  C100     1.0000 0.07330  0.84390  0.61430  Biso   1.000  C
  C101     1.0000 0.36000  0.35600  0.43380  Biso   1.000  C
  C102     1.0000 0.64000  0.35600  0.56620  Biso   1.000  C
  C103     1.0000 0.86000  0.85600  0.43380  Biso   1.000  C
  C104     1.0000 0.14000  0.85600  0.56620  Biso   1.000  C
  H73      1.0000 0.33270  0.30540  0.45530  Biso   1.000  H
  H74      1.0000 0.66730  0.30540  0.54470  Biso   1.000  H
  H75      1.0000 0.83270  0.80540  0.45530  Biso   1.000  H
  H76      1.0000 0.16730  0.80540  0.54470  Biso   1.000  H
  C105     1.0000 0.33510  0.44250  0.44920  Biso   1.000  C
  C106     1.0000 0.66490  0.44250  0.55080  Biso   1.000  C
  C107     1.0000 0.83510  0.94250  0.44920  Biso   1.000  C
  C108     1.0000 0.16490  0.94250  0.55080  Biso   1.000  C
  H77      1.0000 0.29080  0.45210  0.48280  Biso   1.000  H
  H78      1.0000 0.70920  0.45210  0.51720  Biso   1.000  H
  H79      1.0000 0.79080  0.95210  0.48280  Biso   1.000  H
  H80      1.0000 0.20920  0.95210  0.51720  Biso   1.000  H
  C109     1.0000 0.37530  0.51520  0.41500  Biso   1.000  C
  C110     1.0000 0.62470  0.51520  0.58500  Biso   1.000  C
  C111     1.0000 0.87530  0.01520  0.41500  Biso   1.000  C
  C112     1.0000 0.12470  0.01520  0.58500  Biso   1.000  C
  H81      1.0000 0.35710  0.57450  0.42330  Biso   1.000  H
  H82      1.0000 0.64290  0.57450  0.57670  Biso   1.000  H
  H83      1.0000 0.85710  0.07450  0.42330  Biso   1.000  H
  H84      1.0000 0.14290  0.07450  0.57670  Biso   1.000  H
  C113     1.0000 0.46420  0.41980  0.35600  Biso   1.000  C
  C114     1.0000 0.53580  0.41980  0.64400  Biso   1.000  C
  C115     1.0000 0.96420  0.91980  0.35600  Biso   1.000  C
  C116     1.0000 0.03580  0.91980  0.64400  Biso   1.000  C
  C117     1.0000 0.53210  0.41360  0.30810  Biso   1.000  C
  C118     1.0000 0.46790  0.41360  0.69190  Biso   1.000  C
  C119     1.0000 0.03210  0.91360  0.30810  Biso   1.000  C
  C120     1.0000 0.96790  0.91360  0.69190  Biso   1.000  C
