data_image0
_cell_length_a       14.606
_cell_length_b       7.704
_cell_length_c       21.836
_cell_angle_alpha    90
_cell_angle_beta     95.77
_cell_angle_gamma    90

_symmetry_space_group_name_H-M    "P 1"
_symmetry_int_tables_number       1

loop_
  _symmetry_equiv_pos_as_xyz
  'x, y, z'

loop_
  _atom_site_label
  _atom_site_occupancy
  _atom_site_fract_x
  _atom_site_fract_y
  _atom_site_fract_z
  _atom_site_thermal_displace_type
  _atom_site_B_iso_or_equiv
  _atom_site_type_symbol
  Cu1      1.0000 0.73373  0.52823  0.18253  Biso   1.000  Cu
  Cu2      1.0000 0.23373  0.02823  0.18253  Biso   1.000  Cu
  Cu3      1.0000 0.26627  0.52823  0.31747  Biso   1.000  Cu
  Cu4      1.0000 0.76627  0.02823  0.31747  Biso   1.000  Cu
  Cu5      1.0000 0.26627  0.47177  0.81747  Biso   1.000  Cu
  Cu6      1.0000 0.76627  0.97177  0.81747  Biso   1.000  Cu
  Cu7      1.0000 0.73373  0.47177  0.68253  Biso   1.000  Cu
  Cu8      1.0000 0.23373  0.97177  0.68253  Biso   1.000  Cu
  N1       1.0000 0.73950  0.73260  0.12743  Biso   1.000  N
  N2       1.0000 0.23950  0.23260  0.12743  Biso   1.000  N
  N3       1.0000 0.26050  0.73260  0.37257  Biso   1.000  N
  N4       1.0000 0.76050  0.23260  0.37257  Biso   1.000  N
  N5       1.0000 0.26050  0.26740  0.87257  Biso   1.000  N
  N6       1.0000 0.76050  0.76740  0.87257  Biso   1.000  N
  N7       1.0000 0.73950  0.26740  0.62743  Biso   1.000  N
  N8       1.0000 0.23950  0.76740  0.62743  Biso   1.000  N
  C1       1.0000 0.67820  0.71810  0.07876  Biso   1.000  C
  C2       1.0000 0.17820  0.21810  0.07876  Biso   1.000  C
  C3       1.0000 0.32180  0.71810  0.42124  Biso   1.000  C
  C4       1.0000 0.82180  0.21810  0.42124  Biso   1.000  C
  C5       1.0000 0.32180  0.28190  0.92124  Biso   1.000  C
  C6       1.0000 0.82180  0.78190  0.92124  Biso   1.000  C
  C7       1.0000 0.67820  0.28190  0.57876  Biso   1.000  C
  C8       1.0000 0.17820  0.78190  0.57876  Biso   1.000  C
  N9       1.0000 0.67990  0.85540  0.04187  Biso   1.000  N
  N10      1.0000 0.17990  0.35540  0.04187  Biso   1.000  N
  N11      1.0000 0.32010  0.85540  0.45813  Biso   1.000  N
  N12      1.0000 0.82010  0.35540  0.45813  Biso   1.000  N
  N13      1.0000 0.32010  0.14460  0.95813  Biso   1.000  N
  N14      1.0000 0.82010  0.64460  0.95813  Biso   1.000  N
  N15      1.0000 0.67990  0.14460  0.54187  Biso   1.000  N
  N16      1.0000 0.17990  0.64460  0.54187  Biso   1.000  N
  H1       1.0000 0.64560  0.87200  0.00800  Biso   1.000  H
  H2       1.0000 0.14560  0.37200  0.00800  Biso   1.000  H
  H3       1.0000 0.35440  0.87200  0.49200  Biso   1.000  H
  H4       1.0000 0.85440  0.37200  0.49200  Biso   1.000  H
  H5       1.0000 0.35440  0.12800  0.99200  Biso   1.000  H
  H6       1.0000 0.85440  0.62800  0.99200  Biso   1.000  H
  H7       1.0000 0.64560  0.12800  0.50800  Biso   1.000  H
  H8       1.0000 0.14560  0.62800  0.50800  Biso   1.000  H
  C9       1.0000 0.74670  0.96580  0.06800  Biso   1.000  C
  C10      1.0000 0.24670  0.46580  0.06800  Biso   1.000  C
  C11      1.0000 0.25330  0.96580  0.43200  Biso   1.000  C
  C12      1.0000 0.75330  0.46580  0.43200  Biso   1.000  C
  C13      1.0000 0.25330  0.03420  0.93200  Biso   1.000  C
  C14      1.0000 0.75330  0.53420  0.93200  Biso   1.000  C
  C15      1.0000 0.74670  0.03420  0.56800  Biso   1.000  C
  C16      1.0000 0.24670  0.53420  0.56800  Biso   1.000  C
  H9       1.0000 0.76400  0.07200  0.05240  Biso   1.000  H
  H10      1.0000 0.26400  0.57200  0.05240  Biso   1.000  H
  H11      1.0000 0.23600  0.07200  0.44760  Biso   1.000  H
  H12      1.0000 0.73600  0.57200  0.44760  Biso   1.000  H
  H13      1.0000 0.23600  0.92800  0.94760  Biso   1.000  H
  H14      1.0000 0.73600  0.42800  0.94760  Biso   1.000  H
  H15      1.0000 0.76400  0.92800  0.55240  Biso   1.000  H
  H16      1.0000 0.26400  0.42800  0.55240  Biso   1.000  H
  C17      1.0000 0.78280  0.88860  0.12140  Biso   1.000  C
  C18      1.0000 0.28280  0.38860  0.12140  Biso   1.000  C
  C19      1.0000 0.21720  0.88860  0.37860  Biso   1.000  C
  C20      1.0000 0.71720  0.38860  0.37860  Biso   1.000  C
  C21      1.0000 0.21720  0.11140  0.87860  Biso   1.000  C
  C22      1.0000 0.71720  0.61140  0.87860  Biso   1.000  C
  C23      1.0000 0.78280  0.11140  0.62140  Biso   1.000  C
  C24      1.0000 0.28280  0.61140  0.62140  Biso   1.000  C
  H17      1.0000 0.82920  0.93430  0.14900  Biso   1.000  H
  H18      1.0000 0.32920  0.43430  0.14900  Biso   1.000  H
  H19      1.0000 0.17080  0.93430  0.35100  Biso   1.000  H
  H20      1.0000 0.67080  0.43430  0.35100  Biso   1.000  H
  H21      1.0000 0.17080  0.06570  0.85100  Biso   1.000  H
  H22      1.0000 0.67080  0.56570  0.85100  Biso   1.000  H
  H23      1.0000 0.82920  0.06570  0.64900  Biso   1.000  H
  H24      1.0000 0.32920  0.56570  0.64900  Biso   1.000  H
  C25      1.0000 0.61980  0.56420  0.07315  Biso   1.000  C
  C26      1.0000 0.11980  0.06420  0.07315  Biso   1.000  C
  C27      1.0000 0.38020  0.56420  0.42685  Biso   1.000  C
  C28      1.0000 0.88020  0.06420  0.42685  Biso   1.000  C
  C29      1.0000 0.38020  0.43580  0.92685  Biso   1.000  C
  C30      1.0000 0.88020  0.93580  0.92685  Biso   1.000  C
  C31      1.0000 0.61980  0.43580  0.57315  Biso   1.000  C
  C32      1.0000 0.11980  0.93580  0.57315  Biso   1.000  C
  H25      1.0000 0.57570  0.54590  0.04001  Biso   1.000  H
  H26      1.0000 0.07570  0.04590  0.04001  Biso   1.000  H
  H27      1.0000 0.42430  0.54590  0.45999  Biso   1.000  H
  H28      1.0000 0.92430  0.04590  0.45999  Biso   1.000  H
  H29      1.0000 0.42430  0.45410  0.95999  Biso   1.000  H
  H30      1.0000 0.92430  0.95410  0.95999  Biso   1.000  H
  H31      1.0000 0.57570  0.45410  0.54001  Biso   1.000  H
  H32      1.0000 0.07570  0.95410  0.54001  Biso   1.000  H
  N17      1.0000 0.63430  0.45680  0.11759  Biso   1.000  N
  N18      1.0000 0.13430  0.95680  0.11759  Biso   1.000  N
  N19      1.0000 0.36570  0.45680  0.38241  Biso   1.000  N
  N20      1.0000 0.86570  0.95680  0.38241  Biso   1.000  N
  N21      1.0000 0.36570  0.54320  0.88241  Biso   1.000  N
  N22      1.0000 0.86570  0.04320  0.88241  Biso   1.000  N
  N23      1.0000 0.63430  0.54320  0.61759  Biso   1.000  N
  N24      1.0000 0.13430  0.04320  0.61759  Biso   1.000  N
  C33      1.0000 0.58330  0.29460  0.11904  Biso   1.000  C
  C34      1.0000 0.08330  0.79460  0.11904  Biso   1.000  C
  C35      1.0000 0.41670  0.29460  0.38096  Biso   1.000  C
  C36      1.0000 0.91670  0.79460  0.38096  Biso   1.000  C
  C37      1.0000 0.41670  0.70540  0.88096  Biso   1.000  C
  C38      1.0000 0.91670  0.20540  0.88096  Biso   1.000  C
  C39      1.0000 0.58330  0.70540  0.61904  Biso   1.000  C
  C40      1.0000 0.08330  0.20540  0.61904  Biso   1.000  C
  H33      1.0000 0.61740  0.20260  0.10116  Biso   1.000  H
  H34      1.0000 0.11740  0.70260  0.10116  Biso   1.000  H
  H35      1.0000 0.38260  0.20260  0.39884  Biso   1.000  H
  H36      1.0000 0.88260  0.70260  0.39884  Biso   1.000  H
  H37      1.0000 0.38260  0.79740  0.89884  Biso   1.000  H
  H38      1.0000 0.88260  0.29740  0.89884  Biso   1.000  H
  H39      1.0000 0.61740  0.79740  0.60116  Biso   1.000  H
  H40      1.0000 0.11740  0.29740  0.60116  Biso   1.000  H
  H41      1.0000 0.52440  0.30650  0.09455  Biso   1.000  H
  H42      1.0000 0.02440  0.80650  0.09455  Biso   1.000  H
  H43      1.0000 0.47560  0.30650  0.40545  Biso   1.000  H
  H44      1.0000 0.97560  0.80650  0.40545  Biso   1.000  H
  H45      1.0000 0.47560  0.69350  0.90545  Biso   1.000  H
  H46      1.0000 0.97560  0.19350  0.90545  Biso   1.000  H
  H47      1.0000 0.52440  0.69350  0.59455  Biso   1.000  H
  H48      1.0000 0.02440  0.19350  0.59455  Biso   1.000  H
  C41      1.0000 0.56750  0.24620  0.18476  Biso   1.000  C
  C42      1.0000 0.06750  0.74620  0.18476  Biso   1.000  C
  C43      1.0000 0.43250  0.24620  0.31524  Biso   1.000  C
  C44      1.0000 0.93250  0.74620  0.31524  Biso   1.000  C
  C45      1.0000 0.43250  0.75380  0.81524  Biso   1.000  C
  C46      1.0000 0.93250  0.25380  0.81524  Biso   1.000  C
  C47      1.0000 0.56750  0.75380  0.68476  Biso   1.000  C
  C48      1.0000 0.06750  0.25380  0.68476  Biso   1.000  C
  H49      1.0000 0.53500  0.34030  0.20260  Biso   1.000  H
  H50      1.0000 0.03500  0.84030  0.20260  Biso   1.000  H
  H51      1.0000 0.46500  0.34030  0.29740  Biso   1.000  H
  H52      1.0000 0.96500  0.84030  0.29740  Biso   1.000  H
  H53      1.0000 0.46500  0.65970  0.79740  Biso   1.000  H
  H54      1.0000 0.96500  0.15970  0.79740  Biso   1.000  H
  H55      1.0000 0.53500  0.65970  0.70260  Biso   1.000  H
  H56      1.0000 0.03500  0.15970  0.70260  Biso   1.000  H
  H57      1.0000 0.52860  0.14410  0.18384  Biso   1.000  H
  H58      1.0000 0.02860  0.64410  0.18384  Biso   1.000  H
  H59      1.0000 0.47140  0.14410  0.31616  Biso   1.000  H
  H60      1.0000 0.97140  0.64410  0.31616  Biso   1.000  H
  H61      1.0000 0.47140  0.85590  0.81616  Biso   1.000  H
  H62      1.0000 0.97140  0.35590  0.81616  Biso   1.000  H
  H63      1.0000 0.52860  0.85590  0.68384  Biso   1.000  H
  H64      1.0000 0.02860  0.35590  0.68384  Biso   1.000  H
  C49      1.0000 0.65560  0.20980  0.22571  Biso   1.000  C
  C50      1.0000 0.15560  0.70980  0.22571  Biso   1.000  C
  C51      1.0000 0.34440  0.20980  0.27429  Biso   1.000  C
  C52      1.0000 0.84440  0.70980  0.27429  Biso   1.000  C
  C53      1.0000 0.34440  0.79020  0.77429  Biso   1.000  C
  C54      1.0000 0.84440  0.29020  0.77429  Biso   1.000  C
  C55      1.0000 0.65560  0.79020  0.72571  Biso   1.000  C
  C56      1.0000 0.15560  0.29020  0.72571  Biso   1.000  C
  O1       1.0000 0.72432  0.30920  0.22532  Biso   1.000  O
  O2       1.0000 0.22432  0.80920  0.22532  Biso   1.000  O
  O3       1.0000 0.27568  0.30920  0.27468  Biso   1.000  O
  O4       1.0000 0.77568  0.80920  0.27468  Biso   1.000  O
  O5       1.0000 0.27568  0.69080  0.77468  Biso   1.000  O
  O6       1.0000 0.77568  0.19080  0.77468  Biso   1.000  O
  O7       1.0000 0.72432  0.69080  0.72532  Biso   1.000  O
  O8       1.0000 0.22432  0.19080  0.72532  Biso   1.000  O
  O9       1.0000 0.65703  0.07990  0.26069  Biso   1.000  O
  O10      1.0000 0.15703  0.57990  0.26069  Biso   1.000  O
  O11      1.0000 0.34297  0.07990  0.23931  Biso   1.000  O
  O12      1.0000 0.84297  0.57990  0.23931  Biso   1.000  O
  O13      1.0000 0.34297  0.92010  0.73931  Biso   1.000  O
  O14      1.0000 0.84297  0.42010  0.73931  Biso   1.000  O
  O15      1.0000 0.65703  0.92010  0.76069  Biso   1.000  O
  O16      1.0000 0.15703  0.42010  0.76069  Biso   1.000  O
  O17      1.0000 0.60310  0.65170  0.23700  Biso   1.000  O
  O18      1.0000 0.10310  0.15170  0.23700  Biso   1.000  O
  O19      1.0000 0.39690  0.65170  0.26300  Biso   1.000  O
  O20      1.0000 0.89690  0.15170  0.26300  Biso   1.000  O
  O21      1.0000 0.39690  0.34830  0.76300  Biso   1.000  O
  O22      1.0000 0.89690  0.84830  0.76300  Biso   1.000  O
  O23      1.0000 0.60310  0.34830  0.73700  Biso   1.000  O
  O24      1.0000 0.10310  0.84830  0.73700  Biso   1.000  O
  H65      1.0000 0.65030  0.58000  0.25880  Biso   1.000  H
  H66      1.0000 0.15030  0.08000  0.25880  Biso   1.000  H
  H67      1.0000 0.34970  0.58000  0.24120  Biso   1.000  H
  H68      1.0000 0.84970  0.08000  0.24120  Biso   1.000  H
  H69      1.0000 0.34970  0.42000  0.74120  Biso   1.000  H
  H70      1.0000 0.84970  0.92000  0.74120  Biso   1.000  H
  H71      1.0000 0.65030  0.42000  0.75880  Biso   1.000  H
  H72      1.0000 0.15030  0.92000  0.75880  Biso   1.000  H
  H73      1.0000 0.59470  0.76540  0.25470  Biso   1.000  H
  H74      1.0000 0.09470  0.26540  0.25470  Biso   1.000  H
  H75      1.0000 0.40530  0.76540  0.24530  Biso   1.000  H
  H76      1.0000 0.90530  0.26540  0.24530  Biso   1.000  H
  H77      1.0000 0.40530  0.23460  0.74530  Biso   1.000  H
  H78      1.0000 0.90530  0.73460  0.74530  Biso   1.000  H
  H79      1.0000 0.59470  0.23460  0.75470  Biso   1.000  H
  H80      1.0000 0.09470  0.73460  0.75470  Biso   1.000  H
  Cl1      1.0000 0.58508  0.14080  0.91564  Biso   1.000  Cl
  Cl2      1.0000 0.08508  0.64080  0.91564  Biso   1.000  Cl
  Cl3      1.0000 0.41492  0.14080  0.58436  Biso   1.000  Cl
  Cl4      1.0000 0.91492  0.64080  0.58436  Biso   1.000  Cl
  Cl5      1.0000 0.41492  0.85920  0.08436  Biso   1.000  Cl
  Cl6      1.0000 0.91492  0.35920  0.08436  Biso   1.000  Cl
  Cl7      1.0000 0.58508  0.85920  0.41564  Biso   1.000  Cl
  Cl8      1.0000 0.08508  0.35920  0.41564  Biso   1.000  Cl
  O25      1.0000 0.57460  0.25590  0.96350  Biso   1.000  O
  O26      1.0000 0.07460  0.75590  0.96350  Biso   1.000  O
  O27      1.0000 0.42540  0.25590  0.53650  Biso   1.000  O
  O28      1.0000 0.92540  0.75590  0.53650  Biso   1.000  O
  O29      1.0000 0.42540  0.74410  0.03650  Biso   1.000  O
  O30      1.0000 0.92540  0.24410  0.03650  Biso   1.000  O
  O31      1.0000 0.57460  0.74410  0.46350  Biso   1.000  O
  O32      1.0000 0.07460  0.24410  0.46350  Biso   1.000  O
  O33      1.0000 0.67510  0.14550  0.90070  Biso   1.000  O
  O34      1.0000 0.17510  0.64550  0.90070  Biso   1.000  O
  O35      1.0000 0.32490  0.14550  0.59930  Biso   1.000  O
  O36      1.0000 0.82490  0.64550  0.59930  Biso   1.000  O
  O37      1.0000 0.32490  0.85450  0.09930  Biso   1.000  O
  O38      1.0000 0.82490  0.35450  0.09930  Biso   1.000  O
  O39      1.0000 0.67510  0.85450  0.40070  Biso   1.000  O
  O40      1.0000 0.17510  0.35450  0.40070  Biso   1.000  O
  O41      1.0000 0.52140  0.18780  0.86690  Biso   1.000  O
  O42      1.0000 0.02140  0.68780  0.86690  Biso   1.000  O
  O43      1.0000 0.47860  0.18780  0.63310  Biso   1.000  O
  O44      1.0000 0.97860  0.68780  0.63310  Biso   1.000  O
  O45      1.0000 0.47860  0.81220  0.13310  Biso   1.000  O
  O46      1.0000 0.97860  0.31220  0.13310  Biso   1.000  O
  O47      1.0000 0.52140  0.81220  0.36690  Biso   1.000  O
  O48      1.0000 0.02140  0.31220  0.36690  Biso   1.000  O
  O49      1.0000 0.55880  0.97400  0.93550  Biso   1.000  O
  O50      1.0000 0.05880  0.47400  0.93550  Biso   1.000  O
  O51      1.0000 0.44120  0.97400  0.56450  Biso   1.000  O
  O52      1.0000 0.94120  0.47400  0.56450  Biso   1.000  O
  O53      1.0000 0.44120  0.02600  0.06450  Biso   1.000  O
  O54      1.0000 0.94120  0.52600  0.06450  Biso   1.000  O
  O55      1.0000 0.55880  0.02600  0.43550  Biso   1.000  O
  O56      1.0000 0.05880  0.52600  0.43550  Biso   1.000  O
  O57      1.0000 0.65640  0.17940  0.87720  Biso   1.000  O
  O58      1.0000 0.15640  0.67940  0.87720  Biso   1.000  O
  O59      1.0000 0.34360  0.17940  0.62280  Biso   1.000  O
  O60      1.0000 0.84360  0.67940  0.62280  Biso   1.000  O
  O61      1.0000 0.34360  0.82060  0.12280  Biso   1.000  O
  O62      1.0000 0.84360  0.32060  0.12280  Biso   1.000  O
  O63      1.0000 0.65640  0.82060  0.37720  Biso   1.000  O
  O64      1.0000 0.15640  0.32060  0.37720  Biso   1.000  O
  O65      1.0000 0.50150  0.16560  0.87750  Biso   1.000  O
  O66      1.0000 0.00150  0.66560  0.87750  Biso   1.000  O
  O67      1.0000 0.49850  0.16560  0.62250  Biso   1.000  O
  O68      1.0000 0.99850  0.66560  0.62250  Biso   1.000  O
  O69      1.0000 0.49850  0.83440  0.12250  Biso   1.000  O
  O70      1.0000 0.99850  0.33440  0.12250  Biso   1.000  O
  O71      1.0000 0.50150  0.83440  0.37750  Biso   1.000  O
  O72      1.0000 0.00150  0.33440  0.37750  Biso   1.000  O
  O73      1.0000 0.59230  0.95450  0.92710  Biso   1.000  O
  O74      1.0000 0.09230  0.45450  0.92710  Biso   1.000  O
  O75      1.0000 0.40770  0.95450  0.57290  Biso   1.000  O
  O76      1.0000 0.90770  0.45450  0.57290  Biso   1.000  O
  O77      1.0000 0.40770  0.04550  0.07290  Biso   1.000  O
  O78      1.0000 0.90770  0.54550  0.07290  Biso   1.000  O
  O79      1.0000 0.59230  0.04550  0.42710  Biso   1.000  O
  O80      1.0000 0.09230  0.54550  0.42710  Biso   1.000  O
  O81      1.0000 0.59770  0.23610  0.97090  Biso   1.000  O
  O82      1.0000 0.09770  0.73610  0.97090  Biso   1.000  O
  O83      1.0000 0.40230  0.23610  0.52910  Biso   1.000  O
  O84      1.0000 0.90230  0.73610  0.52910  Biso   1.000  O
  O85      1.0000 0.40230  0.76390  0.02910  Biso   1.000  O
  O86      1.0000 0.90230  0.26390  0.02910  Biso   1.000  O
  O87      1.0000 0.59770  0.76390  0.47090  Biso   1.000  O
  O88      1.0000 0.09770  0.26390  0.47090  Biso   1.000  O
