data_image0
_cell_length_a       13.1234
_cell_length_b       7.7098
_cell_length_c       16.126
_cell_angle_alpha    90
_cell_angle_beta     100.432
_cell_angle_gamma    90

_symmetry_space_group_name_H-M    "P 1"
_symmetry_int_tables_number       1

loop_
  _symmetry_equiv_pos_as_xyz
  'x, y, z'

loop_
  _atom_site_label
  _atom_site_occupancy
  _atom_site_fract_x
  _atom_site_fract_y
  _atom_site_fract_z
  _atom_site_thermal_displace_type
  _atom_site_B_iso_or_equiv
  _atom_site_type_symbol
  Cu1      1.0000 0.37741  0.29349  0.19111  Biso   1.000  Cu
  Cu2      1.0000 0.62259  0.79349  0.30889  Biso   1.000  Cu
  Cu3      1.0000 0.62259  0.70651  0.80889  Biso   1.000  Cu
  Cu4      1.0000 0.37741  0.20651  0.69111  Biso   1.000  Cu
  N1       1.0000 0.27970  0.11570  0.13060  Biso   1.000  N
  N2       1.0000 0.72030  0.61570  0.36940  Biso   1.000  N
  N3       1.0000 0.72030  0.88430  0.86940  Biso   1.000  N
  N4       1.0000 0.27970  0.38430  0.63060  Biso   1.000  N
  C1       1.0000 0.18180  0.14060  0.14340  Biso   1.000  C
  C2       1.0000 0.81820  0.64060  0.35660  Biso   1.000  C
  C3       1.0000 0.81820  0.85940  0.85660  Biso   1.000  C
  C4       1.0000 0.18180  0.35940  0.64340  Biso   1.000  C
  C5       1.0000 0.10150  0.03280  0.10890  Biso   1.000  C
  C6       1.0000 0.89850  0.53280  0.39110  Biso   1.000  C
  C7       1.0000 0.89850  0.96720  0.89110  Biso   1.000  C
  C8       1.0000 0.10150  0.46720  0.60890  Biso   1.000  C
  H1       1.0000 0.03490  0.05070  0.11940  Biso   1.000  H
  H2       1.0000 0.96510  0.55070  0.38060  Biso   1.000  H
  H3       1.0000 0.96510  0.94930  0.88060  Biso   1.000  H
  H4       1.0000 0.03490  0.44930  0.61940  Biso   1.000  H
  C9       1.0000 0.12240  0.89680  0.05820  Biso   1.000  C
  C10      1.0000 0.87760  0.39680  0.44180  Biso   1.000  C
  C11      1.0000 0.87760  0.10320  0.94180  Biso   1.000  C
  C12      1.0000 0.12240  0.60320  0.55820  Biso   1.000  C
  H5       1.0000 0.07010  0.82070  0.03480  Biso   1.000  H
  H6       1.0000 0.92990  0.32070  0.46520  Biso   1.000  H
  H7       1.0000 0.92990  0.17930  0.96520  Biso   1.000  H
  H8       1.0000 0.07010  0.67930  0.53480  Biso   1.000  H
  C13      1.0000 0.22110  0.87590  0.04310  Biso   1.000  C
  C14      1.0000 0.77890  0.37590  0.45690  Biso   1.000  C
  C15      1.0000 0.77890  0.12410  0.95690  Biso   1.000  C
  C16      1.0000 0.22110  0.62410  0.54310  Biso   1.000  C
  H9       1.0000 0.23590  0.78750  0.00790  Biso   1.000  H
  H10      1.0000 0.76410  0.28750  0.49210  Biso   1.000  H
  H11      1.0000 0.76410  0.21250  0.99210  Biso   1.000  H
  H12      1.0000 0.23590  0.71250  0.50790  Biso   1.000  H
  C17      1.0000 0.29870  0.98760  0.08080  Biso   1.000  C
  C18      1.0000 0.70130  0.48760  0.41920  Biso   1.000  C
  C19      1.0000 0.70130  0.01240  0.91920  Biso   1.000  C
  C20      1.0000 0.29870  0.51240  0.58080  Biso   1.000  C
  H13      1.0000 0.36580  0.97210  0.07090  Biso   1.000  H
  H14      1.0000 0.63420  0.47210  0.42910  Biso   1.000  H
  H15      1.0000 0.63420  0.02790  0.92910  Biso   1.000  H
  H16      1.0000 0.36580  0.52790  0.57090  Biso   1.000  H
  C21      1.0000 0.16820  0.29050  0.19580  Biso   1.000  C
  C22      1.0000 0.83180  0.79050  0.30420  Biso   1.000  C
  C23      1.0000 0.83180  0.70950  0.80420  Biso   1.000  C
  C24      1.0000 0.16820  0.20950  0.69580  Biso   1.000  C
  H17      1.0000 0.10400  0.31820  0.20870  Biso   1.000  H
  H18      1.0000 0.89600  0.81820  0.29130  Biso   1.000  H
  H19      1.0000 0.89600  0.68180  0.79130  Biso   1.000  H
  H20      1.0000 0.10400  0.18180  0.70870  Biso   1.000  H
  N5       1.0000 0.24820  0.38150  0.22280  Biso   1.000  N
  N6       1.0000 0.75180  0.88150  0.27720  Biso   1.000  N
  N7       1.0000 0.75180  0.61850  0.77720  Biso   1.000  N
  N8       1.0000 0.24820  0.11850  0.72280  Biso   1.000  N
  C25      1.0000 0.24240  0.53830  0.27440  Biso   1.000  C
  C26      1.0000 0.75760  0.03830  0.22560  Biso   1.000  C
  C27      1.0000 0.75760  0.46170  0.72560  Biso   1.000  C
  C28      1.0000 0.24240  0.96170  0.77440  Biso   1.000  C
  H21      1.0000 0.16800  0.52800  0.31180  Biso   1.000  H
  H22      1.0000 0.83200  0.02800  0.18820  Biso   1.000  H
  H23      1.0000 0.83200  0.47200  0.68820  Biso   1.000  H
  H24      1.0000 0.16800  0.97200  0.81180  Biso   1.000  H
  C29      1.0000 0.33850  0.54910  0.34220  Biso   1.000  C
  C30      1.0000 0.66150  0.04910  0.15780  Biso   1.000  C
  C31      1.0000 0.66150  0.45090  0.65780  Biso   1.000  C
  C32      1.0000 0.33850  0.95090  0.84220  Biso   1.000  C
  H25      1.0000 0.32990  0.64360  0.38010  Biso   1.000  H
  H26      1.0000 0.67010  0.14360  0.11990  Biso   1.000  H
  H27      1.0000 0.67010  0.35640  0.61990  Biso   1.000  H
  H28      1.0000 0.32990  0.85640  0.88010  Biso   1.000  H
  H29      1.0000 0.34440  0.44260  0.37480  Biso   1.000  H
  H30      1.0000 0.65560  0.94260  0.12520  Biso   1.000  H
  H31      1.0000 0.65560  0.55740  0.62520  Biso   1.000  H
  H32      1.0000 0.34440  0.05740  0.87480  Biso   1.000  H
  C33      1.0000 0.43850  0.57700  0.30920  Biso   1.000  C
  C34      1.0000 0.56150  0.07700  0.19080  Biso   1.000  C
  C35      1.0000 0.56150  0.42300  0.69080  Biso   1.000  C
  C36      1.0000 0.43850  0.92300  0.80920  Biso   1.000  C
  O1       1.0000 0.46250  0.47790  0.25376  Biso   1.000  O
  O2       1.0000 0.53750  0.97790  0.24624  Biso   1.000  O
  O3       1.0000 0.53750  0.52210  0.74624  Biso   1.000  O
  O4       1.0000 0.46250  0.02210  0.75376  Biso   1.000  O
  O5       1.0000 0.49530  0.70010  0.34059  Biso   1.000  O
  O6       1.0000 0.50470  0.20010  0.15941  Biso   1.000  O
  O7       1.0000 0.50470  0.29990  0.65941  Biso   1.000  O
  O8       1.0000 0.49530  0.79990  0.84059  Biso   1.000  O
  C37      1.0000 0.22420  0.68420  0.22370  Biso   1.000  C
  C38      1.0000 0.77580  0.18420  0.27630  Biso   1.000  C
  C39      1.0000 0.77580  0.31580  0.77630  Biso   1.000  C
  C40      1.0000 0.22420  0.81580  0.72370  Biso   1.000  C
  H33      1.0000 0.16240  0.66730  0.18240  Biso   1.000  H
  H34      1.0000 0.83760  0.16730  0.31760  Biso   1.000  H
  H35      1.0000 0.83760  0.33270  0.81760  Biso   1.000  H
  H36      1.0000 0.16240  0.83270  0.68240  Biso   1.000  H
  H37      1.0000 0.28190  0.70310  0.19570  Biso   1.000  H
  H38      1.0000 0.71810  0.20310  0.30430  Biso   1.000  H
  H39      1.0000 0.71810  0.29690  0.80430  Biso   1.000  H
  H40      1.0000 0.28190  0.79690  0.69570  Biso   1.000  H
  H41      1.0000 0.21550  0.78330  0.25780  Biso   1.000  H
  H42      1.0000 0.78450  0.28330  0.24220  Biso   1.000  H
  H43      1.0000 0.78450  0.21670  0.74220  Biso   1.000  H
  H44      1.0000 0.21550  0.71670  0.75780  Biso   1.000  H
  O9       1.0000 0.35930  0.44750  0.06340  Biso   1.000  O
  O10      1.0000 0.64070  0.94750  0.43660  Biso   1.000  O
  O11      1.0000 0.64070  0.55250  0.93660  Biso   1.000  O
  O12      1.0000 0.35930  0.05250  0.56340  Biso   1.000  O
  H45      1.0000 0.40400  0.52830  0.06800  Biso   1.000  H
  H46      1.0000 0.59600  0.02830  0.43200  Biso   1.000  H
  H47      1.0000 0.59600  0.47170  0.93200  Biso   1.000  H
  H48      1.0000 0.40400  0.97170  0.56800  Biso   1.000  H
  H49      1.0000 0.29870  0.49020  0.05160  Biso   1.000  H
  H50      1.0000 0.70130  0.99020  0.44840  Biso   1.000  H
  H51      1.0000 0.70130  0.50980  0.94840  Biso   1.000  H
  H52      1.0000 0.29870  0.00980  0.55160  Biso   1.000  H
  O13      1.0000 0.47170  0.73510  0.02310  Biso   1.000  O
  O14      1.0000 0.52830  0.23510  0.47690  Biso   1.000  O
  O15      1.0000 0.52830  0.26490  0.97690  Biso   1.000  O
  O16      1.0000 0.47170  0.76490  0.52310  Biso   1.000  O
  H53      1.0000 0.52000  0.77220  0.06140  Biso   1.000  H
  H54      1.0000 0.48000  0.27220  0.43860  Biso   1.000  H
  H55      1.0000 0.48000  0.22780  0.93860  Biso   1.000  H
  H56      1.0000 0.52000  0.72780  0.56140  Biso   1.000  H
  H57      1.0000 0.49710  0.70370  0.98060  Biso   1.000  H
  H58      1.0000 0.50290  0.20370  0.51940  Biso   1.000  H
  H59      1.0000 0.50290  0.29630  0.01940  Biso   1.000  H
  H60      1.0000 0.49710  0.79630  0.48060  Biso   1.000  H
  O17      1.0000 0.39240  0.11550  0.33270  Biso   1.000  O
  O18      1.0000 0.60760  0.61550  0.16730  Biso   1.000  O
  O19      1.0000 0.60760  0.88450  0.66730  Biso   1.000  O
  O20      1.0000 0.39240  0.38450  0.83270  Biso   1.000  O
  H61      1.0000 0.33190  0.08760  0.33960  Biso   1.000  H
  H62      1.0000 0.66810  0.58760  0.16040  Biso   1.000  H
  H63      1.0000 0.66810  0.91240  0.66040  Biso   1.000  H
  H64      1.0000 0.33190  0.41240  0.83960  Biso   1.000  H
  H65      1.0000 0.42420  0.07180  0.29620  Biso   1.000  H
  H66      1.0000 0.57580  0.57180  0.20380  Biso   1.000  H
  H67      1.0000 0.57580  0.92820  0.70380  Biso   1.000  H
  H68      1.0000 0.42420  0.42820  0.79620  Biso   1.000  H
  Cl1      1.0000 0.87909  0.55640  0.10125  Biso   1.000  Cl
  Cl2      1.0000 0.12091  0.05640  0.39875  Biso   1.000  Cl
  Cl3      1.0000 0.12091  0.44360  0.89875  Biso   1.000  Cl
  Cl4      1.0000 0.87909  0.94360  0.60125  Biso   1.000  Cl
  O21      1.0000 0.94450  0.41100  0.09630  Biso   1.000  O
  O22      1.0000 0.05550  0.91100  0.40370  Biso   1.000  O
  O23      1.0000 0.05550  0.58900  0.90370  Biso   1.000  O
  O24      1.0000 0.94450  0.08900  0.59630  Biso   1.000  O
  O25      1.0000 0.93870  0.60130  0.17290  Biso   1.000  O
  O26      1.0000 0.06130  0.10130  0.32710  Biso   1.000  O
  O27      1.0000 0.06130  0.39870  0.82710  Biso   1.000  O
  O28      1.0000 0.93870  0.89870  0.67290  Biso   1.000  O
  O29      1.0000 0.84480  0.66880  0.04310  Biso   1.000  O
  O30      1.0000 0.15520  0.16880  0.45690  Biso   1.000  O
  O31      1.0000 0.15520  0.33120  0.95690  Biso   1.000  O
  O32      1.0000 0.84480  0.83120  0.54310  Biso   1.000  O
  O33      1.0000 0.79960  0.51690  0.13930  Biso   1.000  O
  O34      1.0000 0.20040  0.01690  0.36070  Biso   1.000  O
  O35      1.0000 0.20040  0.48310  0.86070  Biso   1.000  O
  O36      1.0000 0.79960  0.98310  0.63930  Biso   1.000  O
  H69      1.0000 0.23830  0.62100  0.23960  Biso   1.000  H
  H70      1.0000 0.76170  0.12100  0.26040  Biso   1.000  H
  H71      1.0000 0.76170  0.37900  0.76040  Biso   1.000  H
  H72      1.0000 0.23830  0.87900  0.73960  Biso   1.000  H
  C41      1.0000 0.14370  0.57990  0.29660  Biso   1.000  C
  C42      1.0000 0.85630  0.07990  0.20340  Biso   1.000  C
  C43      1.0000 0.85630  0.42010  0.70340  Biso   1.000  C
  C44      1.0000 0.14370  0.92010  0.79660  Biso   1.000  C
  H73      1.0000 0.09020  0.56890  0.24770  Biso   1.000  H
  H74      1.0000 0.90980  0.06890  0.25230  Biso   1.000  H
  H75      1.0000 0.90980  0.43110  0.75230  Biso   1.000  H
  H76      1.0000 0.09020  0.93110  0.74770  Biso   1.000  H
  H77      1.0000 0.14510  0.69680  0.31730  Biso   1.000  H
  H78      1.0000 0.85490  0.19680  0.18270  Biso   1.000  H
  H79      1.0000 0.85490  0.30320  0.68270  Biso   1.000  H
  H80      1.0000 0.14510  0.80320  0.81730  Biso   1.000  H
  H81      1.0000 0.13010  0.50170  0.33960  Biso   1.000  H
  H82      1.0000 0.86990  0.00170  0.16040  Biso   1.000  H
  H83      1.0000 0.86990  0.49830  0.66040  Biso   1.000  H
  H84      1.0000 0.13010  0.99830  0.83960  Biso   1.000  H
  O37      1.0000 0.91140  0.71960  0.12550  Biso   1.000  O
  O38      1.0000 0.08860  0.21960  0.37450  Biso   1.000  O
  O39      1.0000 0.08860  0.28040  0.87450  Biso   1.000  O
  O40      1.0000 0.91140  0.78040  0.62550  Biso   1.000  O
  O41      1.0000 0.86390  0.54490  0.01120  Biso   1.000  O
  O42      1.0000 0.13610  0.04490  0.48880  Biso   1.000  O
  O43      1.0000 0.13610  0.45510  0.98880  Biso   1.000  O
  O44      1.0000 0.86390  0.95510  0.51120  Biso   1.000  O
  O45      1.0000 0.78140  0.46230  0.10440  Biso   1.000  O
  O46      1.0000 0.21860  0.96230  0.39560  Biso   1.000  O
  O47      1.0000 0.21860  0.53770  0.89560  Biso   1.000  O
  O48      1.0000 0.78140  0.03770  0.60440  Biso   1.000  O
