data_image0
_cell_length_a       12.954
_cell_length_b       7.4866
_cell_length_c       16.085
_cell_angle_alpha    90
_cell_angle_beta     101.53
_cell_angle_gamma    90

_symmetry_space_group_name_H-M    "P 1"
_symmetry_int_tables_number       1

loop_
  _symmetry_equiv_pos_as_xyz
  'x, y, z'

loop_
  _atom_site_label
  _atom_site_occupancy
  _atom_site_fract_x
  _atom_site_fract_y
  _atom_site_fract_z
  _atom_site_thermal_displace_type
  _atom_site_B_iso_or_equiv
  _atom_site_type_symbol
  Cu1      1.0000 0.12953  0.18668  0.31557  Biso   1.000  Cu
  Cu2      1.0000 0.87047  0.68668  0.18443  Biso   1.000  Cu
  Cu3      1.0000 0.87047  0.81332  0.68443  Biso   1.000  Cu
  Cu4      1.0000 0.12953  0.31332  0.81557  Biso   1.000  Cu
  N1       1.0000 0.22890  0.37790  0.37070  Biso   1.000  N
  N2       1.0000 0.77110  0.87790  0.12930  Biso   1.000  N
  N3       1.0000 0.77110  0.62210  0.62930  Biso   1.000  N
  N4       1.0000 0.22890  0.12210  0.87070  Biso   1.000  N
  C1       1.0000 0.32760  0.35380  0.35780  Biso   1.000  C
  C2       1.0000 0.67240  0.85380  0.14220  Biso   1.000  C
  C3       1.0000 0.67240  0.64620  0.64220  Biso   1.000  C
  C4       1.0000 0.32760  0.14620  0.85780  Biso   1.000  C
  C5       1.0000 0.40860  0.47210  0.38800  Biso   1.000  C
  C6       1.0000 0.59140  0.97210  0.11200  Biso   1.000  C
  C7       1.0000 0.59140  0.52790  0.61200  Biso   1.000  C
  C8       1.0000 0.40860  0.02790  0.88800  Biso   1.000  C
  H1       1.0000 0.47580  0.45400  0.37730  Biso   1.000  H
  H2       1.0000 0.52420  0.95400  0.12270  Biso   1.000  H
  H3       1.0000 0.52420  0.54600  0.62270  Biso   1.000  H
  H4       1.0000 0.47580  0.04600  0.87730  Biso   1.000  H
  C9       1.0000 0.38680  0.61850  0.43460  Biso   1.000  C
  C10      1.0000 0.61320  0.11850  0.06540  Biso   1.000  C
  C11      1.0000 0.61320  0.38150  0.56540  Biso   1.000  C
  C12      1.0000 0.38680  0.88150  0.93460  Biso   1.000  C
  H5       1.0000 0.43890  0.70190  0.45490  Biso   1.000  H
  H6       1.0000 0.56110  0.20190  0.04510  Biso   1.000  H
  H7       1.0000 0.56110  0.29810  0.54510  Biso   1.000  H
  H8       1.0000 0.43890  0.79810  0.95490  Biso   1.000  H
  C13      1.0000 0.28850  0.63800  0.45020  Biso   1.000  C
  C14      1.0000 0.71150  0.13800  0.04980  Biso   1.000  C
  C15      1.0000 0.71150  0.36200  0.54980  Biso   1.000  C
  C16      1.0000 0.28850  0.86200  0.95020  Biso   1.000  C
  H9       1.0000 0.27350  0.73300  0.48320  Biso   1.000  H
  H10      1.0000 0.72650  0.23300  0.01680  Biso   1.000  H
  H11      1.0000 0.72650  0.26700  0.51680  Biso   1.000  H
  H12      1.0000 0.27350  0.76700  0.98320  Biso   1.000  H
  C17      1.0000 0.20980  0.51640  0.41710  Biso   1.000  C
  C18      1.0000 0.79020  0.01640  0.08290  Biso   1.000  C
  C19      1.0000 0.79020  0.48360  0.58290  Biso   1.000  C
  C20      1.0000 0.20980  0.98360  0.91710  Biso   1.000  C
  H13      1.0000 0.14240  0.53240  0.42760  Biso   1.000  H
  H14      1.0000 0.85760  0.03240  0.07240  Biso   1.000  H
  H15      1.0000 0.85760  0.46760  0.57240  Biso   1.000  H
  H16      1.0000 0.14240  0.96760  0.92760  Biso   1.000  H
  C21      1.0000 0.34040  0.19160  0.30920  Biso   1.000  C
  C22      1.0000 0.65960  0.69160  0.19080  Biso   1.000  C
  C23      1.0000 0.65960  0.80840  0.69080  Biso   1.000  C
  C24      1.0000 0.34040  0.30840  0.80920  Biso   1.000  C
  H17      1.0000 0.40500  0.16190  0.29600  Biso   1.000  H
  H18      1.0000 0.59500  0.66190  0.20400  Biso   1.000  H
  H19      1.0000 0.59500  0.83810  0.70400  Biso   1.000  H
  H20      1.0000 0.40500  0.33810  0.79600  Biso   1.000  H
  N5       1.0000 0.26000  0.09430  0.28610  Biso   1.000  N
  N6       1.0000 0.74000  0.59430  0.21390  Biso   1.000  N
  N7       1.0000 0.74000  0.90570  0.71390  Biso   1.000  N
  N8       1.0000 0.26000  0.40570  0.78610  Biso   1.000  N
  C25      1.0000 0.26400  0.93030  0.23700  Biso   1.000  C
  C26      1.0000 0.73600  0.43030  0.26300  Biso   1.000  C
  C27      1.0000 0.73600  0.06970  0.76300  Biso   1.000  C
  C28      1.0000 0.26400  0.56970  0.73700  Biso   1.000  C
  H21      1.0000 0.26540  0.82730  0.27380  Biso   1.000  H
  H22      1.0000 0.73460  0.32730  0.22620  Biso   1.000  H
  H23      1.0000 0.73460  0.17270  0.72620  Biso   1.000  H
  H24      1.0000 0.26540  0.67270  0.77380  Biso   1.000  H
  H25      1.0000 0.32790  0.92930  0.21420  Biso   1.000  H
  H26      1.0000 0.67210  0.42930  0.28580  Biso   1.000  H
  H27      1.0000 0.67210  0.07070  0.78580  Biso   1.000  H
  H28      1.0000 0.32790  0.57070  0.71420  Biso   1.000  H
  C29      1.0000 0.16840  0.91840  0.16440  Biso   1.000  C
  C30      1.0000 0.83160  0.41840  0.33560  Biso   1.000  C
  C31      1.0000 0.83160  0.08160  0.83560  Biso   1.000  C
  C32      1.0000 0.16840  0.58160  0.66440  Biso   1.000  C
  H29      1.0000 0.16520  0.02540  0.13000  Biso   1.000  H
  H30      1.0000 0.83480  0.52540  0.37000  Biso   1.000  H
  H31      1.0000 0.83480  0.97460  0.87000  Biso   1.000  H
  H32      1.0000 0.16520  0.47460  0.63000  Biso   1.000  H
  H33      1.0000 0.17740  0.81730  0.12870  Biso   1.000  H
  H34      1.0000 0.82260  0.31730  0.37130  Biso   1.000  H
  H35      1.0000 0.82260  0.18270  0.87130  Biso   1.000  H
  H36      1.0000 0.17740  0.68270  0.62870  Biso   1.000  H
  C33      1.0000 0.06480  0.89770  0.19370  Biso   1.000  C
  C34      1.0000 0.93520  0.39770  0.30630  Biso   1.000  C
  C35      1.0000 0.93520  0.10230  0.80630  Biso   1.000  C
  C36      1.0000 0.06480  0.60230  0.69370  Biso   1.000  C
  O1       1.0000 0.04390  0.99390  0.25260  Biso   1.000  O
  O2       1.0000 0.95610  0.49390  0.24740  Biso   1.000  O
  O3       1.0000 0.95610  0.00610  0.74740  Biso   1.000  O
  O4       1.0000 0.04390  0.50610  0.75260  Biso   1.000  O
  O5       1.0000 0.00160  0.78240  0.15610  Biso   1.000  O
  O6       1.0000 0.99840  0.28240  0.34390  Biso   1.000  O
  O7       1.0000 0.99840  0.21760  0.84390  Biso   1.000  O
  O8       1.0000 0.00160  0.71760  0.65610  Biso   1.000  O
  O9       1.0000 0.15090  0.04870  0.44640  Biso   1.000  O
  O10      1.0000 0.84910  0.54870  0.05360  Biso   1.000  O
  O11      1.0000 0.84910  0.95130  0.55360  Biso   1.000  O
  O12      1.0000 0.15090  0.45130  0.94640  Biso   1.000  O
  H37      1.0000 0.11180  0.94850  0.44160  Biso   1.000  H
  H38      1.0000 0.88820  0.44850  0.05840  Biso   1.000  H
  H39      1.0000 0.88820  0.05150  0.55840  Biso   1.000  H
  H40      1.0000 0.11180  0.55150  0.94160  Biso   1.000  H
  H41      1.0000 0.21520  0.99860  0.45370  Biso   1.000  H
  H42      1.0000 0.78480  0.49860  0.04630  Biso   1.000  H
  H43      1.0000 0.78480  0.00140  0.54630  Biso   1.000  H
  H44      1.0000 0.21520  0.50140  0.95370  Biso   1.000  H
  O13      1.0000 0.02824  0.75870  0.47817  Biso   1.000  O
  O14      1.0000 0.97176  0.25870  0.02183  Biso   1.000  O
  O15      1.0000 0.97176  0.24130  0.52183  Biso   1.000  O
  O16      1.0000 0.02824  0.74130  0.97817  Biso   1.000  O
  H45      1.0000 0.98933  0.76240  0.51865  Biso   1.000  H
  H46      1.0000 0.01067  0.26240  0.98135  Biso   1.000  H
  H47      1.0000 0.01067  0.23760  0.48135  Biso   1.000  H
  H48      1.0000 0.98933  0.73760  0.01865  Biso   1.000  H
  H49      1.0000 0.98615  0.80220  0.43117  Biso   1.000  H
  H50      1.0000 0.01385  0.30220  0.06883  Biso   1.000  H
  H51      1.0000 0.01385  0.19780  0.56883  Biso   1.000  H
  H52      1.0000 0.98615  0.69780  0.93117  Biso   1.000  H
  O17      1.0000 0.11150  0.36140  0.16970  Biso   1.000  O
  O18      1.0000 0.88850  0.86140  0.33030  Biso   1.000  O
  O19      1.0000 0.88850  0.63860  0.83030  Biso   1.000  O
  O20      1.0000 0.11150  0.13860  0.66970  Biso   1.000  O
  H53      1.0000 0.07585  0.44260  0.19409  Biso   1.000  H
  H54      1.0000 0.92415  0.94260  0.30591  Biso   1.000  H
  H55      1.0000 0.92415  0.55740  0.80591  Biso   1.000  H
  H56      1.0000 0.07585  0.05740  0.69409  Biso   1.000  H
  H57      1.0000 0.12565  0.40030  0.12023  Biso   1.000  H
  H58      1.0000 0.87435  0.90030  0.37977  Biso   1.000  H
  H59      1.0000 0.87435  0.59970  0.87977  Biso   1.000  H
  H60      1.0000 0.12565  0.09970  0.62023  Biso   1.000  H
  Cl1      1.0000 0.38276  0.43620  0.12000  Biso   1.000  Cl
  Cl2      1.0000 0.61724  0.93620  0.38000  Biso   1.000  Cl
  Cl3      1.0000 0.61724  0.56380  0.88000  Biso   1.000  Cl
  Cl4      1.0000 0.38276  0.06380  0.62000  Biso   1.000  Cl
  O21      1.0000 0.33345  0.25630  0.09309  Biso   1.000  O
  O22      1.0000 0.66655  0.75630  0.40691  Biso   1.000  O
  O23      1.0000 0.66655  0.74370  0.90691  Biso   1.000  O
  O24      1.0000 0.33345  0.24370  0.59309  Biso   1.000  O
  O25      1.0000 0.30688  0.52260  0.15532  Biso   1.000  O
  O26      1.0000 0.69312  0.02260  0.34468  Biso   1.000  O
  O27      1.0000 0.69312  0.47740  0.84468  Biso   1.000  O
  O28      1.0000 0.30688  0.97740  0.65532  Biso   1.000  O
  O29      1.0000 0.46655  0.37930  0.18197  Biso   1.000  O
  O30      1.0000 0.53345  0.87930  0.31803  Biso   1.000  O
  O31      1.0000 0.53345  0.62070  0.81803  Biso   1.000  O
  O32      1.0000 0.46655  0.12070  0.68197  Biso   1.000  O
  O33      1.0000 0.42911  0.59490  0.08662  Biso   1.000  O
  O34      1.0000 0.57089  0.09490  0.41338  Biso   1.000  O
  O35      1.0000 0.57089  0.40510  0.91338  Biso   1.000  O
  O36      1.0000 0.42911  0.90510  0.58662  Biso   1.000  O
  O37      1.0000 0.34161  0.34610  0.06009  Biso   1.000  O
  O38      1.0000 0.65839  0.84610  0.43991  Biso   1.000  O
  O39      1.0000 0.65839  0.65390  0.93991  Biso   1.000  O
  O40      1.0000 0.34161  0.15390  0.56009  Biso   1.000  O
  O41      1.0000 0.40477  0.48530  0.04380  Biso   1.000  O
  O42      1.0000 0.59523  0.98530  0.45620  Biso   1.000  O
  O43      1.0000 0.59523  0.51470  0.95620  Biso   1.000  O
  O44      1.0000 0.40477  0.01470  0.54380  Biso   1.000  O
