data_image0
_cell_length_a       12.8651
_cell_length_b       7.4508
_cell_length_c       15.8758
_cell_angle_alpha    90
_cell_angle_beta     101.305
_cell_angle_gamma    90

_symmetry_space_group_name_H-M    "P 1"
_symmetry_int_tables_number       1

loop_
  _symmetry_equiv_pos_as_xyz
  'x, y, z'

loop_
  _atom_site_label
  _atom_site_occupancy
  _atom_site_fract_x
  _atom_site_fract_y
  _atom_site_fract_z
  _atom_site_thermal_displace_type
  _atom_site_B_iso_or_equiv
  _atom_site_type_symbol
  Cu1      1.0000 0.13085  0.18931  0.31614  Biso   1.000  Cu
  Cu2      1.0000 0.86915  0.68931  0.18386  Biso   1.000  Cu
  Cu3      1.0000 0.86915  0.81069  0.68386  Biso   1.000  Cu
  Cu4      1.0000 0.13085  0.31069  0.81614  Biso   1.000  Cu
  N1       1.0000 0.23120  0.38060  0.37099  Biso   1.000  N
  N2       1.0000 0.76880  0.88060  0.12901  Biso   1.000  N
  N3       1.0000 0.76880  0.61940  0.62901  Biso   1.000  N
  N4       1.0000 0.23120  0.11940  0.87099  Biso   1.000  N
  C1       1.0000 0.21150  0.52270  0.41630  Biso   1.000  C
  C2       1.0000 0.78850  0.02270  0.08370  Biso   1.000  C
  C3       1.0000 0.78850  0.47730  0.58370  Biso   1.000  C
  C4       1.0000 0.21150  0.97730  0.91630  Biso   1.000  C
  H1       1.0000 0.14260  0.54110  0.42610  Biso   1.000  H
  H2       1.0000 0.85740  0.04110  0.07390  Biso   1.000  H
  H3       1.0000 0.85740  0.45890  0.57390  Biso   1.000  H
  H4       1.0000 0.14260  0.95890  0.92610  Biso   1.000  H
  C5       1.0000 0.29080  0.64410  0.44940  Biso   1.000  C
  C6       1.0000 0.70920  0.14410  0.05060  Biso   1.000  C
  C7       1.0000 0.70920  0.35590  0.55060  Biso   1.000  C
  C8       1.0000 0.29080  0.85590  0.94940  Biso   1.000  C
  H5       1.0000 0.27550  0.74200  0.48230  Biso   1.000  H
  H6       1.0000 0.72450  0.24200  0.01770  Biso   1.000  H
  H7       1.0000 0.72450  0.25800  0.51770  Biso   1.000  H
  H8       1.0000 0.27550  0.75800  0.98230  Biso   1.000  H
  C9       1.0000 0.39110  0.62180  0.43440  Biso   1.000  C
  C10      1.0000 0.60890  0.12180  0.06560  Biso   1.000  C
  C11      1.0000 0.60890  0.37820  0.56560  Biso   1.000  C
  C12      1.0000 0.39110  0.87820  0.93440  Biso   1.000  C
  H9       1.0000 0.44470  0.70550  0.45510  Biso   1.000  H
  H10      1.0000 0.55530  0.20550  0.04490  Biso   1.000  H
  H11      1.0000 0.55530  0.29450  0.54490  Biso   1.000  H
  H12      1.0000 0.44470  0.79450  0.95510  Biso   1.000  H
  C13      1.0000 0.41220  0.47310  0.38780  Biso   1.000  C
  C14      1.0000 0.58780  0.97310  0.11220  Biso   1.000  C
  C15      1.0000 0.58780  0.52690  0.61220  Biso   1.000  C
  C16      1.0000 0.41220  0.02690  0.88780  Biso   1.000  C
  H13      1.0000 0.48050  0.45340  0.37680  Biso   1.000  H
  H14      1.0000 0.51950  0.95340  0.12320  Biso   1.000  H
  H15      1.0000 0.51950  0.54660  0.62320  Biso   1.000  H
  H16      1.0000 0.48050  0.04660  0.87680  Biso   1.000  H
  C17      1.0000 0.33030  0.35430  0.35803  Biso   1.000  C
  C18      1.0000 0.66970  0.85430  0.14197  Biso   1.000  C
  C19      1.0000 0.66970  0.64570  0.64197  Biso   1.000  C
  C20      1.0000 0.33030  0.14570  0.85803  Biso   1.000  C
  C21      1.0000 0.34300  0.19100  0.30970  Biso   1.000  C
  C22      1.0000 0.65700  0.69100  0.19030  Biso   1.000  C
  C23      1.0000 0.65700  0.80900  0.69030  Biso   1.000  C
  C24      1.0000 0.34300  0.30900  0.80970  Biso   1.000  C
  H17      1.0000 0.40890  0.15910  0.29690  Biso   1.000  H
  H18      1.0000 0.59110  0.65910  0.20310  Biso   1.000  H
  H19      1.0000 0.59110  0.84090  0.70310  Biso   1.000  H
  H20      1.0000 0.40890  0.34090  0.79690  Biso   1.000  H
  N5       1.0000 0.26140  0.09460  0.28572  Biso   1.000  N
  N6       1.0000 0.73860  0.59460  0.21428  Biso   1.000  N
  N7       1.0000 0.73860  0.90540  0.71428  Biso   1.000  N
  N8       1.0000 0.26140  0.40540  0.78572  Biso   1.000  N
  C25      1.0000 0.26460  0.93070  0.23610  Biso   1.000  C
  C26      1.0000 0.73540  0.43070  0.26390  Biso   1.000  C
  C27      1.0000 0.73540  0.06930  0.76390  Biso   1.000  C
  C28      1.0000 0.26460  0.56930  0.73610  Biso   1.000  C
  H21      1.0000 0.26500  0.82600  0.27350  Biso   1.000  H
  H22      1.0000 0.73500  0.32600  0.22650  Biso   1.000  H
  H23      1.0000 0.73500  0.17400  0.72650  Biso   1.000  H
  H24      1.0000 0.26500  0.67400  0.77350  Biso   1.000  H
  H25      1.0000 0.32980  0.92830  0.21280  Biso   1.000  H
  H26      1.0000 0.67020  0.42830  0.28720  Biso   1.000  H
  H27      1.0000 0.67020  0.07170  0.78720  Biso   1.000  H
  H28      1.0000 0.32980  0.57170  0.71280  Biso   1.000  H
  C29      1.0000 0.16860  0.92210  0.16270  Biso   1.000  C
  C30      1.0000 0.83140  0.42210  0.33730  Biso   1.000  C
  C31      1.0000 0.83140  0.07790  0.83730  Biso   1.000  C
  C32      1.0000 0.16860  0.57790  0.66270  Biso   1.000  C
  H29      1.0000 0.16610  0.03210  0.12850  Biso   1.000  H
  H30      1.0000 0.83390  0.53210  0.37150  Biso   1.000  H
  H31      1.0000 0.83390  0.96790  0.87150  Biso   1.000  H
  H32      1.0000 0.16610  0.46790  0.62850  Biso   1.000  H
  H33      1.0000 0.17730  0.82080  0.12540  Biso   1.000  H
  H34      1.0000 0.82270  0.32080  0.37460  Biso   1.000  H
  H35      1.0000 0.82270  0.17920  0.87460  Biso   1.000  H
  H36      1.0000 0.17730  0.67920  0.62540  Biso   1.000  H
  C33      1.0000 0.06440  0.90130  0.19259  Biso   1.000  C
  C34      1.0000 0.93560  0.40130  0.30741  Biso   1.000  C
  C35      1.0000 0.93560  0.09870  0.80741  Biso   1.000  C
  C36      1.0000 0.06440  0.59870  0.69259  Biso   1.000  C
  O1       1.0000 0.04416  0.99670  0.25270  Biso   1.000  O
  O2       1.0000 0.95584  0.49670  0.24730  Biso   1.000  O
  O3       1.0000 0.95584  0.00330  0.74730  Biso   1.000  O
  O4       1.0000 0.04416  0.50330  0.75270  Biso   1.000  O
  O5       1.0000 0.00054  0.78640  0.15456  Biso   1.000  O
  O6       1.0000 0.99946  0.28640  0.34544  Biso   1.000  O
  O7       1.0000 0.99946  0.21360  0.84544  Biso   1.000  O
  O8       1.0000 0.00054  0.71360  0.65456  Biso   1.000  O
  O9       1.0000 0.15230  0.05090  0.44649  Biso   1.000  O
  O10      1.0000 0.84770  0.55090  0.05351  Biso   1.000  O
  O11      1.0000 0.84770  0.94910  0.55351  Biso   1.000  O
  O12      1.0000 0.15230  0.44910  0.94649  Biso   1.000  O
  H37      1.0000 0.12200  0.97300  0.46000  Biso   1.000  H
  H38      1.0000 0.87800  0.47300  0.04000  Biso   1.000  H
  H39      1.0000 0.87800  0.02700  0.54000  Biso   1.000  H
  H40      1.0000 0.12200  0.52700  0.96000  Biso   1.000  H
  H41      1.0000 0.20100  0.06400  0.48100  Biso   1.000  H
  H42      1.0000 0.79900  0.56400  0.01900  Biso   1.000  H
  H43      1.0000 0.79900  0.93600  0.51900  Biso   1.000  H
  H44      1.0000 0.20100  0.43600  0.98100  Biso   1.000  H
  Cl1      1.0000 0.38308  0.43761  0.12200  Biso   1.000  Cl
  Cl2      1.0000 0.61692  0.93761  0.37800  Biso   1.000  Cl
  Cl3      1.0000 0.61692  0.56239  0.87800  Biso   1.000  Cl
  Cl4      1.0000 0.38308  0.06239  0.62200  Biso   1.000  Cl
  O13      1.0000 0.30680  0.53090  0.15850  Biso   1.000  O
  O14      1.0000 0.69320  0.03090  0.34150  Biso   1.000  O
  O15      1.0000 0.69320  0.46910  0.84150  Biso   1.000  O
  O16      1.0000 0.30680  0.96910  0.65850  Biso   1.000  O
  O17      1.0000 0.46650  0.37910  0.18630  Biso   1.000  O
  O18      1.0000 0.53350  0.87910  0.31370  Biso   1.000  O
  O19      1.0000 0.53350  0.62090  0.81370  Biso   1.000  O
  O20      1.0000 0.46650  0.12090  0.68630  Biso   1.000  O
  O21      1.0000 0.33120  0.29060  0.07930  Biso   1.000  O
  O22      1.0000 0.66880  0.79060  0.42070  Biso   1.000  O
  O23      1.0000 0.66880  0.70940  0.92070  Biso   1.000  O
  O24      1.0000 0.33120  0.20940  0.57930  Biso   1.000  O
  O25      1.0000 0.42460  0.54670  0.06710  Biso   1.000  O
  O26      1.0000 0.57540  0.04670  0.43290  Biso   1.000  O
  O27      1.0000 0.57540  0.45330  0.93290  Biso   1.000  O
  O28      1.0000 0.42460  0.95330  0.56710  Biso   1.000  O
  O29      1.0000 0.03220  0.76250  0.47862  Biso   1.000  O
  O30      1.0000 0.96780  0.26250  0.02138  Biso   1.000  O
  O31      1.0000 0.96780  0.23750  0.52138  Biso   1.000  O
  O32      1.0000 0.03220  0.73750  0.97862  Biso   1.000  O
  H45      1.0000 0.01100  0.75900  0.52010  Biso   1.000  H
  H46      1.0000 0.98900  0.25900  0.97990  Biso   1.000  H
  H47      1.0000 0.98900  0.24100  0.47990  Biso   1.000  H
  H48      1.0000 0.01100  0.74100  0.02010  Biso   1.000  H
  H49      1.0000 0.98400  0.78300  0.44330  Biso   1.000  H
  H50      1.0000 0.01600  0.28300  0.05670  Biso   1.000  H
  H51      1.0000 0.01600  0.21700  0.55670  Biso   1.000  H
  H52      1.0000 0.98400  0.71700  0.94330  Biso   1.000  H
  O33      1.0000 0.11140  0.36270  0.16894  Biso   1.000  O
  O34      1.0000 0.88860  0.86270  0.33106  Biso   1.000  O
  O35      1.0000 0.88860  0.63730  0.83106  Biso   1.000  O
  O36      1.0000 0.11140  0.13730  0.66894  Biso   1.000  O
  H53      1.0000 0.07500  0.42800  0.18500  Biso   1.000  H
  H54      1.0000 0.92500  0.92800  0.31500  Biso   1.000  H
  H55      1.0000 0.92500  0.57200  0.81500  Biso   1.000  H
  H56      1.0000 0.07500  0.07200  0.68500  Biso   1.000  H
  H57      1.0000 0.16200  0.41500  0.16700  Biso   1.000  H
  H58      1.0000 0.83800  0.91500  0.33300  Biso   1.000  H
  H59      1.0000 0.83800  0.58500  0.83300  Biso   1.000  H
  H60      1.0000 0.16200  0.08500  0.66700  Biso   1.000  H
