data_image0
_cell_length_a       5.4662
_cell_length_b       21.256
_cell_length_c       18.319
_cell_angle_alpha    90
_cell_angle_beta     94.938
_cell_angle_gamma    90

_symmetry_space_group_name_H-M    "P 1"
_symmetry_int_tables_number       1

loop_
  _symmetry_equiv_pos_as_xyz
  'x, y, z'

loop_
  _atom_site_label
  _atom_site_occupancy
  _atom_site_fract_x
  _atom_site_fract_y
  _atom_site_fract_z
  _atom_site_thermal_displace_type
  _atom_site_B_iso_or_equiv
  _atom_site_type_symbol
  Cu1      1.0000 0.50000  0.50000  0.50000  Biso   1.000  Cu
  Cu2      1.0000 0.50000  0.50000  0.00000  Biso   1.000  Cu
  Cu3      1.0000 0.00000  0.00000  0.50000  Biso   1.000  Cu
  Cu4      1.0000 0.00000  0.00000  0.00000  Biso   1.000  Cu
  O1       1.0000 0.67880  0.56904  0.54939  Biso   1.000  O
  O2       1.0000 0.32120  0.56904  0.95061  Biso   1.000  O
  O3       1.0000 0.17880  0.06904  0.54939  Biso   1.000  O
  O4       1.0000 0.82120  0.06904  0.95061  Biso   1.000  O
  O5       1.0000 0.32120  0.43096  0.45061  Biso   1.000  O
  O6       1.0000 0.67880  0.43096  0.04939  Biso   1.000  O
  O7       1.0000 0.82120  0.93096  0.45061  Biso   1.000  O
  O8       1.0000 0.17880  0.93096  0.04939  Biso   1.000  O
  N1       1.0000 0.67460  0.43843  0.57077  Biso   1.000  N
  N2       1.0000 0.32540  0.43843  0.92923  Biso   1.000  N
  N3       1.0000 0.17460  0.93843  0.57077  Biso   1.000  N
  N4       1.0000 0.82540  0.93843  0.92923  Biso   1.000  N
  N5       1.0000 0.32540  0.56157  0.42923  Biso   1.000  N
  N6       1.0000 0.67460  0.56157  0.07077  Biso   1.000  N
  N7       1.0000 0.82540  0.06157  0.42923  Biso   1.000  N
  N8       1.0000 0.17460  0.06157  0.07077  Biso   1.000  N
  O9       1.0000 0.37810  0.55608  0.62082  Biso   1.000  O
  O10      1.0000 0.62190  0.55608  0.87918  Biso   1.000  O
  O11      1.0000 0.87810  0.05608  0.62082  Biso   1.000  O
  O12      1.0000 0.12190  0.05608  0.87918  Biso   1.000  O
  O13      1.0000 0.62190  0.44392  0.37918  Biso   1.000  O
  O14      1.0000 0.37810  0.44392  0.12082  Biso   1.000  O
  O15      1.0000 0.12190  0.94392  0.37918  Biso   1.000  O
  O16      1.0000 0.87810  0.94392  0.12082  Biso   1.000  O
  C1       1.0000 0.99540  0.41413  0.66260  Biso   1.000  C
  C2       1.0000 0.00460  0.41413  0.83740  Biso   1.000  C
  C3       1.0000 0.49540  0.91413  0.66260  Biso   1.000  C
  C4       1.0000 0.50460  0.91413  0.83740  Biso   1.000  C
  C5       1.0000 0.00460  0.58587  0.33740  Biso   1.000  C
  C6       1.0000 0.99540  0.58587  0.16260  Biso   1.000  C
  C7       1.0000 0.50460  0.08587  0.33740  Biso   1.000  C
  C8       1.0000 0.49540  0.08587  0.16260  Biso   1.000  C
  H1       1.0000 0.14600  0.42480  0.68700  Biso   1.000  H
  H2       1.0000 0.85400  0.42480  0.81300  Biso   1.000  H
  H3       1.0000 0.64600  0.92480  0.68700  Biso   1.000  H
  H4       1.0000 0.35400  0.92480  0.81300  Biso   1.000  H
  H5       1.0000 0.85400  0.57520  0.31300  Biso   1.000  H
  H6       1.0000 0.14600  0.57520  0.18700  Biso   1.000  H
  H7       1.0000 0.35400  0.07520  0.31300  Biso   1.000  H
  H8       1.0000 0.64600  0.07520  0.18700  Biso   1.000  H
  C9       1.0000 0.87450  0.36123  0.68180  Biso   1.000  C
  C10      1.0000 0.12550  0.36123  0.81820  Biso   1.000  C
  C11      1.0000 0.37450  0.86123  0.68180  Biso   1.000  C
  C12      1.0000 0.62550  0.86123  0.81820  Biso   1.000  C
  C13      1.0000 0.12550  0.63877  0.31820  Biso   1.000  C
  C14      1.0000 0.87450  0.63877  0.18180  Biso   1.000  C
  C15      1.0000 0.62550  0.13877  0.31820  Biso   1.000  C
  C16      1.0000 0.37450  0.13877  0.18180  Biso   1.000  C
  C17      1.0000 0.89320  0.45135  0.60714  Biso   1.000  C
  C18      1.0000 0.10680  0.45135  0.89286  Biso   1.000  C
  C19      1.0000 0.39320  0.95135  0.60714  Biso   1.000  C
  C20      1.0000 0.60680  0.95135  0.89286  Biso   1.000  C
  C21      1.0000 0.10680  0.54865  0.39286  Biso   1.000  C
  C22      1.0000 0.89320  0.54865  0.10714  Biso   1.000  C
  C23      1.0000 0.60680  0.04865  0.39286  Biso   1.000  C
  C24      1.0000 0.39320  0.04865  0.10714  Biso   1.000  C
  H9       1.0000 0.97810  0.48700  0.59410  Biso   1.000  H
  H10      1.0000 0.02190  0.48700  0.90590  Biso   1.000  H
  H11      1.0000 0.47810  0.98700  0.59410  Biso   1.000  H
  H12      1.0000 0.52190  0.98700  0.90590  Biso   1.000  H
  H13      1.0000 0.02190  0.51300  0.40590  Biso   1.000  H
  H14      1.0000 0.97810  0.51300  0.09410  Biso   1.000  H
  H15      1.0000 0.52190  0.01300  0.40590  Biso   1.000  H
  H16      1.0000 0.47810  0.01300  0.09410  Biso   1.000  H
  C25      1.0000 0.81420  0.71064  0.56130  Biso   1.000  C
  C26      1.0000 0.18580  0.71064  0.93870  Biso   1.000  C
  C27      1.0000 0.31420  0.21064  0.56130  Biso   1.000  C
  C28      1.0000 0.68580  0.21064  0.93870  Biso   1.000  C
  C29      1.0000 0.18580  0.28936  0.43870  Biso   1.000  C
  C30      1.0000 0.81420  0.28936  0.06130  Biso   1.000  C
  C31      1.0000 0.68580  0.78936  0.43870  Biso   1.000  C
  C32      1.0000 0.31420  0.78936  0.06130  Biso   1.000  C
  C33      1.0000 0.65300  0.34652  0.64340  Biso   1.000  C
  C34      1.0000 0.34700  0.34652  0.85660  Biso   1.000  C
  C35      1.0000 0.15300  0.84652  0.64340  Biso   1.000  C
  C36      1.0000 0.84700  0.84652  0.85660  Biso   1.000  C
  C37      1.0000 0.34700  0.65348  0.35660  Biso   1.000  C
  C38      1.0000 0.65300  0.65348  0.14340  Biso   1.000  C
  C39      1.0000 0.84700  0.15348  0.35660  Biso   1.000  C
  C40      1.0000 0.15300  0.15348  0.14340  Biso   1.000  C
  H17      1.0000 0.56780  0.31040  0.65470  Biso   1.000  H
  H18      1.0000 0.43220  0.31040  0.84530  Biso   1.000  H
  H19      1.0000 0.06780  0.81040  0.65470  Biso   1.000  H
  H20      1.0000 0.93220  0.81040  0.84530  Biso   1.000  H
  H21      1.0000 0.43220  0.68960  0.34530  Biso   1.000  H
  H22      1.0000 0.56780  0.68960  0.15470  Biso   1.000  H
  H23      1.0000 0.93220  0.18960  0.34530  Biso   1.000  H
  H24      1.0000 0.06780  0.18960  0.15470  Biso   1.000  H
  C41      1.0000 0.56110  0.38576  0.58870  Biso   1.000  C
  C42      1.0000 0.43890  0.38576  0.91130  Biso   1.000  C
  C43      1.0000 0.06110  0.88576  0.58870  Biso   1.000  C
  C44      1.0000 0.93890  0.88576  0.91130  Biso   1.000  C
  C45      1.0000 0.43890  0.61424  0.41130  Biso   1.000  C
  C46      1.0000 0.56110  0.61424  0.08870  Biso   1.000  C
  C47      1.0000 0.93890  0.11424  0.41130  Biso   1.000  C
  C48      1.0000 0.06110  0.11424  0.08870  Biso   1.000  C
  H25      1.0000 0.41290  0.37530  0.56280  Biso   1.000  H
  H26      1.0000 0.58710  0.37530  0.93720  Biso   1.000  H
  H27      1.0000 0.91290  0.87530  0.56280  Biso   1.000  H
  H28      1.0000 0.08710  0.87530  0.93720  Biso   1.000  H
  H29      1.0000 0.58710  0.62470  0.43720  Biso   1.000  H
  H30      1.0000 0.41290  0.62470  0.06280  Biso   1.000  H
  H31      1.0000 0.08710  0.12470  0.43720  Biso   1.000  H
  H32      1.0000 0.91290  0.12470  0.06280  Biso   1.000  H
  C49      1.0000 0.95340  0.71309  0.50210  Biso   1.000  C
  C50      1.0000 0.04660  0.71309  0.99790  Biso   1.000  C
  C51      1.0000 0.45340  0.21309  0.50210  Biso   1.000  C
  C52      1.0000 0.54660  0.21309  0.99790  Biso   1.000  C
  C53      1.0000 0.04660  0.28691  0.49790  Biso   1.000  C
  C54      1.0000 0.95340  0.28691  0.00210  Biso   1.000  C
  C55      1.0000 0.54660  0.78691  0.49790  Biso   1.000  C
  C56      1.0000 0.45340  0.78691  0.00210  Biso   1.000  C
  H33      1.0000 0.09280  0.68800  0.50230  Biso   1.000  H
  H34      1.0000 0.90720  0.68800  0.99770  Biso   1.000  H
  H35      1.0000 0.59280  0.18800  0.50230  Biso   1.000  H
  H36      1.0000 0.40720  0.18800  0.99770  Biso   1.000  H
  H37      1.0000 0.90720  0.31200  0.49770  Biso   1.000  H
  H38      1.0000 0.09280  0.31200  0.00230  Biso   1.000  H
  H39      1.0000 0.40720  0.81200  0.49770  Biso   1.000  H
  H40      1.0000 0.59280  0.81200  0.00230  Biso   1.000  H
  C57      1.0000 0.56700  0.58253  0.60560  Biso   1.000  C
  C58      1.0000 0.43300  0.58253  0.89440  Biso   1.000  C
  C59      1.0000 0.06700  0.08253  0.60560  Biso   1.000  C
  C60      1.0000 0.93300  0.08253  0.89440  Biso   1.000  C
  C61      1.0000 0.43300  0.41747  0.39440  Biso   1.000  C
  C62      1.0000 0.56700  0.41747  0.10560  Biso   1.000  C
  C63      1.0000 0.93300  0.91747  0.39440  Biso   1.000  C
  C64      1.0000 0.06700  0.91747  0.10560  Biso   1.000  C
  C65      1.0000 0.89360  0.75147  0.44240  Biso   1.000  C
  C66      1.0000 0.10640  0.75147  0.05760  Biso   1.000  C
  C67      1.0000 0.39360  0.25147  0.44240  Biso   1.000  C
  C68      1.0000 0.60640  0.25147  0.05760  Biso   1.000  C
  C69      1.0000 0.10640  0.24853  0.55760  Biso   1.000  C
  C70      1.0000 0.89360  0.24853  0.94240  Biso   1.000  C
  C71      1.0000 0.60640  0.74853  0.55760  Biso   1.000  C
  C72      1.0000 0.39360  0.74853  0.94240  Biso   1.000  C
  H41      1.0000 0.99430  0.75200  0.40400  Biso   1.000  H
  H42      1.0000 0.00570  0.75200  0.09600  Biso   1.000  H
  H43      1.0000 0.49430  0.25200  0.40400  Biso   1.000  H
  H44      1.0000 0.50570  0.25200  0.09600  Biso   1.000  H
  H45      1.0000 0.00570  0.24800  0.59600  Biso   1.000  H
  H46      1.0000 0.99430  0.24800  0.90400  Biso   1.000  H
  H47      1.0000 0.50570  0.74800  0.59600  Biso   1.000  H
  H48      1.0000 0.49430  0.74800  0.90400  Biso   1.000  H
  C73      1.0000 0.88820  0.66968  0.62670  Biso   1.000  C
  C74      1.0000 0.11180  0.66968  0.87330  Biso   1.000  C
  C75      1.0000 0.38820  0.16968  0.62670  Biso   1.000  C
  C76      1.0000 0.61180  0.16968  0.87330  Biso   1.000  C
  C77      1.0000 0.11180  0.33032  0.37330  Biso   1.000  C
  C78      1.0000 0.88820  0.33032  0.12670  Biso   1.000  C
  C79      1.0000 0.61180  0.83032  0.37330  Biso   1.000  C
  C80      1.0000 0.38820  0.83032  0.12670  Biso   1.000  C
  H49      1.0000 0.96100  0.69630  0.66570  Biso   1.000  H
  H50      1.0000 0.03900  0.69630  0.83430  Biso   1.000  H
  H51      1.0000 0.46100  0.19630  0.66570  Biso   1.000  H
  H52      1.0000 0.53900  0.19630  0.83430  Biso   1.000  H
  H53      1.0000 0.03900  0.30370  0.33430  Biso   1.000  H
  H54      1.0000 0.96100  0.30370  0.16570  Biso   1.000  H
  H55      1.0000 0.53900  0.80370  0.33430  Biso   1.000  H
  H56      1.0000 0.46100  0.80370  0.16570  Biso   1.000  H
  H57      1.0000 0.01420  0.64070  0.61340  Biso   1.000  H
  H58      1.0000 0.98580  0.64070  0.88660  Biso   1.000  H
  H59      1.0000 0.51420  0.14070  0.61340  Biso   1.000  H
  H60      1.0000 0.48580  0.14070  0.88660  Biso   1.000  H
  H61      1.0000 0.98580  0.35930  0.38660  Biso   1.000  H
  H62      1.0000 0.01420  0.35930  0.11340  Biso   1.000  H
  H63      1.0000 0.48580  0.85930  0.38660  Biso   1.000  H
  H64      1.0000 0.51420  0.85930  0.11340  Biso   1.000  H
  C81      1.0000 0.68320  0.63181  0.65610  Biso   1.000  C
  C82      1.0000 0.31680  0.63181  0.84390  Biso   1.000  C
  C83      1.0000 0.18320  0.13181  0.65610  Biso   1.000  C
  C84      1.0000 0.81680  0.13181  0.84390  Biso   1.000  C
  C85      1.0000 0.31680  0.36819  0.34390  Biso   1.000  C
  C86      1.0000 0.68320  0.36819  0.15610  Biso   1.000  C
  C87      1.0000 0.81680  0.86819  0.34390  Biso   1.000  C
  C88      1.0000 0.18320  0.86819  0.15610  Biso   1.000  C
  H65      1.0000 0.74760  0.61140  0.70100  Biso   1.000  H
  H66      1.0000 0.25240  0.61140  0.79900  Biso   1.000  H
  H67      1.0000 0.24760  0.11140  0.70100  Biso   1.000  H
  H68      1.0000 0.75240  0.11140  0.79900  Biso   1.000  H
  H69      1.0000 0.25240  0.38860  0.29900  Biso   1.000  H
  H70      1.0000 0.74760  0.38860  0.20100  Biso   1.000  H
  H71      1.0000 0.75240  0.88860  0.29900  Biso   1.000  H
  H72      1.0000 0.24760  0.88860  0.20100  Biso   1.000  H
  H73      1.0000 0.55600  0.66070  0.66860  Biso   1.000  H
  H74      1.0000 0.44400  0.66070  0.83140  Biso   1.000  H
  H75      1.0000 0.05600  0.16070  0.66860  Biso   1.000  H
  H76      1.0000 0.94400  0.16070  0.83140  Biso   1.000  H
  H77      1.0000 0.44400  0.33930  0.33140  Biso   1.000  H
  H78      1.0000 0.55600  0.33930  0.16860  Biso   1.000  H
  H79      1.0000 0.94400  0.83930  0.33140  Biso   1.000  H
  H80      1.0000 0.05600  0.83930  0.16860  Biso   1.000  H
  S1       1.0000 0.00000  0.30874  0.75000  Biso   1.000  S
  S2       1.0000 0.50000  0.80874  0.75000  Biso   1.000  S
  S3       1.0000 0.00000  0.69126  0.25000  Biso   1.000  S
  S4       1.0000 0.50000  0.19126  0.25000  Biso   1.000  S
