data_image0
_cell_length_a       10.603
_cell_length_b       11.116
_cell_length_c       17.246
_cell_angle_alpha    90
_cell_angle_beta     105.471
_cell_angle_gamma    90

_symmetry_space_group_name_H-M    "P 1"
_symmetry_int_tables_number       1

loop_
  _symmetry_equiv_pos_as_xyz
  'x, y, z'

loop_
  _atom_site_label
  _atom_site_occupancy
  _atom_site_fract_x
  _atom_site_fract_y
  _atom_site_fract_z
  _atom_site_thermal_displace_type
  _atom_site_B_iso_or_equiv
  _atom_site_type_symbol
  Cu1      1.0000 0.50000  0.67368  0.75000  Biso   1.000  Cu
  Cu2      1.0000 0.00000  0.17368  0.75000  Biso   1.000  Cu
  Cu3      1.0000 0.50000  0.32632  0.25000  Biso   1.000  Cu
  Cu4      1.0000 0.00000  0.82632  0.25000  Biso   1.000  Cu
  O1       1.0000 0.60900  0.67470  0.62580  Biso   1.000  O
  O2       1.0000 0.39100  0.67470  0.87420  Biso   1.000  O
  O3       1.0000 0.10900  0.17470  0.62580  Biso   1.000  O
  O4       1.0000 0.89100  0.17470  0.87420  Biso   1.000  O
  O5       1.0000 0.39100  0.32530  0.37420  Biso   1.000  O
  O6       1.0000 0.60900  0.32530  0.12580  Biso   1.000  O
  O7       1.0000 0.89100  0.82530  0.37420  Biso   1.000  O
  O8       1.0000 0.10900  0.82530  0.12580  Biso   1.000  O
  O9       1.0000 0.40091  0.67213  0.63771  Biso   1.000  O
  O10      1.0000 0.59909  0.67213  0.86229  Biso   1.000  O
  O11      1.0000 0.90091  0.17213  0.63771  Biso   1.000  O
  O12      1.0000 0.09909  0.17213  0.86229  Biso   1.000  O
  O13      1.0000 0.59909  0.32787  0.36229  Biso   1.000  O
  O14      1.0000 0.40091  0.32787  0.13771  Biso   1.000  O
  O15      1.0000 0.09909  0.82787  0.36229  Biso   1.000  O
  O16      1.0000 0.90091  0.82787  0.13771  Biso   1.000  O
  N1       1.0000 0.50000  0.49219  0.75000  Biso   1.000  N
  N2       1.0000 0.00000  0.99219  0.75000  Biso   1.000  N
  N3       1.0000 0.50000  0.50781  0.25000  Biso   1.000  N
  N4       1.0000 0.00000  0.00781  0.25000  Biso   1.000  N
  N5       1.0000 0.50000  0.85565  0.75000  Biso   1.000  N
  N6       1.0000 0.00000  0.35565  0.75000  Biso   1.000  N
  N7       1.0000 0.50000  0.14435  0.25000  Biso   1.000  N
  N8       1.0000 0.00000  0.64435  0.25000  Biso   1.000  N
  C1       1.0000 0.38857  0.42995  0.72514  Biso   1.000  C
  C2       1.0000 0.61143  0.42995  0.77486  Biso   1.000  C
  C3       1.0000 0.88857  0.92995  0.72514  Biso   1.000  C
  C4       1.0000 0.11143  0.92995  0.77486  Biso   1.000  C
  C5       1.0000 0.61143  0.57005  0.27486  Biso   1.000  C
  C6       1.0000 0.38857  0.57005  0.22514  Biso   1.000  C
  C7       1.0000 0.11143  0.07005  0.27486  Biso   1.000  C
  C8       1.0000 0.88857  0.07005  0.22514  Biso   1.000  C
  H1       1.0000 0.31040  0.47220  0.70760  Biso   1.000  H
  H2       1.0000 0.68960  0.47220  0.79240  Biso   1.000  H
  H3       1.0000 0.81040  0.97220  0.70760  Biso   1.000  H
  H4       1.0000 0.18960  0.97220  0.79240  Biso   1.000  H
  H5       1.0000 0.68960  0.52780  0.29240  Biso   1.000  H
  H6       1.0000 0.31040  0.52780  0.20760  Biso   1.000  H
  H7       1.0000 0.18960  0.02780  0.29240  Biso   1.000  H
  H8       1.0000 0.81040  0.02780  0.20760  Biso   1.000  H
  C9       1.0000 0.38422  0.30562  0.72439  Biso   1.000  C
  C10      1.0000 0.61578  0.30562  0.77561  Biso   1.000  C
  C11      1.0000 0.88422  0.80562  0.72439  Biso   1.000  C
  C12      1.0000 0.11578  0.80562  0.77561  Biso   1.000  C
  C13      1.0000 0.61578  0.69438  0.27561  Biso   1.000  C
  C14      1.0000 0.38422  0.69438  0.22439  Biso   1.000  C
  C15      1.0000 0.11578  0.19438  0.27561  Biso   1.000  C
  C16      1.0000 0.88422  0.19438  0.22439  Biso   1.000  C
  H9       1.0000 0.30460  0.26560  0.70690  Biso   1.000  H
  H10      1.0000 0.69540  0.26560  0.79310  Biso   1.000  H
  H11      1.0000 0.80460  0.76560  0.70690  Biso   1.000  H
  H12      1.0000 0.19540  0.76560  0.79310  Biso   1.000  H
  H13      1.0000 0.69540  0.73440  0.29310  Biso   1.000  H
  H14      1.0000 0.30460  0.73440  0.20690  Biso   1.000  H
  H15      1.0000 0.19540  0.23440  0.29310  Biso   1.000  H
  H16      1.0000 0.80460  0.23440  0.20690  Biso   1.000  H
  C17      1.0000 0.50000  0.24116  0.75000  Biso   1.000  C
  C18      1.0000 0.00000  0.74116  0.75000  Biso   1.000  C
  C19      1.0000 0.50000  0.75884  0.25000  Biso   1.000  C
  C20      1.0000 0.00000  0.25884  0.25000  Biso   1.000  C
  C21      1.0000 0.50000  0.10782  0.75000  Biso   1.000  C
  C22      1.0000 0.00000  0.60782  0.75000  Biso   1.000  C
  C23      1.0000 0.50000  0.89218  0.25000  Biso   1.000  C
  C24      1.0000 0.00000  0.39218  0.25000  Biso   1.000  C
  C25      1.0000 0.40191  0.04268  0.69707  Biso   1.000  C
  C26      1.0000 0.59809  0.04268  0.80293  Biso   1.000  C
  C27      1.0000 0.90191  0.54268  0.69707  Biso   1.000  C
  C28      1.0000 0.09809  0.54268  0.80293  Biso   1.000  C
  C29      1.0000 0.59809  0.95732  0.30293  Biso   1.000  C
  C30      1.0000 0.40191  0.95732  0.19707  Biso   1.000  C
  C31      1.0000 0.09809  0.45732  0.30293  Biso   1.000  C
  C32      1.0000 0.90191  0.45732  0.19707  Biso   1.000  C
  H17      1.0000 0.33380  0.08250  0.66100  Biso   1.000  H
  H18      1.0000 0.66620  0.08250  0.83900  Biso   1.000  H
  H19      1.0000 0.83380  0.58250  0.66100  Biso   1.000  H
  H20      1.0000 0.16620  0.58250  0.83900  Biso   1.000  H
  H21      1.0000 0.66620  0.91750  0.33900  Biso   1.000  H
  H22      1.0000 0.33380  0.91750  0.16100  Biso   1.000  H
  H23      1.0000 0.16620  0.41750  0.33900  Biso   1.000  H
  H24      1.0000 0.83380  0.41750  0.16100  Biso   1.000  H
  C33      1.0000 0.40626  0.91874  0.69847  Biso   1.000  C
  C34      1.0000 0.59374  0.91874  0.80153  Biso   1.000  C
  C35      1.0000 0.90626  0.41874  0.69847  Biso   1.000  C
  C36      1.0000 0.09374  0.41874  0.80153  Biso   1.000  C
  C37      1.0000 0.59374  0.08126  0.30153  Biso   1.000  C
  C38      1.0000 0.40626  0.08126  0.19847  Biso   1.000  C
  C39      1.0000 0.09374  0.58126  0.30153  Biso   1.000  C
  C40      1.0000 0.90626  0.58126  0.19847  Biso   1.000  C
  H25      1.0000 0.34080  0.87670  0.66180  Biso   1.000  H
  H26      1.0000 0.65920  0.87670  0.83820  Biso   1.000  H
  H27      1.0000 0.84080  0.37670  0.66180  Biso   1.000  H
  H28      1.0000 0.15920  0.37670  0.83820  Biso   1.000  H
  H29      1.0000 0.65920  0.12330  0.33820  Biso   1.000  H
  H30      1.0000 0.34080  0.12330  0.16180  Biso   1.000  H
  H31      1.0000 0.15920  0.62330  0.33820  Biso   1.000  H
  H32      1.0000 0.84080  0.62330  0.16180  Biso   1.000  H
  C41      1.0000 0.48588  0.66692  0.59756  Biso   1.000  C
  C42      1.0000 0.51412  0.66692  0.90244  Biso   1.000  C
  C43      1.0000 0.98588  0.16692  0.59756  Biso   1.000  C
  C44      1.0000 0.01412  0.16692  0.90244  Biso   1.000  C
  C45      1.0000 0.51412  0.33308  0.40244  Biso   1.000  C
  C46      1.0000 0.48588  0.33308  0.09756  Biso   1.000  C
  C47      1.0000 0.01412  0.83308  0.40244  Biso   1.000  C
  C48      1.0000 0.98588  0.83308  0.09756  Biso   1.000  C
  C49      1.0000 0.43350  0.66670  0.50717  Biso   1.000  C
  C50      1.0000 0.56650  0.66670  0.99283  Biso   1.000  C
  C51      1.0000 0.93350  0.16670  0.50717  Biso   1.000  C
  C52      1.0000 0.06650  0.16670  0.99283  Biso   1.000  C
  C53      1.0000 0.56650  0.33330  0.49283  Biso   1.000  C
  C54      1.0000 0.43350  0.33330  0.00717  Biso   1.000  C
  C55      1.0000 0.06650  0.83330  0.49283  Biso   1.000  C
  C56      1.0000 0.93350  0.83330  0.00717  Biso   1.000  C
  H33      1.0000 0.34410  0.69610  0.49290  Biso   1.000  H
  H34      1.0000 0.65590  0.69610  0.00710  Biso   1.000  H
  H35      1.0000 0.84410  0.19610  0.49290  Biso   1.000  H
  H36      1.0000 0.15590  0.19610  0.00710  Biso   1.000  H
  H37      1.0000 0.65590  0.30390  0.50710  Biso   1.000  H
  H38      1.0000 0.34410  0.30390  0.99290  Biso   1.000  H
  H39      1.0000 0.15590  0.80390  0.50710  Biso   1.000  H
  H40      1.0000 0.84410  0.80390  0.99290  Biso   1.000  H
  H41      1.0000 0.43210  0.58470  0.48770  Biso   1.000  H
  H42      1.0000 0.56790  0.58470  0.01230  Biso   1.000  H
  H43      1.0000 0.93210  0.08470  0.48770  Biso   1.000  H
  H44      1.0000 0.06790  0.08470  0.01230  Biso   1.000  H
  H45      1.0000 0.56790  0.41530  0.51230  Biso   1.000  H
  H46      1.0000 0.43210  0.41530  0.98770  Biso   1.000  H
  H47      1.0000 0.06790  0.91530  0.51230  Biso   1.000  H
  H48      1.0000 0.93210  0.91530  0.98770  Biso   1.000  H
  C57      1.0000 0.51420  0.74380  0.46595  Biso   1.000  C
  C58      1.0000 0.48580  0.74380  0.03405  Biso   1.000  C
  C59      1.0000 0.01420  0.24380  0.46595  Biso   1.000  C
  C60      1.0000 0.98580  0.24380  0.03405  Biso   1.000  C
  C61      1.0000 0.48580  0.25620  0.53405  Biso   1.000  C
  C62      1.0000 0.51420  0.25620  0.96595  Biso   1.000  C
  C63      1.0000 0.98580  0.75620  0.53405  Biso   1.000  C
  C64      1.0000 0.01420  0.75620  0.96595  Biso   1.000  C
  H49      1.0000 0.60470  0.71770  0.48330  Biso   1.000  H
  H50      1.0000 0.39530  0.71770  0.01670  Biso   1.000  H
  H51      1.0000 0.10470  0.21770  0.48330  Biso   1.000  H
  H52      1.0000 0.89530  0.21770  0.01670  Biso   1.000  H
  H53      1.0000 0.39530  0.28230  0.51670  Biso   1.000  H
  H54      1.0000 0.60470  0.28230  0.98330  Biso   1.000  H
  H55      1.0000 0.89530  0.78230  0.51670  Biso   1.000  H
  H56      1.0000 0.10470  0.78230  0.98330  Biso   1.000  H
  H57      1.0000 0.48370  0.73120  0.40830  Biso   1.000  H
  H58      1.0000 0.51630  0.73120  0.09170  Biso   1.000  H
  H59      1.0000 0.98370  0.23120  0.40830  Biso   1.000  H
  H60      1.0000 0.01630  0.23120  0.09170  Biso   1.000  H
  H61      1.0000 0.51630  0.26880  0.59170  Biso   1.000  H
  H62      1.0000 0.48370  0.26880  0.90830  Biso   1.000  H
  H63      1.0000 0.01630  0.76880  0.59170  Biso   1.000  H
  H64      1.0000 0.98370  0.76880  0.90830  Biso   1.000  H
  C65      1.0000 0.50780  0.87570  0.48320  Biso   1.000  C
  C66      1.0000 0.49220  0.87570  0.01680  Biso   1.000  C
  C67      1.0000 0.00780  0.37570  0.48320  Biso   1.000  C
  C68      1.0000 0.99220  0.37570  0.01680  Biso   1.000  C
  C69      1.0000 0.49220  0.12430  0.51680  Biso   1.000  C
  C70      1.0000 0.50780  0.12430  0.98320  Biso   1.000  C
  C71      1.0000 0.99220  0.62430  0.51680  Biso   1.000  C
  C72      1.0000 0.00780  0.62430  0.98320  Biso   1.000  C
  C73      1.0000 0.39400  0.94130  0.45268  Biso   1.000  C
  C74      1.0000 0.60600  0.94130  0.04732  Biso   1.000  C
  C75      1.0000 0.89400  0.44130  0.45268  Biso   1.000  C
  C76      1.0000 0.10600  0.44130  0.04732  Biso   1.000  C
  C77      1.0000 0.60600  0.05870  0.54732  Biso   1.000  C
  C78      1.0000 0.39400  0.05870  0.95268  Biso   1.000  C
  C79      1.0000 0.10600  0.55870  0.54732  Biso   1.000  C
  C80      1.0000 0.89400  0.55870  0.95268  Biso   1.000  C
  H65      1.0000 0.32070  0.90280  0.42050  Biso   1.000  H
  H66      1.0000 0.67930  0.90280  0.07950  Biso   1.000  H
  H67      1.0000 0.82070  0.40280  0.42050  Biso   1.000  H
  H68      1.0000 0.17930  0.40280  0.07950  Biso   1.000  H
  H69      1.0000 0.67930  0.09720  0.57950  Biso   1.000  H
  H70      1.0000 0.32070  0.09720  0.92050  Biso   1.000  H
  H71      1.0000 0.17930  0.59720  0.57950  Biso   1.000  H
  H72      1.0000 0.82070  0.59720  0.92050  Biso   1.000  H
  C81      1.0000 0.38690  0.06230  0.46890  Biso   1.000  C
  C82      1.0000 0.61310  0.06230  0.03110  Biso   1.000  C
  C83      1.0000 0.88690  0.56230  0.46890  Biso   1.000  C
  C84      1.0000 0.11310  0.56230  0.03110  Biso   1.000  C
  C85      1.0000 0.61310  0.93770  0.53110  Biso   1.000  C
  C86      1.0000 0.38690  0.93770  0.96890  Biso   1.000  C
  C87      1.0000 0.11310  0.43770  0.53110  Biso   1.000  C
  C88      1.0000 0.88690  0.43770  0.96890  Biso   1.000  C
  H73      1.0000 0.30910  0.10330  0.44700  Biso   1.000  H
  H74      1.0000 0.69090  0.10330  0.05300  Biso   1.000  H
  H75      1.0000 0.80910  0.60330  0.44700  Biso   1.000  H
  H76      1.0000 0.19090  0.60330  0.05300  Biso   1.000  H
  H77      1.0000 0.69090  0.89670  0.55300  Biso   1.000  H
  H78      1.0000 0.30910  0.89670  0.94700  Biso   1.000  H
  H79      1.0000 0.19090  0.39670  0.55300  Biso   1.000  H
  H80      1.0000 0.80910  0.39670  0.94700  Biso   1.000  H
  O17      1.0000 0.60110  0.64890  0.63410  Biso   1.000  O
  O18      1.0000 0.39890  0.64890  0.86590  Biso   1.000  O
  O19      1.0000 0.10110  0.14890  0.63410  Biso   1.000  O
  O20      1.0000 0.89890  0.14890  0.86590  Biso   1.000  O
  O21      1.0000 0.39890  0.35110  0.36590  Biso   1.000  O
  O22      1.0000 0.60110  0.35110  0.13410  Biso   1.000  O
  O23      1.0000 0.89890  0.85110  0.36590  Biso   1.000  O
  O24      1.0000 0.10110  0.85110  0.13410  Biso   1.000  O
