data_image0
_cell_length_a       20.842
_cell_length_b       12.829
_cell_length_c       10.106
_cell_angle_alpha    90
_cell_angle_beta     96.261
_cell_angle_gamma    90

_symmetry_space_group_name_H-M    "P 1"
_symmetry_int_tables_number       1

loop_
  _symmetry_equiv_pos_as_xyz
  'x, y, z'

loop_
  _atom_site_label
  _atom_site_occupancy
  _atom_site_fract_x
  _atom_site_fract_y
  _atom_site_fract_z
  _atom_site_thermal_displace_type
  _atom_site_B_iso_or_equiv
  _atom_site_type_symbol
  Cu1      1.0000 0.50000  0.89987  0.25000  Biso   1.000  Cu
  Cu2      1.0000 0.00000  0.39987  0.25000  Biso   1.000  Cu
  Cu3      1.0000 0.50000  0.10013  0.75000  Biso   1.000  Cu
  Cu4      1.0000 0.00000  0.60013  0.75000  Biso   1.000  Cu
  Cu5      1.0000 0.25000  0.75000  0.00000  Biso   1.000  Cu
  Cu6      1.0000 0.75000  0.75000  0.50000  Biso   1.000  Cu
  Cu7      1.0000 0.75000  0.25000  0.00000  Biso   1.000  Cu
  Cu8      1.0000 0.25000  0.25000  0.50000  Biso   1.000  Cu
  Cu9      1.0000 0.50000  0.50000  0.00000  Biso   1.000  Cu
  Cu10     1.0000 0.50000  0.50000  0.50000  Biso   1.000  Cu
  Cu11     1.0000 0.00000  0.00000  0.00000  Biso   1.000  Cu
  Cu12     1.0000 0.00000  0.00000  0.50000  Biso   1.000  Cu
  C1       1.0000 0.37238  0.85080  0.09750  Biso   1.000  C
  C2       1.0000 0.62762  0.85080  0.40250  Biso   1.000  C
  C3       1.0000 0.87238  0.35080  0.09750  Biso   1.000  C
  C4       1.0000 0.12762  0.35080  0.40250  Biso   1.000  C
  C5       1.0000 0.62762  0.14920  0.90250  Biso   1.000  C
  C6       1.0000 0.37238  0.14920  0.59750  Biso   1.000  C
  C7       1.0000 0.12762  0.64920  0.90250  Biso   1.000  C
  C8       1.0000 0.87238  0.64920  0.59750  Biso   1.000  C
  C9       1.0000 0.38559  0.73950  0.07200  Biso   1.000  C
  C10      1.0000 0.61441  0.73950  0.42800  Biso   1.000  C
  C11      1.0000 0.88559  0.23950  0.07200  Biso   1.000  C
  C12      1.0000 0.11441  0.23950  0.42800  Biso   1.000  C
  C13      1.0000 0.61441  0.26050  0.92800  Biso   1.000  C
  C14      1.0000 0.38559  0.26050  0.57200  Biso   1.000  C
  C15      1.0000 0.11441  0.76050  0.92800  Biso   1.000  C
  C16      1.0000 0.88559  0.76050  0.57200  Biso   1.000  C
  C17      1.0000 0.44080  0.68070  0.07240  Biso   1.000  C
  C18      1.0000 0.55920  0.68070  0.42760  Biso   1.000  C
  C19      1.0000 0.94080  0.18070  0.07240  Biso   1.000  C
  C20      1.0000 0.05920  0.18070  0.42760  Biso   1.000  C
  C21      1.0000 0.55920  0.31930  0.92760  Biso   1.000  C
  C22      1.0000 0.44080  0.31930  0.57240  Biso   1.000  C
  C23      1.0000 0.05920  0.81930  0.92760  Biso   1.000  C
  C24      1.0000 0.94080  0.81930  0.57240  Biso   1.000  C
  C25      1.0000 0.51059  0.70130  0.09370  Biso   1.000  C
  C26      1.0000 0.48941  0.70130  0.40630  Biso   1.000  C
  C27      1.0000 0.01059  0.20130  0.09370  Biso   1.000  C
  C28      1.0000 0.98941  0.20130  0.40630  Biso   1.000  C
  C29      1.0000 0.48941  0.29870  0.90630  Biso   1.000  C
  C30      1.0000 0.51059  0.29870  0.59370  Biso   1.000  C
  C31      1.0000 0.98941  0.79870  0.90630  Biso   1.000  C
  C32      1.0000 0.01059  0.79870  0.59370  Biso   1.000  C
  C33      1.0000 0.35928  0.58560  0.99520  Biso   1.000  C
  C34      1.0000 0.64072  0.58560  0.50480  Biso   1.000  C
  C35      1.0000 0.85928  0.08560  0.99520  Biso   1.000  C
  C36      1.0000 0.14072  0.08560  0.50480  Biso   1.000  C
  C37      1.0000 0.64072  0.41440  0.00480  Biso   1.000  C
  C38      1.0000 0.35928  0.41440  0.49520  Biso   1.000  C
  C39      1.0000 0.14072  0.91440  0.00480  Biso   1.000  C
  C40      1.0000 0.85928  0.91440  0.49520  Biso   1.000  C
  C41      1.0000 0.32162  0.50130  0.92500  Biso   1.000  C
  C42      1.0000 0.67838  0.50130  0.57500  Biso   1.000  C
  C43      1.0000 0.82162  0.00130  0.92500  Biso   1.000  C
  C44      1.0000 0.17838  0.00130  0.57500  Biso   1.000  C
  C45      1.0000 0.67838  0.49870  0.07500  Biso   1.000  C
  C46      1.0000 0.32162  0.49870  0.42500  Biso   1.000  C
  C47      1.0000 0.17838  0.99870  0.07500  Biso   1.000  C
  C48      1.0000 0.82162  0.99870  0.42500  Biso   1.000  C
  C49      1.0000 0.28293  0.52400  0.80780  Biso   1.000  C
  C50      1.0000 0.71707  0.52400  0.69220  Biso   1.000  C
  C51      1.0000 0.78293  0.02400  0.80780  Biso   1.000  C
  C52      1.0000 0.21707  0.02400  0.69220  Biso   1.000  C
  C53      1.0000 0.71707  0.47600  0.19220  Biso   1.000  C
  C54      1.0000 0.28293  0.47600  0.30780  Biso   1.000  C
  C55      1.0000 0.21707  0.97600  0.19220  Biso   1.000  C
  C56      1.0000 0.78293  0.97600  0.30780  Biso   1.000  C
  H1       1.0000 0.27860  0.59260  0.77820  Biso   1.000  H
  H2       1.0000 0.72140  0.59260  0.72180  Biso   1.000  H
  H3       1.0000 0.77860  0.09260  0.77820  Biso   1.000  H
  H4       1.0000 0.22140  0.09260  0.72180  Biso   1.000  H
  H5       1.0000 0.72140  0.40740  0.22180  Biso   1.000  H
  H6       1.0000 0.27860  0.40740  0.27820  Biso   1.000  H
  H7       1.0000 0.22140  0.90740  0.22180  Biso   1.000  H
  H8       1.0000 0.77860  0.90740  0.27820  Biso   1.000  H
  C57      1.0000 0.25114  0.44590  0.73580  Biso   1.000  C
  C58      1.0000 0.74886  0.44590  0.76420  Biso   1.000  C
  C59      1.0000 0.75114  0.94590  0.73580  Biso   1.000  C
  C60      1.0000 0.24886  0.94590  0.76420  Biso   1.000  C
  C61      1.0000 0.74886  0.55410  0.26420  Biso   1.000  C
  C62      1.0000 0.25114  0.55410  0.23580  Biso   1.000  C
  C63      1.0000 0.24886  0.05410  0.26420  Biso   1.000  C
  C64      1.0000 0.75114  0.05410  0.23580  Biso   1.000  C
  H9       1.0000 0.22500  0.46150  0.65780  Biso   1.000  H
  H10      1.0000 0.77500  0.46150  0.84220  Biso   1.000  H
  H11      1.0000 0.72500  0.96150  0.65780  Biso   1.000  H
  H12      1.0000 0.27500  0.96150  0.84220  Biso   1.000  H
  H13      1.0000 0.77500  0.53850  0.34220  Biso   1.000  H
  H14      1.0000 0.22500  0.53850  0.15780  Biso   1.000  H
  H15      1.0000 0.27500  0.03850  0.34220  Biso   1.000  H
  H16      1.0000 0.72500  0.03850  0.15780  Biso   1.000  H
  C65      1.0000 0.29385  0.32150  0.89150  Biso   1.000  C
  C66      1.0000 0.70615  0.32150  0.60850  Biso   1.000  C
  C67      1.0000 0.79385  0.82150  0.89150  Biso   1.000  C
  C68      1.0000 0.20615  0.82150  0.60850  Biso   1.000  C
  C69      1.0000 0.70615  0.67850  0.10850  Biso   1.000  C
  C70      1.0000 0.29385  0.67850  0.39150  Biso   1.000  C
  C71      1.0000 0.20615  0.17850  0.10850  Biso   1.000  C
  C72      1.0000 0.79385  0.17850  0.39150  Biso   1.000  C
  H17      1.0000 0.29710  0.25240  0.91930  Biso   1.000  H
  H18      1.0000 0.70290  0.25240  0.58070  Biso   1.000  H
  H19      1.0000 0.79710  0.75240  0.91930  Biso   1.000  H
  H20      1.0000 0.20290  0.75240  0.58070  Biso   1.000  H
  H21      1.0000 0.70290  0.74760  0.08070  Biso   1.000  H
  H22      1.0000 0.29710  0.74760  0.41930  Biso   1.000  H
  H23      1.0000 0.20290  0.24760  0.08070  Biso   1.000  H
  H24      1.0000 0.79710  0.24760  0.41930  Biso   1.000  H
  C73      1.0000 0.32603  0.39830  0.96700  Biso   1.000  C
  C74      1.0000 0.67397  0.39830  0.53300  Biso   1.000  C
  C75      1.0000 0.82603  0.89830  0.96700  Biso   1.000  C
  C76      1.0000 0.17397  0.89830  0.53300  Biso   1.000  C
  C77      1.0000 0.67397  0.60170  0.03300  Biso   1.000  C
  C78      1.0000 0.32603  0.60170  0.46700  Biso   1.000  C
  C79      1.0000 0.17397  0.10170  0.03300  Biso   1.000  C
  C80      1.0000 0.82603  0.10170  0.46700  Biso   1.000  C
  H25      1.0000 0.35080  0.38120  0.04630  Biso   1.000  H
  H26      1.0000 0.64920  0.38120  0.45370  Biso   1.000  H
  H27      1.0000 0.85080  0.88120  0.04630  Biso   1.000  H
  H28      1.0000 0.14920  0.88120  0.45370  Biso   1.000  H
  H29      1.0000 0.64920  0.61880  0.95370  Biso   1.000  H
  H30      1.0000 0.35080  0.61880  0.54630  Biso   1.000  H
  H31      1.0000 0.14920  0.11880  0.95370  Biso   1.000  H
  H32      1.0000 0.85080  0.11880  0.54630  Biso   1.000  H
  N1       1.0000 0.42357  0.58350  0.02580  Biso   1.000  N
  N2       1.0000 0.57643  0.58350  0.47420  Biso   1.000  N
  N3       1.0000 0.92357  0.08350  0.02580  Biso   1.000  N
  N4       1.0000 0.07643  0.08350  0.47420  Biso   1.000  N
  N5       1.0000 0.57643  0.41650  0.97420  Biso   1.000  N
  N6       1.0000 0.42357  0.41650  0.52580  Biso   1.000  N
  N7       1.0000 0.07643  0.91650  0.97420  Biso   1.000  N
  N8       1.0000 0.92357  0.91650  0.52580  Biso   1.000  N
  N9       1.0000 0.33443  0.67858  0.02320  Biso   1.000  N
  N10      1.0000 0.66557  0.67858  0.47680  Biso   1.000  N
  N11      1.0000 0.83443  0.17858  0.02320  Biso   1.000  N
  N12      1.0000 0.16557  0.17858  0.47680  Biso   1.000  N
  N13      1.0000 0.66557  0.32142  0.97680  Biso   1.000  N
  N14      1.0000 0.33443  0.32142  0.52320  Biso   1.000  N
  N15      1.0000 0.16557  0.82142  0.97680  Biso   1.000  N
  N16      1.0000 0.83443  0.82142  0.52320  Biso   1.000  N
  N17      1.0000 0.25757  0.34650  0.77730  Biso   1.000  N
  N18      1.0000 0.74243  0.34650  0.72270  Biso   1.000  N
  N19      1.0000 0.75757  0.84650  0.77730  Biso   1.000  N
  N20      1.0000 0.24243  0.84650  0.72270  Biso   1.000  N
  N21      1.0000 0.74243  0.65350  0.22270  Biso   1.000  N
  N22      1.0000 0.25757  0.65350  0.27730  Biso   1.000  N
  N23      1.0000 0.24243  0.15350  0.22270  Biso   1.000  N
  N24      1.0000 0.75757  0.15350  0.27730  Biso   1.000  N
  O1       1.0000 0.41537  0.91257  0.14640  Biso   1.000  O
  O2       1.0000 0.58463  0.91257  0.35360  Biso   1.000  O
  O3       1.0000 0.91537  0.41257  0.14640  Biso   1.000  O
  O4       1.0000 0.08463  0.41257  0.35360  Biso   1.000  O
  O5       1.0000 0.58463  0.08743  0.85360  Biso   1.000  O
  O6       1.0000 0.41537  0.08743  0.64640  Biso   1.000  O
  O7       1.0000 0.08463  0.58743  0.85360  Biso   1.000  O
  O8       1.0000 0.91537  0.58743  0.64640  Biso   1.000  O
  O9       1.0000 0.31548  0.88030  0.06110  Biso   1.000  O
  O10      1.0000 0.68452  0.88030  0.43890  Biso   1.000  O
  O11      1.0000 0.81548  0.38030  0.06110  Biso   1.000  O
  O12      1.0000 0.18452  0.38030  0.43890  Biso   1.000  O
  O13      1.0000 0.68452  0.11970  0.93890  Biso   1.000  O
  O14      1.0000 0.31548  0.11970  0.56110  Biso   1.000  O
  O15      1.0000 0.18452  0.61970  0.93890  Biso   1.000  O
  O16      1.0000 0.81548  0.61970  0.56110  Biso   1.000  O
  O17      1.0000 0.53357  0.78900  0.12500  Biso   1.000  O
  O18      1.0000 0.46643  0.78900  0.37500  Biso   1.000  O
  O19      1.0000 0.03357  0.28900  0.12500  Biso   1.000  O
  O20      1.0000 0.96643  0.28900  0.37500  Biso   1.000  O
  O21      1.0000 0.46643  0.21100  0.87500  Biso   1.000  O
  O22      1.0000 0.53357  0.21100  0.62500  Biso   1.000  O
  O23      1.0000 0.96643  0.71100  0.87500  Biso   1.000  O
  O24      1.0000 0.03357  0.71100  0.62500  Biso   1.000  O
  O25      1.0000 0.54566  0.62390  0.07410  Biso   1.000  O
  O26      1.0000 0.45434  0.62390  0.42590  Biso   1.000  O
  O27      1.0000 0.04566  0.12390  0.07410  Biso   1.000  O
  O28      1.0000 0.95434  0.12390  0.42590  Biso   1.000  O
  O29      1.0000 0.45434  0.37610  0.92590  Biso   1.000  O
  O30      1.0000 0.54566  0.37610  0.57410  Biso   1.000  O
  O31      1.0000 0.95434  0.87610  0.92590  Biso   1.000  O
  O32      1.0000 0.04566  0.87610  0.57410  Biso   1.000  O
  O33      1.0000 0.22746  0.27105  0.70430  Biso   1.000  O
  O34      1.0000 0.77254  0.27105  0.79570  Biso   1.000  O
  O35      1.0000 0.72746  0.77105  0.70430  Biso   1.000  O
  O36      1.0000 0.27254  0.77105  0.79570  Biso   1.000  O
  O37      1.0000 0.77254  0.72895  0.29570  Biso   1.000  O
  O38      1.0000 0.22746  0.72895  0.20430  Biso   1.000  O
  O39      1.0000 0.27254  0.22895  0.29570  Biso   1.000  O
  O40      1.0000 0.72746  0.22895  0.20430  Biso   1.000  O
  O41      1.0000 0.53272  0.02900  0.12920  Biso   1.000  O
  O42      1.0000 0.46728  0.02900  0.37080  Biso   1.000  O
  O43      1.0000 0.03272  0.52900  0.12920  Biso   1.000  O
  O44      1.0000 0.96728  0.52900  0.37080  Biso   1.000  O
  O45      1.0000 0.46728  0.97100  0.87080  Biso   1.000  O
  O46      1.0000 0.53272  0.97100  0.62920  Biso   1.000  O
  O47      1.0000 0.96728  0.47100  0.87080  Biso   1.000  O
  O48      1.0000 0.03272  0.47100  0.62920  Biso   1.000  O
  H33      1.0000 0.54320  0.97930  0.09560  Biso   1.000  H
  H34      1.0000 0.45680  0.97930  0.40440  Biso   1.000  H
  H35      1.0000 0.04320  0.47930  0.09560  Biso   1.000  H
  H36      1.0000 0.95680  0.47930  0.40440  Biso   1.000  H
  H37      1.0000 0.45680  0.02070  0.90440  Biso   1.000  H
  H38      1.0000 0.54320  0.02070  0.59560  Biso   1.000  H
  H39      1.0000 0.95680  0.52070  0.90440  Biso   1.000  H
  H40      1.0000 0.04320  0.52070  0.59560  Biso   1.000  H
  H41      1.0000 0.55830  0.07310  0.16860  Biso   1.000  H
  H42      1.0000 0.44170  0.07310  0.33140  Biso   1.000  H
  H43      1.0000 0.05830  0.57310  0.16860  Biso   1.000  H
  H44      1.0000 0.94170  0.57310  0.33140  Biso   1.000  H
  H45      1.0000 0.44170  0.92690  0.83140  Biso   1.000  H
  H46      1.0000 0.55830  0.92690  0.66860  Biso   1.000  H
  H47      1.0000 0.94170  0.42690  0.83140  Biso   1.000  H
  H48      1.0000 0.05830  0.42690  0.66860  Biso   1.000  H
  O49      1.0000 0.50000  0.38330  0.25000  Biso   1.000  O
  O50      1.0000 0.00000  0.88330  0.25000  Biso   1.000  O
  O51      1.0000 0.50000  0.61670  0.75000  Biso   1.000  O
  O52      1.0000 0.00000  0.11670  0.75000  Biso   1.000  O
  H49      1.0000 0.46950  0.39640  0.30440  Biso   1.000  H
  H50      1.0000 0.53050  0.39640  0.19560  Biso   1.000  H
  H51      1.0000 0.96950  0.89640  0.30440  Biso   1.000  H
  H52      1.0000 0.03050  0.89640  0.19560  Biso   1.000  H
  H53      1.0000 0.53050  0.60360  0.69560  Biso   1.000  H
  H54      1.0000 0.46950  0.60360  0.80440  Biso   1.000  H
  H55      1.0000 0.03050  0.10360  0.69560  Biso   1.000  H
  H56      1.0000 0.96950  0.10360  0.80440  Biso   1.000  H
  O53      1.0000 0.35870  0.10980  0.00700  Biso   1.000  O
  O54      1.0000 0.64130  0.10980  0.49300  Biso   1.000  O
  O55      1.0000 0.85870  0.60980  0.00700  Biso   1.000  O
  O56      1.0000 0.14130  0.60980  0.49300  Biso   1.000  O
  O57      1.0000 0.64130  0.89020  0.99300  Biso   1.000  O
  O58      1.0000 0.35870  0.89020  0.50700  Biso   1.000  O
  O59      1.0000 0.14130  0.39020  0.99300  Biso   1.000  O
  O60      1.0000 0.85870  0.39020  0.50700  Biso   1.000  O
  H57      1.0000 0.36550  0.05420  0.04060  Biso   1.000  H
  H58      1.0000 0.63450  0.05420  0.45940  Biso   1.000  H
  H59      1.0000 0.86550  0.55420  0.04060  Biso   1.000  H
  H60      1.0000 0.13450  0.55420  0.45940  Biso   1.000  H
  H61      1.0000 0.63450  0.94580  0.95940  Biso   1.000  H
  H62      1.0000 0.36550  0.94580  0.54060  Biso   1.000  H
  H63      1.0000 0.13450  0.44580  0.95940  Biso   1.000  H
  H64      1.0000 0.86550  0.44580  0.54060  Biso   1.000  H
  H65      1.0000 0.39670  0.11650  0.97340  Biso   1.000  H
  H66      1.0000 0.60330  0.11650  0.52660  Biso   1.000  H
  H67      1.0000 0.89670  0.61650  0.97340  Biso   1.000  H
  H68      1.0000 0.10330  0.61650  0.52660  Biso   1.000  H
  H69      1.0000 0.60330  0.88350  0.02660  Biso   1.000  H
  H70      1.0000 0.39670  0.88350  0.47340  Biso   1.000  H
  H71      1.0000 0.10330  0.38350  0.02660  Biso   1.000  H
  H72      1.0000 0.89670  0.38350  0.47340  Biso   1.000  H
  O61      1.0000 0.40343  0.20900  0.24820  Biso   1.000  O
  O62      1.0000 0.59657  0.20900  0.25180  Biso   1.000  O
  O63      1.0000 0.90343  0.70900  0.24820  Biso   1.000  O
  O64      1.0000 0.09657  0.70900  0.25180  Biso   1.000  O
  O65      1.0000 0.59657  0.79100  0.75180  Biso   1.000  O
  O66      1.0000 0.40343  0.79100  0.74820  Biso   1.000  O
  O67      1.0000 0.09657  0.29100  0.75180  Biso   1.000  O
  O68      1.0000 0.90343  0.29100  0.74820  Biso   1.000  O
  H73      1.0000 0.36190  0.22650  0.26790  Biso   1.000  H
  H74      1.0000 0.63810  0.22650  0.23210  Biso   1.000  H
  H75      1.0000 0.86190  0.72650  0.26790  Biso   1.000  H
  H76      1.0000 0.13810  0.72650  0.23210  Biso   1.000  H
  H77      1.0000 0.63810  0.77350  0.73210  Biso   1.000  H
  H78      1.0000 0.36190  0.77350  0.76790  Biso   1.000  H
  H79      1.0000 0.13810  0.27350  0.73210  Biso   1.000  H
  H80      1.0000 0.86190  0.27350  0.76790  Biso   1.000  H
  H81      1.0000 0.39890  0.19400  0.17810  Biso   1.000  H
  H82      1.0000 0.60110  0.19400  0.32190  Biso   1.000  H
  H83      1.0000 0.89890  0.69400  0.17810  Biso   1.000  H
  H84      1.0000 0.10110  0.69400  0.32190  Biso   1.000  H
  H85      1.0000 0.60110  0.80600  0.82190  Biso   1.000  H
  H86      1.0000 0.39890  0.80600  0.67810  Biso   1.000  H
  H87      1.0000 0.10110  0.30600  0.82190  Biso   1.000  H
  H88      1.0000 0.89890  0.30600  0.67810  Biso   1.000  H
  H89      1.0000 0.53050  0.33490  0.27260  Biso   1.000  H
  H90      1.0000 0.46950  0.33490  0.22740  Biso   1.000  H
  H91      1.0000 0.03050  0.83490  0.27260  Biso   1.000  H
  H92      1.0000 0.96950  0.83490  0.22740  Biso   1.000  H
  H93      1.0000 0.46950  0.66510  0.72740  Biso   1.000  H
  H94      1.0000 0.53050  0.66510  0.77260  Biso   1.000  H
  H95      1.0000 0.96950  0.16510  0.72740  Biso   1.000  H
  H96      1.0000 0.03050  0.16510  0.77260  Biso   1.000  H
