data_image0
_cell_length_a       12.6877
_cell_length_b       12.6877
_cell_length_c       33.928
_cell_angle_alpha    90
_cell_angle_beta     90
_cell_angle_gamma    90

_symmetry_space_group_name_H-M    "P 1"
_symmetry_int_tables_number       1

loop_
  _symmetry_equiv_pos_as_xyz
  'x, y, z'

loop_
  _atom_site_label
  _atom_site_occupancy
  _atom_site_fract_x
  _atom_site_fract_y
  _atom_site_fract_z
  _atom_site_thermal_displace_type
  _atom_site_B_iso_or_equiv
  _atom_site_type_symbol
  Nd1      1.0000 0.84026  0.85814  0.06756  Biso   1.000  Nd
  Nd2      1.0000 0.15974  0.14186  0.56756  Biso   1.000  Nd
  Nd3      1.0000 0.64186  0.34026  0.81756  Biso   1.000  Nd
  Nd4      1.0000 0.35814  0.65974  0.31756  Biso   1.000  Nd
  Nd5      1.0000 0.65974  0.35814  0.68244  Biso   1.000  Nd
  Nd6      1.0000 0.34026  0.64186  0.18244  Biso   1.000  Nd
  Nd7      1.0000 0.85814  0.84026  0.93244  Biso   1.000  Nd
  Nd8      1.0000 0.14186  0.15974  0.43244  Biso   1.000  Nd
  O1       1.0000 0.74100  0.72390  0.03239  Biso   1.000  O
  O2       1.0000 0.25900  0.27610  0.53239  Biso   1.000  O
  O3       1.0000 0.77610  0.24100  0.78239  Biso   1.000  O
  O4       1.0000 0.22390  0.75900  0.28239  Biso   1.000  O
  O5       1.0000 0.75900  0.22390  0.71761  Biso   1.000  O
  O6       1.0000 0.24100  0.77610  0.21761  Biso   1.000  O
  O7       1.0000 0.72390  0.74100  0.96761  Biso   1.000  O
  O8       1.0000 0.27610  0.25900  0.46761  Biso   1.000  O
  O9       1.0000 0.97040  0.96160  0.03276  Biso   1.000  O
  O10      1.0000 0.02960  0.03840  0.53276  Biso   1.000  O
  O11      1.0000 0.53840  0.47040  0.78276  Biso   1.000  O
  O12      1.0000 0.46160  0.52960  0.28276  Biso   1.000  O
  O13      1.0000 0.52960  0.46160  0.71724  Biso   1.000  O
  O14      1.0000 0.47040  0.53840  0.21724  Biso   1.000  O
  O15      1.0000 0.96160  0.97040  0.96724  Biso   1.000  O
  O16      1.0000 0.03840  0.02960  0.46724  Biso   1.000  O
  O17      1.0000 0.81400  0.03740  0.10256  Biso   1.000  O
  O18      1.0000 0.18600  0.96260  0.60256  Biso   1.000  O
  O19      1.0000 0.46260  0.31400  0.85256  Biso   1.000  O
  O20      1.0000 0.53740  0.68600  0.35256  Biso   1.000  O
  O21      1.0000 0.68600  0.53740  0.64744  Biso   1.000  O
  O22      1.0000 0.31400  0.46260  0.14744  Biso   1.000  O
  O23      1.0000 0.03740  0.81400  0.89744  Biso   1.000  O
  O24      1.0000 0.96260  0.18600  0.39744  Biso   1.000  O
  O25      1.0000 0.66820  0.86470  0.09931  Biso   1.000  O
  O26      1.0000 0.33180  0.13530  0.59931  Biso   1.000  O
  O27      1.0000 0.63530  0.16820  0.84931  Biso   1.000  O
  O28      1.0000 0.36470  0.83180  0.34931  Biso   1.000  O
  O29      1.0000 0.83180  0.36470  0.65069  Biso   1.000  O
  O30      1.0000 0.16820  0.63530  0.15069  Biso   1.000  O
  O31      1.0000 0.86470  0.66820  0.90069  Biso   1.000  O
  O32      1.0000 0.13530  0.33180  0.40069  Biso   1.000  O
  O33      1.0000 0.98280  0.89800  0.11533  Biso   1.000  O
  O34      1.0000 0.01720  0.10200  0.61533  Biso   1.000  O
  O35      1.0000 0.60200  0.48280  0.86533  Biso   1.000  O
  O36      1.0000 0.39800  0.51720  0.36533  Biso   1.000  O
  O37      1.0000 0.51720  0.39800  0.63467  Biso   1.000  O
  O38      1.0000 0.48280  0.60200  0.13467  Biso   1.000  O
  O39      1.0000 0.89800  0.98280  0.88467  Biso   1.000  O
  O40      1.0000 0.10200  0.01720  0.38467  Biso   1.000  O
  O41      1.0000 0.73740  0.95870  0.02145  Biso   1.000  O
  O42      1.0000 0.26260  0.04130  0.52145  Biso   1.000  O
  O43      1.0000 0.54130  0.23740  0.77145  Biso   1.000  O
  O44      1.0000 0.45870  0.76260  0.27145  Biso   1.000  O
  O45      1.0000 0.76260  0.45870  0.72855  Biso   1.000  O
  O46      1.0000 0.23740  0.54130  0.22855  Biso   1.000  O
  O47      1.0000 0.95870  0.73740  0.97855  Biso   1.000  O
  O48      1.0000 0.04130  0.26260  0.47855  Biso   1.000  O
  O49      1.0000 0.97080  0.73040  0.04374  Biso   1.000  O
  O50      1.0000 0.02920  0.26960  0.54374  Biso   1.000  O
  O51      1.0000 0.76960  0.47080  0.79374  Biso   1.000  O
  O52      1.0000 0.23040  0.52920  0.29374  Biso   1.000  O
  O53      1.0000 0.52920  0.23040  0.70626  Biso   1.000  O
  O54      1.0000 0.47080  0.76960  0.20626  Biso   1.000  O
  O55      1.0000 0.73040  0.97080  0.95626  Biso   1.000  O
  O56      1.0000 0.26960  0.02920  0.45626  Biso   1.000  O
  O57      1.0000 0.84760  0.72240  0.11974  Biso   1.000  O
  O58      1.0000 0.15240  0.27760  0.61974  Biso   1.000  O
  O59      1.0000 0.77760  0.34760  0.86974  Biso   1.000  O
  O60      1.0000 0.22240  0.65240  0.36974  Biso   1.000  O
  O61      1.0000 0.65240  0.22240  0.63026  Biso   1.000  O
  O62      1.0000 0.34760  0.77760  0.13026  Biso   1.000  O
  O63      1.0000 0.72240  0.84760  0.88026  Biso   1.000  O
  O64      1.0000 0.27760  0.15240  0.38026  Biso   1.000  O
  C1       1.0000 0.70100  0.70100  0.00000  Biso   1.000  C
  C2       1.0000 0.29900  0.29900  0.50000  Biso   1.000  C
  C3       1.0000 0.79900  0.20100  0.75000  Biso   1.000  C
  C4       1.0000 0.20100  0.79900  0.25000  Biso   1.000  C
  C5       1.0000 0.99800  0.99800  0.00000  Biso   1.000  C
  C6       1.0000 0.00200  0.00200  0.50000  Biso   1.000  C
  C7       1.0000 0.50200  0.49800  0.75000  Biso   1.000  C
  C8       1.0000 0.49800  0.50200  0.25000  Biso   1.000  C
  S1       1.0000 0.86474  0.13184  0.11774  Biso   1.000  S
  S2       1.0000 0.13526  0.86816  0.61774  Biso   1.000  S
  S3       1.0000 0.36816  0.36474  0.86774  Biso   1.000  S
  S4       1.0000 0.63184  0.63526  0.36774  Biso   1.000  S
  S5       1.0000 0.63526  0.63184  0.63226  Biso   1.000  S
  S6       1.0000 0.36474  0.36816  0.13226  Biso   1.000  S
  S7       1.0000 0.13184  0.86474  0.88226  Biso   1.000  S
  S8       1.0000 0.86816  0.13526  0.38226  Biso   1.000  S
  H1       1.0000 0.64940  0.91040  0.10490  Biso   1.000  H
  H2       1.0000 0.35060  0.08960  0.60490  Biso   1.000  H
  H3       1.0000 0.58960  0.14940  0.85490  Biso   1.000  H
  H4       1.0000 0.41040  0.85060  0.35490  Biso   1.000  H
  H5       1.0000 0.85060  0.41040  0.64510  Biso   1.000  H
  H6       1.0000 0.14940  0.58960  0.14510  Biso   1.000  H
  H7       1.0000 0.91040  0.64940  0.89510  Biso   1.000  H
  H8       1.0000 0.08960  0.35060  0.39510  Biso   1.000  H
  H9       1.0000 0.67380  0.82140  0.11810  Biso   1.000  H
  H10      1.0000 0.32620  0.17860  0.61810  Biso   1.000  H
  H11      1.0000 0.67860  0.17380  0.86810  Biso   1.000  H
  H12      1.0000 0.32140  0.82620  0.36810  Biso   1.000  H
  H13      1.0000 0.82620  0.32140  0.63190  Biso   1.000  H
  H14      1.0000 0.17380  0.67860  0.13190  Biso   1.000  H
  H15      1.0000 0.82140  0.67380  0.88190  Biso   1.000  H
  H16      1.0000 0.17860  0.32620  0.38190  Biso   1.000  H
  H17      1.0000 0.02340  0.96820  0.11860  Biso   1.000  H
  H18      1.0000 0.97660  0.03180  0.61860  Biso   1.000  H
  H19      1.0000 0.53180  0.52340  0.86860  Biso   1.000  H
  H20      1.0000 0.46820  0.47660  0.36860  Biso   1.000  H
  H21      1.0000 0.47660  0.46820  0.63140  Biso   1.000  H
  H22      1.0000 0.52340  0.53180  0.13140  Biso   1.000  H
  H23      1.0000 0.96820  0.02340  0.88140  Biso   1.000  H
  H24      1.0000 0.03180  0.97660  0.38140  Biso   1.000  H
  H25      1.0000 0.03410  0.84400  0.11240  Biso   1.000  H
  H26      1.0000 0.96590  0.15600  0.61240  Biso   1.000  H
  H27      1.0000 0.65600  0.53410  0.86240  Biso   1.000  H
  H28      1.0000 0.34400  0.46590  0.36240  Biso   1.000  H
  H29      1.0000 0.46590  0.34400  0.63760  Biso   1.000  H
  H30      1.0000 0.53410  0.65600  0.13760  Biso   1.000  H
  H31      1.0000 0.84400  0.03410  0.88760  Biso   1.000  H
  H32      1.0000 0.15600  0.96590  0.38760  Biso   1.000  H
  C9       1.0000 0.70040  0.99570  0.98966  Biso   1.000  C
  C10      1.0000 0.29960  0.00430  0.48966  Biso   1.000  C
  C11      1.0000 0.50430  0.20040  0.73966  Biso   1.000  C
  C12      1.0000 0.49570  0.79960  0.23966  Biso   1.000  C
  C13      1.0000 0.79960  0.49570  0.76034  Biso   1.000  C
  C14      1.0000 0.20040  0.50430  0.26034  Biso   1.000  C
  C15      1.0000 0.99570  0.70040  0.01034  Biso   1.000  C
  C16      1.0000 0.00430  0.29960  0.51034  Biso   1.000  C
  C17      1.0000 0.61620  0.61620  0.00000  Biso   1.000  C
  C18      1.0000 0.38380  0.38380  0.50000  Biso   1.000  C
  C19      1.0000 0.88380  0.11620  0.75000  Biso   1.000  C
  C20      1.0000 0.11620  0.88380  0.25000  Biso   1.000  C
  C21      1.0000 0.08110  0.08110  0.00000  Biso   1.000  C
  C22      1.0000 0.91890  0.91890  0.50000  Biso   1.000  C
  C23      1.0000 0.41890  0.58110  0.75000  Biso   1.000  C
  C24      1.0000 0.58110  0.41890  0.25000  Biso   1.000  C
  O65      1.0000 0.81890  0.17210  0.15402  Biso   1.000  O
  O66      1.0000 0.18110  0.82790  0.65402  Biso   1.000  O
  O67      1.0000 0.32790  0.31890  0.90402  Biso   1.000  O
  O68      1.0000 0.67210  0.68110  0.40402  Biso   1.000  O
  O69      1.0000 0.68110  0.67210  0.59598  Biso   1.000  O
  O70      1.0000 0.31890  0.32790  0.09598  Biso   1.000  O
  O71      1.0000 0.17210  0.81890  0.84598  Biso   1.000  O
  O72      1.0000 0.82790  0.18110  0.34598  Biso   1.000  O
  O73      1.0000 0.97900  0.11730  0.12190  Biso   1.000  O
  O74      1.0000 0.02100  0.88270  0.62190  Biso   1.000  O
  O75      1.0000 0.38270  0.47900  0.87190  Biso   1.000  O
  O76      1.0000 0.61730  0.52100  0.37190  Biso   1.000  O
  O77      1.0000 0.52100  0.61730  0.62810  Biso   1.000  O
  O78      1.0000 0.47900  0.38270  0.12810  Biso   1.000  O
  O79      1.0000 0.11730  0.97900  0.87810  Biso   1.000  O
  O80      1.0000 0.88270  0.02100  0.37810  Biso   1.000  O
  C25      1.0000 0.84650  0.23050  0.08050  Biso   1.000  C
  C26      1.0000 0.15350  0.76950  0.58050  Biso   1.000  C
  C27      1.0000 0.26950  0.34650  0.83050  Biso   1.000  C
  C28      1.0000 0.73050  0.65350  0.33050  Biso   1.000  C
  C29      1.0000 0.65350  0.73050  0.66950  Biso   1.000  C
  C30      1.0000 0.34650  0.26950  0.16950  Biso   1.000  C
  C31      1.0000 0.23050  0.84650  0.91950  Biso   1.000  C
  C32      1.0000 0.76950  0.15350  0.41950  Biso   1.000  C
  C33      1.0000 0.61610  0.08080  0.99320  Biso   1.000  C
  C34      1.0000 0.38390  0.91920  0.49320  Biso   1.000  C
  C35      1.0000 0.41920  0.11610  0.74320  Biso   1.000  C
  C36      1.0000 0.58080  0.88390  0.24320  Biso   1.000  C
  C37      1.0000 0.88390  0.58080  0.75680  Biso   1.000  C
  C38      1.0000 0.11610  0.41920  0.25680  Biso   1.000  C
  C39      1.0000 0.08080  0.61610  0.00680  Biso   1.000  C
  C40      1.0000 0.91920  0.38390  0.50680  Biso   1.000  C
  C41      1.0000 0.58330  0.56870  0.03440  Biso   1.000  C
  C42      1.0000 0.41670  0.43130  0.53440  Biso   1.000  C
  C43      1.0000 0.93130  0.08330  0.78440  Biso   1.000  C
  C44      1.0000 0.06870  0.91670  0.28440  Biso   1.000  C
  C45      1.0000 0.91670  0.06870  0.71560  Biso   1.000  C
  C46      1.0000 0.08330  0.93130  0.21560  Biso   1.000  C
  C47      1.0000 0.56870  0.58330  0.96560  Biso   1.000  C
  C48      1.0000 0.43130  0.41670  0.46560  Biso   1.000  C
  C49      1.0000 0.14680  0.09790  0.03220  Biso   1.000  C
  C50      1.0000 0.85320  0.90210  0.53220  Biso   1.000  C
  C51      1.0000 0.40210  0.64680  0.78220  Biso   1.000  C
  C52      1.0000 0.59790  0.35320  0.28220  Biso   1.000  C
  C53      1.0000 0.35320  0.59790  0.71780  Biso   1.000  C
  C54      1.0000 0.64680  0.40210  0.21780  Biso   1.000  C
  C55      1.0000 0.09790  0.14680  0.96780  Biso   1.000  C
  C56      1.0000 0.90210  0.85320  0.46780  Biso   1.000  C
  C57      1.0000 0.84000  0.33790  0.09110  Biso   1.000  C
  C58      1.0000 0.16000  0.66210  0.59110  Biso   1.000  C
  C59      1.0000 0.16210  0.34000  0.84110  Biso   1.000  C
  C60      1.0000 0.83790  0.66000  0.34110  Biso   1.000  C
  C61      1.0000 0.66000  0.83790  0.65890  Biso   1.000  C
  C62      1.0000 0.34000  0.16210  0.15890  Biso   1.000  C
  C63      1.0000 0.33790  0.84000  0.90890  Biso   1.000  C
  C64      1.0000 0.66210  0.16000  0.40890  Biso   1.000  C
  C65      1.0000 0.84410  0.19860  0.04240  Biso   1.000  C
  C66      1.0000 0.15590  0.80140  0.54240  Biso   1.000  C
  C67      1.0000 0.30140  0.34410  0.79240  Biso   1.000  C
  C68      1.0000 0.69860  0.65590  0.29240  Biso   1.000  C
  C69      1.0000 0.65590  0.69860  0.70760  Biso   1.000  C
  C70      1.0000 0.34410  0.30140  0.20760  Biso   1.000  C
  C71      1.0000 0.19860  0.84410  0.95760  Biso   1.000  C
  C72      1.0000 0.80140  0.15590  0.45760  Biso   1.000  C
  C73      1.0000 0.58540  0.11980  0.02950  Biso   1.000  C
  C74      1.0000 0.41460  0.88020  0.52950  Biso   1.000  C
  C75      1.0000 0.38020  0.08540  0.77950  Biso   1.000  C
  C76      1.0000 0.61980  0.91460  0.27950  Biso   1.000  C
  C77      1.0000 0.91460  0.61980  0.72050  Biso   1.000  C
  C78      1.0000 0.08540  0.38020  0.22050  Biso   1.000  C
  C79      1.0000 0.11980  0.58540  0.97050  Biso   1.000  C
  C80      1.0000 0.88020  0.41460  0.47050  Biso   1.000  C
  C81      1.0000 0.56900  0.11910  0.96000  Biso   1.000  C
  C82      1.0000 0.43100  0.88090  0.46000  Biso   1.000  C
  C83      1.0000 0.38090  0.06900  0.71000  Biso   1.000  C
  C84      1.0000 0.61910  0.93100  0.21000  Biso   1.000  C
  C85      1.0000 0.93100  0.61910  0.79000  Biso   1.000  C
  C86      1.0000 0.06900  0.38090  0.29000  Biso   1.000  C
  C87      1.0000 0.11910  0.56900  0.04000  Biso   1.000  C
  C88      1.0000 0.88090  0.43100  0.54000  Biso   1.000  C
  H33      1.0000 0.61240  0.58860  0.05840  Biso   1.000  H
  H34      1.0000 0.38760  0.41140  0.55840  Biso   1.000  H
  H35      1.0000 0.91140  0.11240  0.80840  Biso   1.000  H
  H36      1.0000 0.08860  0.88760  0.30840  Biso   1.000  H
  H37      1.0000 0.88760  0.08860  0.69160  Biso   1.000  H
  H38      1.0000 0.11240  0.91140  0.19160  Biso   1.000  H
  H39      1.0000 0.58860  0.61240  0.94160  Biso   1.000  H
  H40      1.0000 0.41140  0.38760  0.44160  Biso   1.000  H
  C89      1.0000 0.50760  0.49220  0.03300  Biso   1.000  C
  C90      1.0000 0.49240  0.50780  0.53300  Biso   1.000  C
  C91      1.0000 0.00780  0.00760  0.78300  Biso   1.000  C
  C92      1.0000 0.99220  0.99240  0.28300  Biso   1.000  C
  C93      1.0000 0.99240  0.99220  0.71700  Biso   1.000  C
  C94      1.0000 0.00760  0.00780  0.21700  Biso   1.000  C
  C95      1.0000 0.49220  0.50760  0.96700  Biso   1.000  C
  C96      1.0000 0.50780  0.49240  0.46700  Biso   1.000  C
  H41      1.0000 0.13870  0.05720  0.05480  Biso   1.000  H
  H42      1.0000 0.86130  0.94280  0.55480  Biso   1.000  H
  H43      1.0000 0.44280  0.63870  0.80480  Biso   1.000  H
  H44      1.0000 0.55720  0.36130  0.30480  Biso   1.000  H
  H45      1.0000 0.36130  0.55720  0.69520  Biso   1.000  H
  H46      1.0000 0.63870  0.44280  0.19520  Biso   1.000  H
  H47      1.0000 0.05720  0.13870  0.94520  Biso   1.000  H
  H48      1.0000 0.94280  0.86130  0.44520  Biso   1.000  H
  C97      1.0000 0.22300  0.17350  0.03090  Biso   1.000  C
  C98      1.0000 0.77700  0.82650  0.53090  Biso   1.000  C
  C99      1.0000 0.32650  0.72300  0.78090  Biso   1.000  C
  C100     1.0000 0.67350  0.27700  0.28090  Biso   1.000  C
  C101     1.0000 0.27700  0.67350  0.71910  Biso   1.000  C
  C102     1.0000 0.72300  0.32650  0.21910  Biso   1.000  C
  C103     1.0000 0.17350  0.22300  0.96910  Biso   1.000  C
  C104     1.0000 0.82650  0.77700  0.46910  Biso   1.000  C
  H49      1.0000 0.83940  0.35840  0.11740  Biso   1.000  H
  H50      1.0000 0.16060  0.64160  0.61740  Biso   1.000  H
  H51      1.0000 0.14160  0.33940  0.86740  Biso   1.000  H
  H52      1.0000 0.85840  0.66060  0.36740  Biso   1.000  H
  H53      1.0000 0.66060  0.85840  0.63260  Biso   1.000  H
  H54      1.0000 0.33940  0.14160  0.13260  Biso   1.000  H
  H55      1.0000 0.35840  0.83940  0.88260  Biso   1.000  H
  H56      1.0000 0.64160  0.16060  0.38260  Biso   1.000  H
  C105     1.0000 0.83470  0.41090  0.06150  Biso   1.000  C
  C106     1.0000 0.16530  0.58910  0.56150  Biso   1.000  C
  C107     1.0000 0.08910  0.33470  0.81150  Biso   1.000  C
  C108     1.0000 0.91090  0.66530  0.31150  Biso   1.000  C
  C109     1.0000 0.66530  0.91090  0.68850  Biso   1.000  C
  C110     1.0000 0.33470  0.08910  0.18850  Biso   1.000  C
  C111     1.0000 0.41090  0.83470  0.93850  Biso   1.000  C
  C112     1.0000 0.58910  0.16530  0.43850  Biso   1.000  C
  H57      1.0000 0.84620  0.12720  0.03630  Biso   1.000  H
  H58      1.0000 0.15380  0.87280  0.53630  Biso   1.000  H
  H59      1.0000 0.37280  0.34620  0.78630  Biso   1.000  H
  H60      1.0000 0.62720  0.65380  0.28630  Biso   1.000  H
  H61      1.0000 0.65380  0.62720  0.71370  Biso   1.000  H
  H62      1.0000 0.34620  0.37280  0.21370  Biso   1.000  H
  H63      1.0000 0.12720  0.84620  0.96370  Biso   1.000  H
  H64      1.0000 0.87280  0.15380  0.46370  Biso   1.000  H
  C113     1.0000 0.83820  0.27410  0.01190  Biso   1.000  C
  C114     1.0000 0.16180  0.72590  0.51190  Biso   1.000  C
  C115     1.0000 0.22590  0.33820  0.76190  Biso   1.000  C
  C116     1.0000 0.77410  0.66180  0.26190  Biso   1.000  C
  C117     1.0000 0.66180  0.77410  0.73810  Biso   1.000  C
  C118     1.0000 0.33820  0.22590  0.23810  Biso   1.000  C
  C119     1.0000 0.27410  0.83820  0.98810  Biso   1.000  C
  C120     1.0000 0.72590  0.16180  0.48810  Biso   1.000  C
  H65      1.0000 0.61490  0.09400  0.05270  Biso   1.000  H
  H66      1.0000 0.38510  0.90600  0.55270  Biso   1.000  H
  H67      1.0000 0.40600  0.11490  0.80270  Biso   1.000  H
  H68      1.0000 0.59400  0.88510  0.30270  Biso   1.000  H
  H69      1.0000 0.88510  0.59400  0.69730  Biso   1.000  H
  H70      1.0000 0.11490  0.40600  0.19730  Biso   1.000  H
  H71      1.0000 0.09400  0.61490  0.94730  Biso   1.000  H
  H72      1.0000 0.90600  0.38510  0.44730  Biso   1.000  H
  C121     1.0000 0.50940  0.19840  0.03050  Biso   1.000  C
  C122     1.0000 0.49060  0.80160  0.53050  Biso   1.000  C
  C123     1.0000 0.30160  0.00940  0.78050  Biso   1.000  C
  C124     1.0000 0.69840  0.99060  0.28050  Biso   1.000  C
  C125     1.0000 0.99060  0.69840  0.71950  Biso   1.000  C
  C126     1.0000 0.00940  0.30160  0.21950  Biso   1.000  C
  C127     1.0000 0.19840  0.50940  0.96950  Biso   1.000  C
  C128     1.0000 0.80160  0.49060  0.46950  Biso   1.000  C
  C129     1.0000 0.49210  0.19730  0.96390  Biso   1.000  C
  C130     1.0000 0.50790  0.80270  0.46390  Biso   1.000  C
  C131     1.0000 0.30270  0.99210  0.71390  Biso   1.000  C
  C132     1.0000 0.69730  0.00790  0.21390  Biso   1.000  C
  C133     1.0000 0.00790  0.69730  0.78610  Biso   1.000  C
  C134     1.0000 0.99210  0.30270  0.28610  Biso   1.000  C
  C135     1.0000 0.19730  0.49210  0.03610  Biso   1.000  C
  C136     1.0000 0.80270  0.50790  0.53610  Biso   1.000  C
  H73      1.0000 0.58770  0.09360  0.93530  Biso   1.000  H
  H74      1.0000 0.41230  0.90640  0.43530  Biso   1.000  H
  H75      1.0000 0.40640  0.08770  0.68530  Biso   1.000  H
  H76      1.0000 0.59360  0.91230  0.18530  Biso   1.000  H
  H77      1.0000 0.91230  0.59360  0.81470  Biso   1.000  H
  H78      1.0000 0.08770  0.40640  0.31470  Biso   1.000  H
  H79      1.0000 0.09360  0.58770  0.06470  Biso   1.000  H
  H80      1.0000 0.90640  0.41230  0.56470  Biso   1.000  H
  H81      1.0000 0.48790  0.46040  0.05660  Biso   1.000  H
  H82      1.0000 0.51210  0.53960  0.55660  Biso   1.000  H
  H83      1.0000 0.03960  0.98790  0.80660  Biso   1.000  H
  H84      1.0000 0.96040  0.01210  0.30660  Biso   1.000  H
  H85      1.0000 0.01210  0.96040  0.69340  Biso   1.000  H
  H86      1.0000 0.98790  0.03960  0.19340  Biso   1.000  H
  H87      1.0000 0.46040  0.48790  0.94340  Biso   1.000  H
  H88      1.0000 0.53960  0.51210  0.44340  Biso   1.000  H
  N1       1.0000 0.46030  0.46030  0.00000  Biso   1.000  N
  N2       1.0000 0.53970  0.53970  0.50000  Biso   1.000  N
  N3       1.0000 0.03970  0.96030  0.75000  Biso   1.000  N
  N4       1.0000 0.96030  0.03970  0.25000  Biso   1.000  N
  N5       1.0000 0.23630  0.23630  0.00000  Biso   1.000  N
  N6       1.0000 0.76370  0.76370  0.50000  Biso   1.000  N
  N7       1.0000 0.26370  0.73630  0.75000  Biso   1.000  N
  N8       1.0000 0.73630  0.26370  0.25000  Biso   1.000  N
  H89      1.0000 0.26750  0.18140  0.05250  Biso   1.000  H
  H90      1.0000 0.73250  0.81860  0.55250  Biso   1.000  H
  H91      1.0000 0.31860  0.76750  0.80250  Biso   1.000  H
  H92      1.0000 0.68140  0.23250  0.30250  Biso   1.000  H
  H93      1.0000 0.23250  0.68140  0.69750  Biso   1.000  H
  H94      1.0000 0.76750  0.31860  0.19750  Biso   1.000  H
  H95      1.0000 0.18140  0.26750  0.94750  Biso   1.000  H
  H96      1.0000 0.81860  0.73250  0.44750  Biso   1.000  H
  C137     1.0000 0.83540  0.38400  0.02180  Biso   1.000  C
  C138     1.0000 0.16460  0.61600  0.52180  Biso   1.000  C
  C139     1.0000 0.11600  0.33540  0.77180  Biso   1.000  C
  C140     1.0000 0.88400  0.66460  0.27180  Biso   1.000  C
  C141     1.0000 0.66460  0.88400  0.72820  Biso   1.000  C
  C142     1.0000 0.33540  0.11600  0.22820  Biso   1.000  C
  C143     1.0000 0.38400  0.83540  0.97820  Biso   1.000  C
  C144     1.0000 0.61600  0.16460  0.47820  Biso   1.000  C
  H97      1.0000 0.83040  0.48180  0.06820  Biso   1.000  H
  H98      1.0000 0.16960  0.51820  0.56820  Biso   1.000  H
  H99      1.0000 0.01820  0.33040  0.81820  Biso   1.000  H
  H100     1.0000 0.98180  0.66960  0.31820  Biso   1.000  H
  H101     1.0000 0.66960  0.98180  0.68180  Biso   1.000  H
  H102     1.0000 0.33040  0.01820  0.18180  Biso   1.000  H
  H103     1.0000 0.48180  0.83040  0.93180  Biso   1.000  H
  H104     1.0000 0.51820  0.16960  0.43180  Biso   1.000  H
  C145     1.0000 0.83690  0.24440  0.97190  Biso   1.000  C
  C146     1.0000 0.16310  0.75560  0.47190  Biso   1.000  C
  C147     1.0000 0.25560  0.33690  0.72190  Biso   1.000  C
  C148     1.0000 0.74440  0.66310  0.22190  Biso   1.000  C
  C149     1.0000 0.66310  0.74440  0.77810  Biso   1.000  C
  C150     1.0000 0.33690  0.25560  0.27810  Biso   1.000  C
  C151     1.0000 0.24440  0.83690  0.02810  Biso   1.000  C
  C152     1.0000 0.75560  0.16310  0.52810  Biso   1.000  C
  N9       1.0000 0.46240  0.23620  0.99850  Biso   1.000  N
  N10      1.0000 0.53760  0.76380  0.49850  Biso   1.000  N
  N11      1.0000 0.26380  0.96240  0.74850  Biso   1.000  N
  N12      1.0000 0.73620  0.03760  0.24850  Biso   1.000  N
  N13      1.0000 0.03760  0.73620  0.75150  Biso   1.000  N
  N14      1.0000 0.96240  0.26380  0.25150  Biso   1.000  N
  N15      1.0000 0.23620  0.46240  0.00150  Biso   1.000  N
  N16      1.0000 0.76380  0.53760  0.50150  Biso   1.000  N
  H105     1.0000 0.49040  0.22620  0.05490  Biso   1.000  H
  H106     1.0000 0.50960  0.77380  0.55490  Biso   1.000  H
  H107     1.0000 0.27380  0.99040  0.80490  Biso   1.000  H
  H108     1.0000 0.72620  0.00960  0.30490  Biso   1.000  H
  H109     1.0000 0.00960  0.72620  0.69510  Biso   1.000  H
  H110     1.0000 0.99040  0.27380  0.19510  Biso   1.000  H
  H111     1.0000 0.22620  0.49040  0.94510  Biso   1.000  H
  H112     1.0000 0.77380  0.50960  0.44510  Biso   1.000  H
  H113     1.0000 0.46030  0.22330  0.94120  Biso   1.000  H
  H114     1.0000 0.53970  0.77670  0.44120  Biso   1.000  H
  H115     1.0000 0.27670  0.96030  0.69120  Biso   1.000  H
  H116     1.0000 0.72330  0.03970  0.19120  Biso   1.000  H
  H117     1.0000 0.03970  0.72330  0.80880  Biso   1.000  H
  H118     1.0000 0.96030  0.27670  0.30880  Biso   1.000  H
  H119     1.0000 0.22330  0.46030  0.05880  Biso   1.000  H
  H120     1.0000 0.77670  0.53970  0.55880  Biso   1.000  H
  Cu1      1.0000 0.34892  0.34892  0.00000  Biso   1.000  Cu
  Cu2      1.0000 0.65108  0.65108  0.50000  Biso   1.000  Cu
  Cu3      1.0000 0.15108  0.84892  0.75000  Biso   1.000  Cu
  Cu4      1.0000 0.84892  0.15108  0.25000  Biso   1.000  Cu
  C153     1.0000 0.83170  0.45840  0.99130  Biso   1.000  C
  C154     1.0000 0.16830  0.54160  0.49130  Biso   1.000  C
  C155     1.0000 0.04160  0.33170  0.74130  Biso   1.000  C
  C156     1.0000 0.95840  0.66830  0.24130  Biso   1.000  C
  C157     1.0000 0.66830  0.95840  0.75870  Biso   1.000  C
  C158     1.0000 0.33170  0.04160  0.25870  Biso   1.000  C
  C159     1.0000 0.45840  0.83170  0.00870  Biso   1.000  C
  C160     1.0000 0.54160  0.16830  0.50870  Biso   1.000  C
  C161     1.0000 0.83360  0.32060  0.94320  Biso   1.000  C
  C162     1.0000 0.16640  0.67940  0.44320  Biso   1.000  C
  C163     1.0000 0.17940  0.33360  0.69320  Biso   1.000  C
  C164     1.0000 0.82060  0.66640  0.19320  Biso   1.000  C
  C165     1.0000 0.66640  0.82060  0.80680  Biso   1.000  C
  C166     1.0000 0.33360  0.17940  0.30680  Biso   1.000  C
  C167     1.0000 0.32060  0.83360  0.05680  Biso   1.000  C
  C168     1.0000 0.67940  0.16640  0.55680  Biso   1.000  C
  H121     1.0000 0.83820  0.17340  0.96500  Biso   1.000  H
  H122     1.0000 0.16180  0.82660  0.46500  Biso   1.000  H
  H123     1.0000 0.32660  0.33820  0.71500  Biso   1.000  H
  H124     1.0000 0.67340  0.66180  0.21500  Biso   1.000  H
  H125     1.0000 0.66180  0.67340  0.78500  Biso   1.000  H
  H126     1.0000 0.33820  0.32660  0.28500  Biso   1.000  H
  H127     1.0000 0.17340  0.83820  0.03500  Biso   1.000  H
  H128     1.0000 0.82660  0.16180  0.53500  Biso   1.000  H
  C169     1.0000 0.83170  0.42900  0.95280  Biso   1.000  C
  C170     1.0000 0.16830  0.57100  0.45280  Biso   1.000  C
  C171     1.0000 0.07100  0.33170  0.70280  Biso   1.000  C
  C172     1.0000 0.92900  0.66830  0.20280  Biso   1.000  C
  C173     1.0000 0.66830  0.92900  0.79720  Biso   1.000  C
  C174     1.0000 0.33170  0.07100  0.29720  Biso   1.000  C
  C175     1.0000 0.42900  0.83170  0.04720  Biso   1.000  C
  C176     1.0000 0.57100  0.16830  0.54720  Biso   1.000  C
  H129     1.0000 0.82930  0.52970  0.99760  Biso   1.000  H
  H130     1.0000 0.17070  0.47030  0.49760  Biso   1.000  H
  H131     1.0000 0.97030  0.32930  0.74760  Biso   1.000  H
  H132     1.0000 0.02970  0.67070  0.24760  Biso   1.000  H
  H133     1.0000 0.67070  0.02970  0.75240  Biso   1.000  H
  H134     1.0000 0.32930  0.97030  0.25240  Biso   1.000  H
  H135     1.0000 0.52970  0.82930  0.00240  Biso   1.000  H
  H136     1.0000 0.47030  0.17070  0.50240  Biso   1.000  H
  S9       1.0000 0.84727  0.28084  0.89384  Biso   1.000  S
  S10      1.0000 0.15273  0.71916  0.39384  Biso   1.000  S
  S11      1.0000 0.21916  0.34727  0.64384  Biso   1.000  S
  S12      1.0000 0.78084  0.65273  0.14384  Biso   1.000  S
  S13      1.0000 0.65273  0.78084  0.85616  Biso   1.000  S
  S14      1.0000 0.34727  0.21916  0.35616  Biso   1.000  S
  S15      1.0000 0.28084  0.84727  0.10616  Biso   1.000  S
  S16      1.0000 0.71916  0.15273  0.60616  Biso   1.000  S
  H137     1.0000 0.83050  0.47970  0.93290  Biso   1.000  H
  H138     1.0000 0.16950  0.52030  0.43290  Biso   1.000  H
  H139     1.0000 0.02030  0.33050  0.68290  Biso   1.000  H
  H140     1.0000 0.97970  0.66950  0.18290  Biso   1.000  H
  H141     1.0000 0.66950  0.97970  0.81710  Biso   1.000  H
  H142     1.0000 0.33050  0.02030  0.31710  Biso   1.000  H
  H143     1.0000 0.47970  0.83050  0.06710  Biso   1.000  H
  H144     1.0000 0.52030  0.16950  0.56710  Biso   1.000  H
  O81      1.0000 0.81400  0.17270  0.89231  Biso   1.000  O
  O82      1.0000 0.18600  0.82730  0.39231  Biso   1.000  O
  O83      1.0000 0.32730  0.31400  0.64231  Biso   1.000  O
  O84      1.0000 0.67270  0.68600  0.14231  Biso   1.000  O
  O85      1.0000 0.68600  0.67270  0.85769  Biso   1.000  O
  O86      1.0000 0.31400  0.32730  0.35769  Biso   1.000  O
  O87      1.0000 0.17270  0.81400  0.10769  Biso   1.000  O
  O88      1.0000 0.82730  0.18600  0.60769  Biso   1.000  O
  O89      1.0000 0.95690  0.29720  0.88522  Biso   1.000  O
  O90      1.0000 0.04310  0.70280  0.38522  Biso   1.000  O
  O91      1.0000 0.20280  0.45690  0.63522  Biso   1.000  O
  O92      1.0000 0.79720  0.54310  0.13522  Biso   1.000  O
  O93      1.0000 0.54310  0.79720  0.86478  Biso   1.000  O
  O94      1.0000 0.45690  0.20280  0.36478  Biso   1.000  O
  O95      1.0000 0.29720  0.95690  0.11478  Biso   1.000  O
  O96      1.0000 0.70280  0.04310  0.61478  Biso   1.000  O
  O97      1.0000 0.59870  0.20170  0.13749  Biso   1.000  O
  O98      1.0000 0.40130  0.79830  0.63749  Biso   1.000  O
  O99      1.0000 0.29830  0.09870  0.88749  Biso   1.000  O
  O100     1.0000 0.70170  0.90130  0.38749  Biso   1.000  O
  O101     1.0000 0.90130  0.70170  0.61251  Biso   1.000  O
  O102     1.0000 0.09870  0.29830  0.11251  Biso   1.000  O
  O103     1.0000 0.20170  0.59870  0.86251  Biso   1.000  O
  O104     1.0000 0.79830  0.40130  0.36251  Biso   1.000  O
  H145     1.0000 0.66560  0.20570  0.12350  Biso   1.000  H
  H146     1.0000 0.33440  0.79430  0.62350  Biso   1.000  H
  H147     1.0000 0.29430  0.16560  0.87350  Biso   1.000  H
  H148     1.0000 0.70570  0.83440  0.37350  Biso   1.000  H
  H149     1.0000 0.83440  0.70570  0.62650  Biso   1.000  H
  H150     1.0000 0.16560  0.29430  0.12650  Biso   1.000  H
  H151     1.0000 0.20570  0.66560  0.87650  Biso   1.000  H
  H152     1.0000 0.79430  0.33440  0.37650  Biso   1.000  H
  H153     1.0000 0.57940  0.25380  0.12350  Biso   1.000  H
  H154     1.0000 0.42060  0.74620  0.62350  Biso   1.000  H
  H155     1.0000 0.24620  0.07940  0.87350  Biso   1.000  H
  H156     1.0000 0.75380  0.92060  0.37350  Biso   1.000  H
  H157     1.0000 0.92060  0.75380  0.62650  Biso   1.000  H
  H158     1.0000 0.07940  0.24620  0.12650  Biso   1.000  H
  H159     1.0000 0.25380  0.57940  0.87650  Biso   1.000  H
  H160     1.0000 0.74620  0.42060  0.37650  Biso   1.000  H
  O105     1.0000 0.52800  0.00790  0.11762  Biso   1.000  O
  O106     1.0000 0.47200  0.99210  0.61762  Biso   1.000  O
  O107     1.0000 0.49210  0.02800  0.86762  Biso   1.000  O
  O108     1.0000 0.50790  0.97200  0.36762  Biso   1.000  O
  O109     1.0000 0.97200  0.50790  0.63238  Biso   1.000  O
  O110     1.0000 0.02800  0.49210  0.13238  Biso   1.000  O
  O111     1.0000 0.00790  0.52800  0.88238  Biso   1.000  O
  O112     1.0000 0.99210  0.47200  0.38238  Biso   1.000  O
  H161     1.0000 0.55510  0.06550  0.12550  Biso   1.000  H
  H162     1.0000 0.44490  0.93450  0.62550  Biso   1.000  H
  H163     1.0000 0.43450  0.05510  0.87550  Biso   1.000  H
  H164     1.0000 0.56550  0.94490  0.37550  Biso   1.000  H
  H165     1.0000 0.94490  0.56550  0.62450  Biso   1.000  H
  H166     1.0000 0.05510  0.43450  0.12450  Biso   1.000  H
  H167     1.0000 0.06550  0.55510  0.87450  Biso   1.000  H
  H168     1.0000 0.93450  0.44490  0.37450  Biso   1.000  H
  H169     1.0000 0.46390  0.01050  0.12490  Biso   1.000  H
  H170     1.0000 0.53610  0.98950  0.62490  Biso   1.000  H
  H171     1.0000 0.48950  0.96390  0.87490  Biso   1.000  H
  H172     1.0000 0.51050  0.03610  0.37490  Biso   1.000  H
  H173     1.0000 0.03610  0.51050  0.62510  Biso   1.000  H
  H174     1.0000 0.96390  0.48950  0.12510  Biso   1.000  H
  H175     1.0000 0.01050  0.46390  0.87510  Biso   1.000  H
  H176     1.0000 0.98950  0.53610  0.37510  Biso   1.000  H
