data_image0
_cell_length_a       12.6266
_cell_length_b       12.6266
_cell_length_c       33.793
_cell_angle_alpha    90
_cell_angle_beta     90
_cell_angle_gamma    90

_symmetry_space_group_name_H-M    "P 1"
_symmetry_int_tables_number       1

loop_
  _symmetry_equiv_pos_as_xyz
  'x, y, z'

loop_
  _atom_site_label
  _atom_site_occupancy
  _atom_site_fract_x
  _atom_site_fract_y
  _atom_site_fract_z
  _atom_site_thermal_displace_type
  _atom_site_B_iso_or_equiv
  _atom_site_type_symbol
  C1       1.0000 0.16340  0.38190  0.23030  Biso   1.000  C
  C2       1.0000 0.11810  0.66340  0.98030  Biso   1.000  C
  C3       1.0000 0.83660  0.61810  0.73030  Biso   1.000  C
  C4       1.0000 0.88190  0.33660  0.48030  Biso   1.000  C
  C5       1.0000 0.66340  0.11810  0.01970  Biso   1.000  C
  C6       1.0000 0.38190  0.16340  0.76970  Biso   1.000  C
  C7       1.0000 0.33660  0.88190  0.51970  Biso   1.000  C
  C8       1.0000 0.61810  0.83660  0.26970  Biso   1.000  C
  C9       1.0000 0.16790  0.45750  0.26020  Biso   1.000  C
  C10      1.0000 0.04250  0.66790  0.01020  Biso   1.000  C
  C11      1.0000 0.83210  0.54250  0.76020  Biso   1.000  C
  C12      1.0000 0.95750  0.33210  0.51020  Biso   1.000  C
  C13      1.0000 0.66790  0.04250  0.98980  Biso   1.000  C
  C14      1.0000 0.45750  0.16790  0.73980  Biso   1.000  C
  C15      1.0000 0.33210  0.95750  0.48980  Biso   1.000  C
  C16      1.0000 0.54250  0.83210  0.23980  Biso   1.000  C
  H1       1.0000 0.17010  0.52910  0.25380  Biso   1.000  H
  H2       1.0000 0.97090  0.67010  0.00380  Biso   1.000  H
  H3       1.0000 0.82990  0.47090  0.75380  Biso   1.000  H
  H4       1.0000 0.02910  0.32990  0.50380  Biso   1.000  H
  H5       1.0000 0.67010  0.97090  0.99620  Biso   1.000  H
  H6       1.0000 0.52910  0.17010  0.74620  Biso   1.000  H
  H7       1.0000 0.32990  0.02910  0.49620  Biso   1.000  H
  H8       1.0000 0.47090  0.82990  0.24620  Biso   1.000  H
  C17      1.0000 0.16910  0.42610  0.29960  Biso   1.000  C
  C18      1.0000 0.07390  0.66910  0.04960  Biso   1.000  C
  C19      1.0000 0.83090  0.57390  0.79960  Biso   1.000  C
  C20      1.0000 0.92610  0.33090  0.54960  Biso   1.000  C
  C21      1.0000 0.66910  0.07390  0.95040  Biso   1.000  C
  C22      1.0000 0.42610  0.16910  0.70040  Biso   1.000  C
  C23      1.0000 0.33090  0.92610  0.45040  Biso   1.000  C
  C24      1.0000 0.57390  0.83090  0.20040  Biso   1.000  C
  H9       1.0000 0.17210  0.47670  0.31960  Biso   1.000  H
  H10      1.0000 0.02330  0.67210  0.06960  Biso   1.000  H
  H11      1.0000 0.82790  0.52330  0.81960  Biso   1.000  H
  H12      1.0000 0.97670  0.32790  0.56960  Biso   1.000  H
  H13      1.0000 0.67210  0.02330  0.93040  Biso   1.000  H
  H14      1.0000 0.47670  0.17210  0.68040  Biso   1.000  H
  H15      1.0000 0.32790  0.97670  0.43040  Biso   1.000  H
  H16      1.0000 0.52330  0.82790  0.18040  Biso   1.000  H
  C25      1.0000 0.16570  0.31910  0.30920  Biso   1.000  C
  C26      1.0000 0.18090  0.66570  0.05920  Biso   1.000  C
  C27      1.0000 0.83430  0.68090  0.80920  Biso   1.000  C
  C28      1.0000 0.81910  0.33430  0.55920  Biso   1.000  C
  C29      1.0000 0.66570  0.18090  0.94080  Biso   1.000  C
  C30      1.0000 0.31910  0.16570  0.69080  Biso   1.000  C
  C31      1.0000 0.33430  0.81910  0.44080  Biso   1.000  C
  C32      1.0000 0.68090  0.83430  0.19080  Biso   1.000  C
  C33      1.0000 0.16130  0.24350  0.27930  Biso   1.000  C
  C34      1.0000 0.25650  0.66130  0.02930  Biso   1.000  C
  C35      1.0000 0.83870  0.75650  0.77930  Biso   1.000  C
  C36      1.0000 0.74350  0.33870  0.52930  Biso   1.000  C
  C37      1.0000 0.66130  0.25650  0.97070  Biso   1.000  C
  C38      1.0000 0.24350  0.16130  0.72070  Biso   1.000  C
  C39      1.0000 0.33870  0.74350  0.47070  Biso   1.000  C
  C40      1.0000 0.75650  0.83870  0.22070  Biso   1.000  C
  H17      1.0000 0.15900  0.17190  0.28570  Biso   1.000  H
  H18      1.0000 0.32810  0.65900  0.03570  Biso   1.000  H
  H19      1.0000 0.84100  0.82810  0.78570  Biso   1.000  H
  H20      1.0000 0.67190  0.34100  0.53570  Biso   1.000  H
  H21      1.0000 0.65900  0.32810  0.96430  Biso   1.000  H
  H22      1.0000 0.17190  0.15900  0.71430  Biso   1.000  H
  H23      1.0000 0.34100  0.67190  0.46430  Biso   1.000  H
  H24      1.0000 0.82810  0.84100  0.21430  Biso   1.000  H
  C41      1.0000 0.16010  0.27490  0.23990  Biso   1.000  C
  C42      1.0000 0.22510  0.66010  0.98990  Biso   1.000  C
  C43      1.0000 0.83990  0.72510  0.73990  Biso   1.000  C
  C44      1.0000 0.77490  0.33990  0.48990  Biso   1.000  C
  C45      1.0000 0.66010  0.22510  0.01010  Biso   1.000  C
  C46      1.0000 0.27490  0.16010  0.76010  Biso   1.000  C
  C47      1.0000 0.33990  0.77490  0.51010  Biso   1.000  C
  C48      1.0000 0.72510  0.83990  0.26010  Biso   1.000  C
  C49      1.0000 0.16180  0.40800  0.19210  Biso   1.000  C
  C50      1.0000 0.09200  0.66180  0.94210  Biso   1.000  C
  C51      1.0000 0.83820  0.59200  0.69210  Biso   1.000  C
  C52      1.0000 0.90800  0.33820  0.44210  Biso   1.000  C
  C53      1.0000 0.66180  0.09200  0.05790  Biso   1.000  C
  C54      1.0000 0.40800  0.16180  0.80790  Biso   1.000  C
  C55      1.0000 0.33820  0.90800  0.55790  Biso   1.000  C
  C56      1.0000 0.59200  0.83820  0.30790  Biso   1.000  C
  H25      1.0000 0.16540  0.47990  0.18630  Biso   1.000  H
  H26      1.0000 0.02010  0.66540  0.93630  Biso   1.000  H
  H27      1.0000 0.83460  0.52010  0.68630  Biso   1.000  H
  H28      1.0000 0.97990  0.33460  0.43630  Biso   1.000  H
  H29      1.0000 0.66540  0.02010  0.06370  Biso   1.000  H
  H30      1.0000 0.47990  0.16540  0.81370  Biso   1.000  H
  H31      1.0000 0.33460  0.97990  0.56370  Biso   1.000  H
  H32      1.0000 0.52010  0.83460  0.31370  Biso   1.000  H
  C57      1.0000 0.15560  0.34150  0.16070  Biso   1.000  C
  C58      1.0000 0.15850  0.65560  0.91070  Biso   1.000  C
  C59      1.0000 0.84440  0.65850  0.66070  Biso   1.000  C
  C60      1.0000 0.84150  0.34440  0.41070  Biso   1.000  C
  C61      1.0000 0.65560  0.15850  0.08930  Biso   1.000  C
  C62      1.0000 0.34150  0.15560  0.83930  Biso   1.000  C
  C63      1.0000 0.34440  0.84150  0.58930  Biso   1.000  C
  C64      1.0000 0.65850  0.84440  0.33930  Biso   1.000  C
  H33      1.0000 0.15420  0.36460  0.13460  Biso   1.000  H
  H34      1.0000 0.13540  0.65420  0.88460  Biso   1.000  H
  H35      1.0000 0.84580  0.63540  0.63460  Biso   1.000  H
  H36      1.0000 0.86460  0.34580  0.38460  Biso   1.000  H
  H37      1.0000 0.65420  0.13540  0.11540  Biso   1.000  H
  H38      1.0000 0.36460  0.15420  0.86540  Biso   1.000  H
  H39      1.0000 0.34580  0.86460  0.61540  Biso   1.000  H
  H40      1.0000 0.63540  0.84580  0.36540  Biso   1.000  H
  C65      1.0000 0.15150  0.23170  0.17170  Biso   1.000  C
  C66      1.0000 0.26830  0.65150  0.92170  Biso   1.000  C
  C67      1.0000 0.84850  0.76830  0.67170  Biso   1.000  C
  C68      1.0000 0.73170  0.34850  0.42170  Biso   1.000  C
  C69      1.0000 0.65150  0.26830  0.07830  Biso   1.000  C
  C70      1.0000 0.23170  0.15150  0.82830  Biso   1.000  C
  C71      1.0000 0.34850  0.73170  0.57830  Biso   1.000  C
  C72      1.0000 0.76830  0.84850  0.32830  Biso   1.000  C
  C73      1.0000 0.15440  0.19930  0.20930  Biso   1.000  C
  C74      1.0000 0.30070  0.65440  0.95930  Biso   1.000  C
  C75      1.0000 0.84560  0.80070  0.70930  Biso   1.000  C
  C76      1.0000 0.69930  0.34560  0.45930  Biso   1.000  C
  C77      1.0000 0.65440  0.30070  0.04070  Biso   1.000  C
  C78      1.0000 0.19930  0.15440  0.79070  Biso   1.000  C
  C79      1.0000 0.34560  0.69930  0.54070  Biso   1.000  C
  C80      1.0000 0.80070  0.84560  0.29070  Biso   1.000  C
  H41      1.0000 0.15270  0.12740  0.21520  Biso   1.000  H
  H42      1.0000 0.37260  0.65270  0.96520  Biso   1.000  H
  H43      1.0000 0.84730  0.87260  0.71520  Biso   1.000  H
  H44      1.0000 0.62740  0.34730  0.46520  Biso   1.000  H
  H45      1.0000 0.65270  0.37260  0.03480  Biso   1.000  H
  H46      1.0000 0.12740  0.15270  0.78480  Biso   1.000  H
  H47      1.0000 0.34730  0.62740  0.53480  Biso   1.000  H
  H48      1.0000 0.87260  0.84730  0.28480  Biso   1.000  H
  C81      1.0000 0.29600  0.99520  0.26070  Biso   1.000  C
  C82      1.0000 0.50480  0.79600  0.01070  Biso   1.000  C
  C83      1.0000 0.70400  0.00480  0.76070  Biso   1.000  C
  C84      1.0000 0.49520  0.20400  0.51070  Biso   1.000  C
  C85      1.0000 0.79600  0.50480  0.98930  Biso   1.000  C
  C86      1.0000 0.99520  0.29600  0.73930  Biso   1.000  C
  C87      1.0000 0.20400  0.49520  0.48930  Biso   1.000  C
  C88      1.0000 0.00480  0.70400  0.23930  Biso   1.000  C
  C89      1.0000 0.38210  0.08210  0.25690  Biso   1.000  C
  C90      1.0000 0.41790  0.88210  0.00690  Biso   1.000  C
  C91      1.0000 0.61790  0.91790  0.75690  Biso   1.000  C
  C92      1.0000 0.58210  0.11790  0.50690  Biso   1.000  C
  C93      1.0000 0.88210  0.41790  0.99310  Biso   1.000  C
  C94      1.0000 0.08210  0.38210  0.74310  Biso   1.000  C
  C95      1.0000 0.11790  0.58210  0.49310  Biso   1.000  C
  C96      1.0000 0.91790  0.61790  0.24310  Biso   1.000  C
  C97      1.0000 0.41180  0.11800  0.22070  Biso   1.000  C
  C98      1.0000 0.38200  0.91180  0.97070  Biso   1.000  C
  C99      1.0000 0.58820  0.88200  0.72070  Biso   1.000  C
  C100     1.0000 0.61800  0.08820  0.47070  Biso   1.000  C
  C101     1.0000 0.91180  0.38200  0.02930  Biso   1.000  C
  C102     1.0000 0.11800  0.41180  0.77930  Biso   1.000  C
  C103     1.0000 0.08820  0.61800  0.52930  Biso   1.000  C
  C104     1.0000 0.88200  0.58820  0.27930  Biso   1.000  C
  H49      1.0000 0.38120  0.09240  0.19760  Biso   1.000  H
  H50      1.0000 0.40760  0.88120  0.94760  Biso   1.000  H
  H51      1.0000 0.61880  0.90760  0.69760  Biso   1.000  H
  H52      1.0000 0.59240  0.11880  0.44760  Biso   1.000  H
  H53      1.0000 0.88120  0.40760  0.05240  Biso   1.000  H
  H54      1.0000 0.09240  0.38120  0.80240  Biso   1.000  H
  H55      1.0000 0.11880  0.59240  0.55240  Biso   1.000  H
  H56      1.0000 0.90760  0.61880  0.30240  Biso   1.000  H
  C105     1.0000 0.49170  0.19630  0.22010  Biso   1.000  C
  C106     1.0000 0.30370  0.99170  0.97010  Biso   1.000  C
  C107     1.0000 0.50830  0.80370  0.72010  Biso   1.000  C
  C108     1.0000 0.69630  0.00830  0.47010  Biso   1.000  C
  C109     1.0000 0.99170  0.30370  0.02990  Biso   1.000  C
  C110     1.0000 0.19630  0.49170  0.77990  Biso   1.000  C
  C111     1.0000 0.00830  0.69630  0.52990  Biso   1.000  C
  C112     1.0000 0.80370  0.50830  0.27990  Biso   1.000  C
  H57      1.0000 0.51400  0.22130  0.19560  Biso   1.000  H
  H58      1.0000 0.27870  0.01400  0.94560  Biso   1.000  H
  H59      1.0000 0.48600  0.77870  0.69560  Biso   1.000  H
  H60      1.0000 0.72130  0.98600  0.44560  Biso   1.000  H
  H61      1.0000 0.01400  0.27870  0.05440  Biso   1.000  H
  H62      1.0000 0.22130  0.51400  0.80440  Biso   1.000  H
  H63      1.0000 0.98600  0.72130  0.55440  Biso   1.000  H
  H64      1.0000 0.77870  0.48600  0.30440  Biso   1.000  H
  C113     1.0000 0.50320  0.19870  0.28630  Biso   1.000  C
  C114     1.0000 0.30130  0.00320  0.03630  Biso   1.000  C
  C115     1.0000 0.49680  0.80130  0.78630  Biso   1.000  C
  C116     1.0000 0.69870  0.99680  0.53630  Biso   1.000  C
  C117     1.0000 0.00320  0.30130  0.96370  Biso   1.000  C
  C118     1.0000 0.19870  0.50320  0.71370  Biso   1.000  C
  C119     1.0000 0.99680  0.69870  0.46370  Biso   1.000  C
  C120     1.0000 0.80130  0.49680  0.21370  Biso   1.000  C
  H65      1.0000 0.53270  0.22640  0.30930  Biso   1.000  H
  H66      1.0000 0.27360  0.03270  0.05930  Biso   1.000  H
  H67      1.0000 0.46730  0.77360  0.80930  Biso   1.000  H
  H68      1.0000 0.72640  0.96730  0.55930  Biso   1.000  H
  H69      1.0000 0.03270  0.27360  0.94070  Biso   1.000  H
  H70      1.0000 0.22640  0.53270  0.69070  Biso   1.000  H
  H71      1.0000 0.96730  0.72640  0.44070  Biso   1.000  H
  H72      1.0000 0.77360  0.46730  0.19070  Biso   1.000  H
  C121     1.0000 0.42430  0.11820  0.29010  Biso   1.000  C
  C122     1.0000 0.38180  0.92430  0.04010  Biso   1.000  C
  C123     1.0000 0.57570  0.88180  0.79010  Biso   1.000  C
  C124     1.0000 0.61820  0.07570  0.54010  Biso   1.000  C
  C125     1.0000 0.92430  0.38180  0.95990  Biso   1.000  C
  C126     1.0000 0.11820  0.42430  0.70990  Biso   1.000  C
  C127     1.0000 0.07570  0.61820  0.45990  Biso   1.000  C
  C128     1.0000 0.88180  0.57570  0.20990  Biso   1.000  C
  H73      1.0000 0.40370  0.09240  0.31470  Biso   1.000  H
  H74      1.0000 0.40760  0.90370  0.06470  Biso   1.000  H
  H75      1.0000 0.59630  0.90760  0.81470  Biso   1.000  H
  H76      1.0000 0.59240  0.09630  0.56470  Biso   1.000  H
  H77      1.0000 0.90370  0.40760  0.93530  Biso   1.000  H
  H78      1.0000 0.09240  0.40370  0.68530  Biso   1.000  H
  H79      1.0000 0.09630  0.59240  0.43530  Biso   1.000  H
  H80      1.0000 0.90760  0.59630  0.18530  Biso   1.000  H
  C129     1.0000 0.00420  0.99580  0.25000  Biso   1.000  C
  C130     1.0000 0.50420  0.50420  0.00000  Biso   1.000  C
  C131     1.0000 0.99580  0.00420  0.75000  Biso   1.000  C
  C132     1.0000 0.49580  0.49580  0.50000  Biso   1.000  C
  C133     1.0000 0.92050  0.07950  0.25000  Biso   1.000  C
  C134     1.0000 0.42050  0.42050  0.00000  Biso   1.000  C
  C135     1.0000 0.07950  0.92050  0.75000  Biso   1.000  C
  C136     1.0000 0.57950  0.57950  0.50000  Biso   1.000  C
  C137     1.0000 0.90050  0.14710  0.28230  Biso   1.000  C
  C138     1.0000 0.35290  0.40050  0.03230  Biso   1.000  C
  C139     1.0000 0.09950  0.85290  0.78230  Biso   1.000  C
  C140     1.0000 0.64710  0.59950  0.53230  Biso   1.000  C
  C141     1.0000 0.40050  0.35290  0.96770  Biso   1.000  C
  C142     1.0000 0.14710  0.90050  0.71770  Biso   1.000  C
  C143     1.0000 0.59950  0.64710  0.46770  Biso   1.000  C
  C144     1.0000 0.85290  0.09950  0.21770  Biso   1.000  C
  H81      1.0000 0.94140  0.13980  0.30500  Biso   1.000  H
  H82      1.0000 0.36020  0.44140  0.05500  Biso   1.000  H
  H83      1.0000 0.05860  0.86020  0.80500  Biso   1.000  H
  H84      1.0000 0.63980  0.55860  0.55500  Biso   1.000  H
  H85      1.0000 0.44140  0.36020  0.94500  Biso   1.000  H
  H86      1.0000 0.13980  0.94140  0.69500  Biso   1.000  H
  H87      1.0000 0.55860  0.63980  0.44500  Biso   1.000  H
  H88      1.0000 0.86020  0.05860  0.19500  Biso   1.000  H
  C145     1.0000 0.82470  0.22170  0.28150  Biso   1.000  C
  C146     1.0000 0.27830  0.32470  0.03150  Biso   1.000  C
  C147     1.0000 0.17530  0.77830  0.78150  Biso   1.000  C
  C148     1.0000 0.72170  0.67530  0.53150  Biso   1.000  C
  C149     1.0000 0.32470  0.27830  0.96850  Biso   1.000  C
  C150     1.0000 0.22170  0.82470  0.71850  Biso   1.000  C
  C151     1.0000 0.67530  0.72170  0.46850  Biso   1.000  C
  C152     1.0000 0.77830  0.17530  0.21850  Biso   1.000  C
  H89      1.0000 0.81470  0.26430  0.30370  Biso   1.000  H
  H90      1.0000 0.23570  0.31470  0.05370  Biso   1.000  H
  H91      1.0000 0.18530  0.73570  0.80370  Biso   1.000  H
  H92      1.0000 0.76430  0.68530  0.55370  Biso   1.000  H
  H93      1.0000 0.31470  0.23570  0.94630  Biso   1.000  H
  H94      1.0000 0.26430  0.81470  0.69630  Biso   1.000  H
  H95      1.0000 0.68530  0.76430  0.44630  Biso   1.000  H
  H96      1.0000 0.73570  0.18530  0.19630  Biso   1.000  H
  N1       1.0000 0.76370  0.23630  0.25000  Biso   1.000  N
  N2       1.0000 0.26370  0.26370  0.00000  Biso   1.000  N
  N3       1.0000 0.23630  0.76370  0.75000  Biso   1.000  N
  N4       1.0000 0.73630  0.73630  0.50000  Biso   1.000  N
  N5       1.0000 0.53940  0.46060  0.25000  Biso   1.000  N
  N6       1.0000 0.03940  0.03940  0.00000  Biso   1.000  N
  N7       1.0000 0.46060  0.53940  0.75000  Biso   1.000  N
  N8       1.0000 0.96060  0.96060  0.50000  Biso   1.000  N
  N9       1.0000 0.53660  0.23610  0.25180  Biso   1.000  N
  N10      1.0000 0.26390  0.03660  0.00180  Biso   1.000  N
  N11      1.0000 0.46340  0.76390  0.75180  Biso   1.000  N
  N12      1.0000 0.73610  0.96340  0.50180  Biso   1.000  N
  N13      1.0000 0.03660  0.26390  0.99820  Biso   1.000  N
  N14      1.0000 0.23610  0.53660  0.74820  Biso   1.000  N
  N15      1.0000 0.96340  0.73610  0.49820  Biso   1.000  N
  N16      1.0000 0.76390  0.46340  0.24820  Biso   1.000  N
  O1       1.0000 0.32750  0.86820  0.15080  Biso   1.000  O
  O2       1.0000 0.63180  0.82750  0.90080  Biso   1.000  O
  O3       1.0000 0.67250  0.13180  0.65080  Biso   1.000  O
  O4       1.0000 0.36820  0.17250  0.40080  Biso   1.000  O
  O5       1.0000 0.82750  0.63180  0.09920  Biso   1.000  O
  O6       1.0000 0.86820  0.32750  0.84920  Biso   1.000  O
  O7       1.0000 0.17250  0.36820  0.59920  Biso   1.000  O
  O8       1.0000 0.13180  0.67250  0.34920  Biso   1.000  O
  H97      1.0000 0.34820  0.80610  0.14490  Biso   1.000  H
  H98      1.0000 0.69390  0.84820  0.89490  Biso   1.000  H
  H99      1.0000 0.65180  0.19390  0.64490  Biso   1.000  H
  H100     1.0000 0.30610  0.15180  0.39490  Biso   1.000  H
  H101     1.0000 0.84820  0.69390  0.10510  Biso   1.000  H
  H102     1.0000 0.80610  0.34820  0.85510  Biso   1.000  H
  H103     1.0000 0.15180  0.30610  0.60510  Biso   1.000  H
  H104     1.0000 0.19390  0.65180  0.35510  Biso   1.000  H
  H105     1.0000 0.37210  0.89680  0.16640  Biso   1.000  H
  H106     1.0000 0.60320  0.87210  0.91640  Biso   1.000  H
  H107     1.0000 0.62790  0.10320  0.66640  Biso   1.000  H
  H108     1.0000 0.39680  0.12790  0.41640  Biso   1.000  H
  H109     1.0000 0.87210  0.60320  0.08360  Biso   1.000  H
  H110     1.0000 0.89680  0.37210  0.83360  Biso   1.000  H
  H111     1.0000 0.12790  0.39680  0.58360  Biso   1.000  H
  H112     1.0000 0.10320  0.62790  0.33360  Biso   1.000  H
  O9       1.0000 0.02000  0.89530  0.13550  Biso   1.000  O
  O10      1.0000 0.60470  0.52000  0.88550  Biso   1.000  O
  O11      1.0000 0.98000  0.10470  0.63550  Biso   1.000  O
  O12      1.0000 0.39530  0.48000  0.38550  Biso   1.000  O
  O13      1.0000 0.52000  0.60470  0.11450  Biso   1.000  O
  O14      1.0000 0.89530  0.02000  0.86450  Biso   1.000  O
  O15      1.0000 0.48000  0.39530  0.61450  Biso   1.000  O
  O16      1.0000 0.10470  0.98000  0.36450  Biso   1.000  O
  H113     1.0000 0.98310  0.94700  0.14380  Biso   1.000  H
  H114     1.0000 0.55300  0.48310  0.89380  Biso   1.000  H
  H115     1.0000 0.01690  0.05300  0.64380  Biso   1.000  H
  H116     1.0000 0.44700  0.51690  0.39380  Biso   1.000  H
  H117     1.0000 0.48310  0.55300  0.10620  Biso   1.000  H
  H118     1.0000 0.94700  0.98310  0.85620  Biso   1.000  H
  H119     1.0000 0.51690  0.44700  0.60620  Biso   1.000  H
  H120     1.0000 0.05300  0.01690  0.35620  Biso   1.000  H
  H121     1.0000 0.98030  0.84170  0.13210  Biso   1.000  H
  H122     1.0000 0.65830  0.48030  0.88210  Biso   1.000  H
  H123     1.0000 0.01970  0.15830  0.63210  Biso   1.000  H
  H124     1.0000 0.34170  0.51970  0.38210  Biso   1.000  H
  H125     1.0000 0.48030  0.65830  0.11790  Biso   1.000  H
  H126     1.0000 0.84170  0.98030  0.86790  Biso   1.000  H
  H127     1.0000 0.51970  0.34170  0.61790  Biso   1.000  H
  H128     1.0000 0.15830  0.01970  0.36790  Biso   1.000  H
  O17      1.0000 0.18430  0.03780  0.14920  Biso   1.000  O
  O18      1.0000 0.46220  0.68430  0.89920  Biso   1.000  O
  O19      1.0000 0.81570  0.96220  0.64920  Biso   1.000  O
  O20      1.0000 0.53780  0.31570  0.39920  Biso   1.000  O
  O21      1.0000 0.68430  0.46220  0.10080  Biso   1.000  O
  O22      1.0000 0.03780  0.18430  0.85080  Biso   1.000  O
  O23      1.0000 0.31570  0.53780  0.60080  Biso   1.000  O
  O24      1.0000 0.96220  0.81570  0.35080  Biso   1.000  O
  O25      1.0000 0.01910  0.11690  0.12910  Biso   1.000  O
  O26      1.0000 0.38310  0.51910  0.87910  Biso   1.000  O
  O27      1.0000 0.98090  0.88310  0.62910  Biso   1.000  O
  O28      1.0000 0.61690  0.48090  0.37910  Biso   1.000  O
  O29      1.0000 0.51910  0.38310  0.12090  Biso   1.000  O
  O30      1.0000 0.11690  0.01910  0.87090  Biso   1.000  O
  O31      1.0000 0.48090  0.61690  0.62090  Biso   1.000  O
  O32      1.0000 0.88310  0.98090  0.37090  Biso   1.000  O
  O33      1.0000 0.18030  0.17250  0.09740  Biso   1.000  O
  O34      1.0000 0.32750  0.68030  0.84740  Biso   1.000  O
  O35      1.0000 0.81970  0.82750  0.59740  Biso   1.000  O
  O36      1.0000 0.67250  0.31970  0.34740  Biso   1.000  O
  O37      1.0000 0.68030  0.32750  0.15260  Biso   1.000  O
  O38      1.0000 0.17250  0.18030  0.90260  Biso   1.000  O
  O39      1.0000 0.31970  0.67250  0.65260  Biso   1.000  O
  O40      1.0000 0.82750  0.81970  0.40260  Biso   1.000  O
  O41      1.0000 0.23840  0.33880  0.37750  Biso   1.000  O
  O42      1.0000 0.16120  0.73840  0.12750  Biso   1.000  O
  O43      1.0000 0.76160  0.66120  0.87750  Biso   1.000  O
  O44      1.0000 0.83880  0.26160  0.62750  Biso   1.000  O
  O45      1.0000 0.73840  0.16120  0.87250  Biso   1.000  O
  O46      1.0000 0.33880  0.23840  0.62250  Biso   1.000  O
  O47      1.0000 0.26160  0.83880  0.37250  Biso   1.000  O
  O48      1.0000 0.66120  0.76160  0.12250  Biso   1.000  O
  O49      1.0000 0.04300  0.29040  0.36780  Biso   1.000  O
  O50      1.0000 0.20960  0.54300  0.11780  Biso   1.000  O
  O51      1.0000 0.95700  0.70960  0.86780  Biso   1.000  O
  O52      1.0000 0.79040  0.45700  0.61780  Biso   1.000  O
  O53      1.0000 0.54300  0.20960  0.88220  Biso   1.000  O
  O54      1.0000 0.29040  0.04300  0.63220  Biso   1.000  O
  O55      1.0000 0.45700  0.79040  0.38220  Biso   1.000  O
  O56      1.0000 0.70960  0.95700  0.13220  Biso   1.000  O
  O57      1.0000 0.18800  0.17200  0.35950  Biso   1.000  O
  O58      1.0000 0.32800  0.68800  0.10950  Biso   1.000  O
  O59      1.0000 0.81200  0.82800  0.85950  Biso   1.000  O
  O60      1.0000 0.67200  0.31200  0.60950  Biso   1.000  O
  O61      1.0000 0.68800  0.32800  0.89050  Biso   1.000  O
  O62      1.0000 0.17200  0.18800  0.64050  Biso   1.000  O
  O63      1.0000 0.31200  0.67200  0.39050  Biso   1.000  O
  O64      1.0000 0.82800  0.81200  0.14050  Biso   1.000  O
  O65      1.0000 0.26190  0.95810  0.22900  Biso   1.000  O
  O66      1.0000 0.54190  0.76190  0.97900  Biso   1.000  O
  O67      1.0000 0.73810  0.04190  0.72900  Biso   1.000  O
  O68      1.0000 0.45810  0.23810  0.47900  Biso   1.000  O
  O69      1.0000 0.76190  0.54190  0.02100  Biso   1.000  O
  O70      1.0000 0.95810  0.26190  0.77100  Biso   1.000  O
  O71      1.0000 0.23810  0.45810  0.52100  Biso   1.000  O
  O72      1.0000 0.04190  0.73810  0.27100  Biso   1.000  O
  O73      1.0000 0.26830  0.97090  0.29390  Biso   1.000  O
  O74      1.0000 0.52910  0.76830  0.04390  Biso   1.000  O
  O75      1.0000 0.73170  0.02910  0.79390  Biso   1.000  O
  O76      1.0000 0.47090  0.23170  0.54390  Biso   1.000  O
  O77      1.0000 0.76830  0.52910  0.95610  Biso   1.000  O
  O78      1.0000 0.97090  0.26830  0.70610  Biso   1.000  O
  O79      1.0000 0.23170  0.47090  0.45610  Biso   1.000  O
  O80      1.0000 0.02910  0.73170  0.20610  Biso   1.000  O
  O81      1.0000 0.03110  0.96090  0.21710  Biso   1.000  O
  O82      1.0000 0.53910  0.53110  0.96710  Biso   1.000  O
  O83      1.0000 0.96890  0.03910  0.71710  Biso   1.000  O
  O84      1.0000 0.46090  0.46890  0.46710  Biso   1.000  O
  O85      1.0000 0.53110  0.53910  0.03290  Biso   1.000  O
  O86      1.0000 0.96090  0.03110  0.78290  Biso   1.000  O
  O87      1.0000 0.46890  0.46090  0.53290  Biso   1.000  O
  O88      1.0000 0.03910  0.96890  0.28290  Biso   1.000  O
  O89      1.0000 0.25880  0.72800  0.21750  Biso   1.000  O
  O90      1.0000 0.77200  0.75880  0.96750  Biso   1.000  O
  O91      1.0000 0.74120  0.27200  0.71750  Biso   1.000  O
  O92      1.0000 0.22800  0.24120  0.46750  Biso   1.000  O
  O93      1.0000 0.75880  0.77200  0.03250  Biso   1.000  O
  O94      1.0000 0.72800  0.25880  0.78250  Biso   1.000  O
  O95      1.0000 0.24120  0.22800  0.53250  Biso   1.000  O
  O96      1.0000 0.27200  0.74120  0.28250  Biso   1.000  O
  S1       1.0000 0.13400  0.13080  0.13328  Biso   1.000  S
  S2       1.0000 0.36920  0.63400  0.88328  Biso   1.000  S
  S3       1.0000 0.86600  0.86920  0.63328  Biso   1.000  S
  S4       1.0000 0.63080  0.36600  0.38328  Biso   1.000  S
  S5       1.0000 0.63400  0.36920  0.11672  Biso   1.000  S
  S6       1.0000 0.13080  0.13400  0.86672  Biso   1.000  S
  S7       1.0000 0.36600  0.63080  0.61672  Biso   1.000  S
  S8       1.0000 0.86920  0.86600  0.36672  Biso   1.000  S
  S9       1.0000 0.15070  0.27800  0.35823  Biso   1.000  S
  S10      1.0000 0.22200  0.65070  0.10823  Biso   1.000  S
  S11      1.0000 0.84930  0.72200  0.85823  Biso   1.000  S
  S12      1.0000 0.77800  0.34930  0.60823  Biso   1.000  S
  S13      1.0000 0.65070  0.22200  0.89177  Biso   1.000  S
  S14      1.0000 0.27800  0.15070  0.64177  Biso   1.000  S
  S15      1.0000 0.34930  0.77800  0.39177  Biso   1.000  S
  S16      1.0000 0.72200  0.84930  0.14177  Biso   1.000  S
  Cu1      1.0000 0.65061  0.34939  0.25000  Biso   1.000  Cu
  Cu2      1.0000 0.15061  0.15061  0.00000  Biso   1.000  Cu
  Cu3      1.0000 0.34939  0.65061  0.75000  Biso   1.000  Cu
  Cu4      1.0000 0.84939  0.84939  0.50000  Biso   1.000  Cu
  Gd1      1.0000 0.15988  0.85903  0.18316  Biso   1.000  Gd
  Gd2      1.0000 0.64097  0.65988  0.93316  Biso   1.000  Gd
  Gd3      1.0000 0.84012  0.14097  0.68316  Biso   1.000  Gd
  Gd4      1.0000 0.35903  0.34012  0.43316  Biso   1.000  Gd
  Gd5      1.0000 0.65988  0.64097  0.06684  Biso   1.000  Gd
  Gd6      1.0000 0.85903  0.15988  0.81684  Biso   1.000  Gd
  Gd7      1.0000 0.34012  0.35903  0.56684  Biso   1.000  Gd
  Gd8      1.0000 0.14097  0.84012  0.31684  Biso   1.000  Gd
  C153     1.0000 0.29980  0.70020  0.25000  Biso   1.000  C
  C154     1.0000 0.79980  0.79980  0.00000  Biso   1.000  C
  C155     1.0000 0.70020  0.29980  0.75000  Biso   1.000  C
  C156     1.0000 0.20020  0.20020  0.50000  Biso   1.000  C
  C157     1.0000 0.38640  0.61360  0.25000  Biso   1.000  C
  C158     1.0000 0.88640  0.88640  0.00000  Biso   1.000  C
  C159     1.0000 0.61360  0.38640  0.75000  Biso   1.000  C
  C160     1.0000 0.11360  0.11360  0.50000  Biso   1.000  C
  C161     1.0000 0.43310  0.58630  0.28520  Biso   1.000  C
  C162     1.0000 0.91370  0.93310  0.03520  Biso   1.000  C
  C163     1.0000 0.56690  0.41370  0.78520  Biso   1.000  C
  C164     1.0000 0.08630  0.06690  0.53520  Biso   1.000  C
  C165     1.0000 0.93310  0.91370  0.96480  Biso   1.000  C
  C166     1.0000 0.58630  0.43310  0.71480  Biso   1.000  C
  C167     1.0000 0.06690  0.08630  0.46480  Biso   1.000  C
  C168     1.0000 0.41370  0.56690  0.21480  Biso   1.000  C
  H129     1.0000 0.41100  0.61430  0.30930  Biso   1.000  H
  H130     1.0000 0.88570  0.91100  0.05930  Biso   1.000  H
  H131     1.0000 0.58900  0.38570  0.80930  Biso   1.000  H
  H132     1.0000 0.11430  0.08900  0.55930  Biso   1.000  H
  H133     1.0000 0.91100  0.88570  0.94070  Biso   1.000  H
  H134     1.0000 0.61430  0.41100  0.69070  Biso   1.000  H
  H135     1.0000 0.08900  0.11430  0.44070  Biso   1.000  H
  H136     1.0000 0.38570  0.58900  0.19070  Biso   1.000  H
  C169     1.0000 0.51590  0.51380  0.28240  Biso   1.000  C
  C170     1.0000 0.98620  0.01590  0.03240  Biso   1.000  C
  C171     1.0000 0.48410  0.48620  0.78240  Biso   1.000  C
  C172     1.0000 0.01380  0.98410  0.53240  Biso   1.000  C
  C173     1.0000 0.01590  0.98620  0.96760  Biso   1.000  C
  C174     1.0000 0.51380  0.51590  0.71760  Biso   1.000  C
  C175     1.0000 0.98410  0.01380  0.46760  Biso   1.000  C
  C176     1.0000 0.48620  0.48410  0.21760  Biso   1.000  C
  H137     1.0000 0.55720  0.50220  0.30480  Biso   1.000  H
  H138     1.0000 0.99780  0.05720  0.05480  Biso   1.000  H
  H139     1.0000 0.44280  0.49780  0.80480  Biso   1.000  H
  H140     1.0000 0.00220  0.94280  0.55480  Biso   1.000  H
  H141     1.0000 0.05720  0.99780  0.94520  Biso   1.000  H
  H142     1.0000 0.50220  0.55720  0.69520  Biso   1.000  H
  H143     1.0000 0.94280  0.00220  0.44520  Biso   1.000  H
  H144     1.0000 0.49780  0.44280  0.19520  Biso   1.000  H
  O97      1.0000 0.40100  0.20750  0.11410  Biso   1.000  O
  O98      1.0000 0.29250  0.90100  0.86410  Biso   1.000  O
  O99      1.0000 0.59900  0.79250  0.61410  Biso   1.000  O
  O100     1.0000 0.70750  0.09900  0.36410  Biso   1.000  O
  O101     1.0000 0.90100  0.29250  0.13590  Biso   1.000  O
  O102     1.0000 0.20750  0.40100  0.88590  Biso   1.000  O
  O103     1.0000 0.09900  0.70750  0.63590  Biso   1.000  O
  O104     1.0000 0.79250  0.59900  0.38590  Biso   1.000  O
  H145     1.0000 0.33580  0.19630  0.11860  Biso   1.000  H
  H146     1.0000 0.30370  0.83580  0.86860  Biso   1.000  H
  H147     1.0000 0.66420  0.80370  0.61860  Biso   1.000  H
  H148     1.0000 0.69630  0.16420  0.36860  Biso   1.000  H
  H149     1.0000 0.83580  0.30370  0.13140  Biso   1.000  H
  H150     1.0000 0.19630  0.33580  0.88140  Biso   1.000  H
  H151     1.0000 0.16420  0.69630  0.63140  Biso   1.000  H
  H152     1.0000 0.80370  0.66420  0.38140  Biso   1.000  H
  H153     1.0000 0.43380  0.21470  0.13590  Biso   1.000  H
  H154     1.0000 0.28530  0.93380  0.88590  Biso   1.000  H
  H155     1.0000 0.56620  0.78530  0.63590  Biso   1.000  H
  H156     1.0000 0.71470  0.06620  0.38590  Biso   1.000  H
  H157     1.0000 0.93380  0.28530  0.11410  Biso   1.000  H
  H158     1.0000 0.21470  0.43380  0.86410  Biso   1.000  H
  H159     1.0000 0.06620  0.71470  0.61410  Biso   1.000  H
  H160     1.0000 0.78530  0.56620  0.36410  Biso   1.000  H
  O105     1.0000 0.47190  0.00960  0.13170  Biso   1.000  O
  O106     1.0000 0.49040  0.97190  0.88170  Biso   1.000  O
  O107     1.0000 0.52810  0.99040  0.63170  Biso   1.000  O
  O108     1.0000 0.50960  0.02810  0.38170  Biso   1.000  O
  O109     1.0000 0.97190  0.49040  0.11830  Biso   1.000  O
  O110     1.0000 0.00960  0.47190  0.86830  Biso   1.000  O
  O111     1.0000 0.02810  0.50960  0.61830  Biso   1.000  O
  O112     1.0000 0.99040  0.52810  0.36830  Biso   1.000  O
  H161     1.0000 0.53310  0.98730  0.12540  Biso   1.000  H
  H162     1.0000 0.51270  0.03310  0.87540  Biso   1.000  H
  H163     1.0000 0.46690  0.01270  0.62540  Biso   1.000  H
  H164     1.0000 0.48730  0.96690  0.37540  Biso   1.000  H
  H165     1.0000 0.03310  0.51270  0.12460  Biso   1.000  H
  H166     1.0000 0.98730  0.53310  0.87460  Biso   1.000  H
  H167     1.0000 0.96690  0.48730  0.62460  Biso   1.000  H
  H168     1.0000 0.01270  0.46690  0.37460  Biso   1.000  H
  H169     1.0000 0.47590  0.07400  0.13880  Biso   1.000  H
  H170     1.0000 0.42600  0.97590  0.88880  Biso   1.000  H
  H171     1.0000 0.52410  0.92600  0.63880  Biso   1.000  H
  H172     1.0000 0.57400  0.02410  0.38880  Biso   1.000  H
  H173     1.0000 0.97590  0.42600  0.11120  Biso   1.000  H
  H174     1.0000 0.07400  0.47590  0.86120  Biso   1.000  H
  H175     1.0000 0.02410  0.57400  0.61120  Biso   1.000  H
  H176     1.0000 0.92600  0.52410  0.36120  Biso   1.000  H
  H177     1.0000 0.25010  0.04300  0.14600  Biso   1.000  H
  H178     1.0000 0.45700  0.75010  0.89600  Biso   1.000  H
  H179     1.0000 0.74990  0.95700  0.64600  Biso   1.000  H
  H180     1.0000 0.54300  0.24990  0.39600  Biso   1.000  H
  H181     1.0000 0.75010  0.45700  0.10400  Biso   1.000  H
  H182     1.0000 0.04300  0.25010  0.85400  Biso   1.000  H
  H183     1.0000 0.24990  0.54300  0.60400  Biso   1.000  H
  H184     1.0000 0.95700  0.74990  0.35400  Biso   1.000  H
