data_image0
_cell_length_a       12.657
_cell_length_b       12.657
_cell_length_c       33.766
_cell_angle_alpha    90
_cell_angle_beta     90
_cell_angle_gamma    90

_symmetry_space_group_name_H-M    "P 1"
_symmetry_int_tables_number       1

loop_
  _symmetry_equiv_pos_as_xyz
  'x, y, z'

loop_
  _atom_site_label
  _atom_site_occupancy
  _atom_site_fract_x
  _atom_site_fract_y
  _atom_site_fract_z
  _atom_site_thermal_displace_type
  _atom_site_B_iso_or_equiv
  _atom_site_type_symbol
  Eu1      1.0000 0.34021  0.35897  0.06683  Biso   1.000  Eu
  Eu2      1.0000 0.14103  0.84021  0.81683  Biso   1.000  Eu
  Eu3      1.0000 0.65979  0.64103  0.56683  Biso   1.000  Eu
  Eu4      1.0000 0.85897  0.15979  0.31683  Biso   1.000  Eu
  Eu5      1.0000 0.84021  0.14103  0.18317  Biso   1.000  Eu
  Eu6      1.0000 0.35897  0.34021  0.93317  Biso   1.000  Eu
  Eu7      1.0000 0.15979  0.85897  0.68317  Biso   1.000  Eu
  Eu8      1.0000 0.64103  0.65979  0.43317  Biso   1.000  Eu
  Cu1      1.0000 0.84928  0.84928  0.00000  Biso   1.000  Cu
  Cu2      1.0000 0.65072  0.34928  0.75000  Biso   1.000  Cu
  Cu3      1.0000 0.15072  0.15072  0.50000  Biso   1.000  Cu
  Cu4      1.0000 0.34928  0.65072  0.25000  Biso   1.000  Cu
  S1       1.0000 0.27869  0.15418  0.14182  Biso   1.000  S
  S2       1.0000 0.34582  0.77869  0.89182  Biso   1.000  S
  S3       1.0000 0.72131  0.84582  0.64182  Biso   1.000  S
  S4       1.0000 0.65418  0.22131  0.39182  Biso   1.000  S
  S5       1.0000 0.77869  0.34582  0.10818  Biso   1.000  S
  S6       1.0000 0.15418  0.27869  0.85818  Biso   1.000  S
  S7       1.0000 0.22131  0.65418  0.60818  Biso   1.000  S
  S8       1.0000 0.84582  0.72131  0.35818  Biso   1.000  S
  S9       1.0000 0.13079  0.13460  0.36650  Biso   1.000  S
  S10      1.0000 0.36540  0.63079  0.11650  Biso   1.000  S
  S11      1.0000 0.86921  0.86540  0.86650  Biso   1.000  S
  S12      1.0000 0.63460  0.36921  0.61650  Biso   1.000  S
  S13      1.0000 0.63079  0.36540  0.88350  Biso   1.000  S
  S14      1.0000 0.13460  0.13079  0.63350  Biso   1.000  S
  S15      1.0000 0.36921  0.63460  0.38350  Biso   1.000  S
  S16      1.0000 0.86540  0.86921  0.13350  Biso   1.000  S
  O1       1.0000 0.24150  0.22760  0.03232  Biso   1.000  O
  O2       1.0000 0.27240  0.74150  0.78232  Biso   1.000  O
  O3       1.0000 0.75850  0.77240  0.53232  Biso   1.000  O
  O4       1.0000 0.72760  0.25850  0.28232  Biso   1.000  O
  O5       1.0000 0.74150  0.27240  0.21768  Biso   1.000  O
  O6       1.0000 0.22760  0.24150  0.96768  Biso   1.000  O
  O7       1.0000 0.25850  0.72760  0.71768  Biso   1.000  O
  O8       1.0000 0.77240  0.75850  0.46768  Biso   1.000  O
  O9       1.0000 0.46870  0.46120  0.03319  Biso   1.000  O
  O10      1.0000 0.03880  0.96870  0.78319  Biso   1.000  O
  O11      1.0000 0.53130  0.53880  0.53319  Biso   1.000  O
  O12      1.0000 0.96120  0.03130  0.28319  Biso   1.000  O
  O13      1.0000 0.96870  0.03880  0.21681  Biso   1.000  O
  O14      1.0000 0.46120  0.46870  0.96681  Biso   1.000  O
  O15      1.0000 0.03130  0.96120  0.71681  Biso   1.000  O
  O16      1.0000 0.53880  0.53130  0.46681  Biso   1.000  O
  O17      1.0000 0.23810  0.45840  0.02128  Biso   1.000  O
  O18      1.0000 0.04160  0.73810  0.77128  Biso   1.000  O
  O19      1.0000 0.76190  0.54160  0.52128  Biso   1.000  O
  O20      1.0000 0.95840  0.26190  0.27128  Biso   1.000  O
  O21      1.0000 0.73810  0.04160  0.22872  Biso   1.000  O
  O22      1.0000 0.45840  0.23810  0.97872  Biso   1.000  O
  O23      1.0000 0.26190  0.95840  0.72872  Biso   1.000  O
  O24      1.0000 0.54160  0.76190  0.47872  Biso   1.000  O
  O25      1.0000 0.17210  0.36690  0.09886  Biso   1.000  O
  O26      1.0000 0.13310  0.67210  0.84886  Biso   1.000  O
  O27      1.0000 0.82790  0.63310  0.59886  Biso   1.000  O
  O28      1.0000 0.86690  0.32790  0.34886  Biso   1.000  O
  O29      1.0000 0.67210  0.13310  0.15114  Biso   1.000  O
  O30      1.0000 0.36690  0.17210  0.90114  Biso   1.000  O
  O31      1.0000 0.32790  0.86690  0.65114  Biso   1.000  O
  O32      1.0000 0.63310  0.82790  0.40114  Biso   1.000  O
  H1       1.0000 0.18490  0.34120  0.12160  Biso   1.000  H
  H2       1.0000 0.15880  0.68490  0.87160  Biso   1.000  H
  H3       1.0000 0.81510  0.65880  0.62160  Biso   1.000  H
  H4       1.0000 0.84120  0.31510  0.37160  Biso   1.000  H
  H5       1.0000 0.68490  0.15880  0.12840  Biso   1.000  H
  H6       1.0000 0.34120  0.18490  0.87840  Biso   1.000  H
  H7       1.0000 0.31510  0.84120  0.62840  Biso   1.000  H
  H8       1.0000 0.65880  0.81510  0.37840  Biso   1.000  H
  H9       1.0000 0.15800  0.43170  0.10300  Biso   1.000  H
  H10      1.0000 0.06830  0.65800  0.85300  Biso   1.000  H
  H11      1.0000 0.84200  0.56830  0.60300  Biso   1.000  H
  H12      1.0000 0.93170  0.34200  0.35300  Biso   1.000  H
  H13      1.0000 0.65800  0.06830  0.14700  Biso   1.000  H
  H14      1.0000 0.43170  0.15800  0.89700  Biso   1.000  H
  H15      1.0000 0.34200  0.93170  0.64700  Biso   1.000  H
  H16      1.0000 0.56830  0.84200  0.39700  Biso   1.000  H
  O33      1.0000 0.34510  0.22390  0.11794  Biso   1.000  O
  O34      1.0000 0.27610  0.84510  0.86794  Biso   1.000  O
  O35      1.0000 0.65490  0.77610  0.61794  Biso   1.000  O
  O36      1.0000 0.72390  0.15490  0.36794  Biso   1.000  O
  O37      1.0000 0.84510  0.27610  0.13206  Biso   1.000  O
  O38      1.0000 0.22390  0.34510  0.88206  Biso   1.000  O
  O39      1.0000 0.15490  0.72390  0.63206  Biso   1.000  O
  O40      1.0000 0.77610  0.65490  0.38206  Biso   1.000  O
  O41      1.0000 0.03850  0.18560  0.35061  Biso   1.000  O
  O42      1.0000 0.31440  0.53850  0.10061  Biso   1.000  O
  O43      1.0000 0.96150  0.81440  0.85061  Biso   1.000  O
  O44      1.0000 0.68560  0.46150  0.60061  Biso   1.000  O
  O45      1.0000 0.53850  0.31440  0.89939  Biso   1.000  O
  O46      1.0000 0.18560  0.03850  0.64939  Biso   1.000  O
  O47      1.0000 0.46150  0.68560  0.39939  Biso   1.000  O
  O48      1.0000 0.81440  0.96150  0.14939  Biso   1.000  O
  O49      1.0000 0.23280  0.47110  0.95560  Biso   1.000  O
  O50      1.0000 0.02890  0.73280  0.70560  Biso   1.000  O
  O51      1.0000 0.76720  0.52890  0.45560  Biso   1.000  O
  O52      1.0000 0.97110  0.26720  0.20560  Biso   1.000  O
  O53      1.0000 0.73280  0.02890  0.29440  Biso   1.000  O
  O54      1.0000 0.47110  0.23280  0.04440  Biso   1.000  O
  O55      1.0000 0.26720  0.97110  0.79440  Biso   1.000  O
  O56      1.0000 0.52890  0.76720  0.54440  Biso   1.000  O
  O57      1.0000 0.17280  0.18800  0.14025  Biso   1.000  O
  O58      1.0000 0.31200  0.67280  0.89025  Biso   1.000  O
  O59      1.0000 0.82720  0.81200  0.64025  Biso   1.000  O
  O60      1.0000 0.68800  0.32720  0.39025  Biso   1.000  O
  O61      1.0000 0.67280  0.31200  0.10975  Biso   1.000  O
  O62      1.0000 0.18800  0.17280  0.85975  Biso   1.000  O
  O63      1.0000 0.32720  0.68800  0.60975  Biso   1.000  O
  O64      1.0000 0.81200  0.82720  0.35975  Biso   1.000  O
  O65      1.0000 0.11770  0.01870  0.37057  Biso   1.000  O
  O66      1.0000 0.48130  0.61770  0.12057  Biso   1.000  O
  O67      1.0000 0.88230  0.98130  0.87057  Biso   1.000  O
  O68      1.0000 0.51870  0.38230  0.62057  Biso   1.000  O
  O69      1.0000 0.61770  0.48130  0.87943  Biso   1.000  O
  O70      1.0000 0.01870  0.11770  0.62943  Biso   1.000  O
  O71      1.0000 0.38230  0.51870  0.37943  Biso   1.000  O
  O72      1.0000 0.98130  0.88230  0.12943  Biso   1.000  O
  O73      1.0000 0.17290  0.18140  0.40251  Biso   1.000  O
  O74      1.0000 0.31860  0.67290  0.15251  Biso   1.000  O
  O75      1.0000 0.82710  0.81860  0.90251  Biso   1.000  O
  O76      1.0000 0.68140  0.32710  0.65251  Biso   1.000  O
  O77      1.0000 0.67290  0.31860  0.84749  Biso   1.000  O
  O78      1.0000 0.18140  0.17290  0.59749  Biso   1.000  O
  O79      1.0000 0.32710  0.68140  0.34749  Biso   1.000  O
  O80      1.0000 0.81860  0.82710  0.09749  Biso   1.000  O
  O81      1.0000 0.48080  0.39600  0.11457  Biso   1.000  O
  O82      1.0000 0.10400  0.98080  0.86457  Biso   1.000  O
  O83      1.0000 0.51920  0.60400  0.61457  Biso   1.000  O
  O84      1.0000 0.89600  0.01920  0.36457  Biso   1.000  O
  O85      1.0000 0.98080  0.10400  0.13543  Biso   1.000  O
  O86      1.0000 0.39600  0.48080  0.88543  Biso   1.000  O
  O87      1.0000 0.01920  0.89600  0.63543  Biso   1.000  O
  O88      1.0000 0.60400  0.51920  0.38543  Biso   1.000  O
  H17      1.0000 0.48570  0.46240  0.11790  Biso   1.000  H
  H18      1.0000 0.03760  0.98570  0.86790  Biso   1.000  H
  H19      1.0000 0.51430  0.53760  0.61790  Biso   1.000  H
  H20      1.0000 0.96240  0.01430  0.36790  Biso   1.000  H
  H21      1.0000 0.98570  0.03760  0.13210  Biso   1.000  H
  H22      1.0000 0.46240  0.48570  0.88210  Biso   1.000  H
  H23      1.0000 0.01430  0.96240  0.63210  Biso   1.000  H
  H24      1.0000 0.53760  0.51430  0.38210  Biso   1.000  H
  H25      1.0000 0.45880  0.38840  0.09100  Biso   1.000  H
  H26      1.0000 0.11160  0.95880  0.84100  Biso   1.000  H
  H27      1.0000 0.54120  0.61160  0.59100  Biso   1.000  H
  H28      1.0000 0.88840  0.04120  0.34100  Biso   1.000  H
  H29      1.0000 0.95880  0.11160  0.15900  Biso   1.000  H
  H30      1.0000 0.38840  0.45880  0.90900  Biso   1.000  H
  H31      1.0000 0.04120  0.88840  0.65900  Biso   1.000  H
  H32      1.0000 0.61160  0.54120  0.40900  Biso   1.000  H
  O89      1.0000 0.29480  0.04390  0.13259  Biso   1.000  O
  O90      1.0000 0.45610  0.79480  0.88259  Biso   1.000  O
  O91      1.0000 0.70520  0.95610  0.63259  Biso   1.000  O
  O92      1.0000 0.54390  0.20520  0.38259  Biso   1.000  O
  O93      1.0000 0.79480  0.45610  0.11741  Biso   1.000  O
  O94      1.0000 0.04390  0.29480  0.86741  Biso   1.000  O
  O95      1.0000 0.20520  0.54390  0.61741  Biso   1.000  O
  O96      1.0000 0.95610  0.70520  0.36741  Biso   1.000  O
  N1       1.0000 0.95980  0.95980  0.00000  Biso   1.000  N
  N2       1.0000 0.54020  0.45980  0.75000  Biso   1.000  N
  N3       1.0000 0.04020  0.04020  0.50000  Biso   1.000  N
  N4       1.0000 0.45980  0.54020  0.25000  Biso   1.000  N
  N5       1.0000 0.73590  0.73590  0.00000  Biso   1.000  N
  N6       1.0000 0.76410  0.23590  0.75000  Biso   1.000  N
  N7       1.0000 0.26410  0.26410  0.50000  Biso   1.000  N
  N8       1.0000 0.23590  0.76410  0.25000  Biso   1.000  N
  N9       1.0000 0.96350  0.73580  0.99815  Biso   1.000  N
  N10      1.0000 0.76420  0.46350  0.74815  Biso   1.000  N
  N11      1.0000 0.03650  0.26420  0.49815  Biso   1.000  N
  N12      1.0000 0.23580  0.53650  0.24815  Biso   1.000  N
  N13      1.0000 0.46350  0.76420  0.25185  Biso   1.000  N
  N14      1.0000 0.73580  0.96350  0.00185  Biso   1.000  N
  N15      1.0000 0.53650  0.23580  0.75185  Biso   1.000  N
  N16      1.0000 0.26420  0.03650  0.50185  Biso   1.000  N
  C1       1.0000 0.20270  0.20270  0.00000  Biso   1.000  C
  C2       1.0000 0.29730  0.70270  0.75000  Biso   1.000  C
  C3       1.0000 0.79730  0.79730  0.50000  Biso   1.000  C
  C4       1.0000 0.70270  0.29730  0.25000  Biso   1.000  C
  C5       1.0000 0.11620  0.11620  0.00000  Biso   1.000  C
  C6       1.0000 0.38380  0.61620  0.75000  Biso   1.000  C
  C7       1.0000 0.88380  0.88380  0.50000  Biso   1.000  C
  C8       1.0000 0.61620  0.38380  0.25000  Biso   1.000  C
  C9       1.0000 0.06950  0.08590  0.96570  Biso   1.000  C
  C10      1.0000 0.41410  0.56950  0.71570  Biso   1.000  C
  C11      1.0000 0.93050  0.91410  0.46570  Biso   1.000  C
  C12      1.0000 0.58590  0.43050  0.21570  Biso   1.000  C
  C13      1.0000 0.56950  0.41410  0.28430  Biso   1.000  C
  C14      1.0000 0.08590  0.06950  0.03430  Biso   1.000  C
  C15      1.0000 0.43050  0.58590  0.78430  Biso   1.000  C
  C16      1.0000 0.91410  0.93050  0.53430  Biso   1.000  C
  H33      1.0000 0.09020  0.11510  0.94160  Biso   1.000  H
  H34      1.0000 0.38490  0.59020  0.69160  Biso   1.000  H
  H35      1.0000 0.90980  0.88490  0.44160  Biso   1.000  H
  H36      1.0000 0.61510  0.40980  0.19160  Biso   1.000  H
  H37      1.0000 0.59020  0.38490  0.30840  Biso   1.000  H
  H38      1.0000 0.11510  0.09020  0.05840  Biso   1.000  H
  H39      1.0000 0.40980  0.61510  0.80840  Biso   1.000  H
  H40      1.0000 0.88490  0.90980  0.55840  Biso   1.000  H
  C17      1.0000 0.11950  0.58230  0.99308  Biso   1.000  C
  C18      1.0000 0.91770  0.61950  0.74308  Biso   1.000  C
  C19      1.0000 0.88050  0.41770  0.49308  Biso   1.000  C
  C20      1.0000 0.08230  0.38050  0.24308  Biso   1.000  C
  C21      1.0000 0.61950  0.91770  0.25692  Biso   1.000  C
  C22      1.0000 0.58230  0.11950  0.00692  Biso   1.000  C
  C23      1.0000 0.38050  0.08230  0.75692  Biso   1.000  C
  C24      1.0000 0.41770  0.88050  0.50692  Biso   1.000  C
  C25      1.0000 0.07230  0.61720  0.96006  Biso   1.000  C
  C26      1.0000 0.88280  0.57230  0.71006  Biso   1.000  C
  C27      1.0000 0.92770  0.38280  0.46006  Biso   1.000  C
  C28      1.0000 0.11720  0.42770  0.21006  Biso   1.000  C
  C29      1.0000 0.57230  0.88280  0.28994  Biso   1.000  C
  C30      1.0000 0.61720  0.07230  0.03994  Biso   1.000  C
  C31      1.0000 0.42770  0.11720  0.78994  Biso   1.000  C
  C32      1.0000 0.38280  0.92770  0.53994  Biso   1.000  C
  H41      1.0000 0.08910  0.58880  0.93550  Biso   1.000  H
  H42      1.0000 0.91120  0.58910  0.68550  Biso   1.000  H
  H43      1.0000 0.91090  0.41120  0.43550  Biso   1.000  H
  H44      1.0000 0.08880  0.41090  0.18550  Biso   1.000  H
  H45      1.0000 0.58910  0.91120  0.31450  Biso   1.000  H
  H46      1.0000 0.58880  0.08910  0.06450  Biso   1.000  H
  H47      1.0000 0.41090  0.08880  0.81450  Biso   1.000  H
  H48      1.0000 0.41120  0.91090  0.56450  Biso   1.000  H
  C33      1.0000 0.99610  0.69880  0.96370  Biso   1.000  C
  C34      1.0000 0.80120  0.49610  0.71370  Biso   1.000  C
  C35      1.0000 0.00390  0.30120  0.46370  Biso   1.000  C
  C36      1.0000 0.19880  0.50390  0.21370  Biso   1.000  C
  C37      1.0000 0.49610  0.80120  0.28630  Biso   1.000  C
  C38      1.0000 0.69880  0.99610  0.03630  Biso   1.000  C
  C39      1.0000 0.50390  0.19880  0.78630  Biso   1.000  C
  C40      1.0000 0.30120  0.00390  0.53630  Biso   1.000  C
  H49      1.0000 0.96780  0.72760  0.94070  Biso   1.000  H
  H50      1.0000 0.77240  0.46780  0.69070  Biso   1.000  H
  H51      1.0000 0.03220  0.27240  0.44070  Biso   1.000  H
  H52      1.0000 0.22760  0.53220  0.19070  Biso   1.000  H
  H53      1.0000 0.46780  0.77240  0.30930  Biso   1.000  H
  H54      1.0000 0.72760  0.96780  0.05930  Biso   1.000  H
  H55      1.0000 0.53220  0.22760  0.80930  Biso   1.000  H
  H56      1.0000 0.27240  0.03220  0.55930  Biso   1.000  H
  C41      1.0000 0.49730  0.49730  0.00000  Biso   1.000  C
  C42      1.0000 0.00270  0.99730  0.75000  Biso   1.000  C
  C43      1.0000 0.50270  0.50270  0.50000  Biso   1.000  C
  C44      1.0000 0.99730  0.00270  0.25000  Biso   1.000  C
  C45      1.0000 0.57820  0.57820  0.00000  Biso   1.000  C
  C46      1.0000 0.92180  0.07820  0.75000  Biso   1.000  C
  C47      1.0000 0.42180  0.42180  0.50000  Biso   1.000  C
  C48      1.0000 0.07820  0.92180  0.25000  Biso   1.000  C
  C49      1.0000 0.23210  0.15310  0.32794  Biso   1.000  C
  C50      1.0000 0.34690  0.73210  0.07794  Biso   1.000  C
  C51      1.0000 0.76790  0.84690  0.82794  Biso   1.000  C
  C52      1.0000 0.65310  0.26790  0.57794  Biso   1.000  C
  C53      1.0000 0.73210  0.34690  0.92206  Biso   1.000  C
  C54      1.0000 0.15310  0.23210  0.67206  Biso   1.000  C
  C55      1.0000 0.26790  0.65310  0.42206  Biso   1.000  C
  C56      1.0000 0.84690  0.76790  0.17206  Biso   1.000  C
  C57      1.0000 0.33960  0.15780  0.33963  Biso   1.000  C
  C58      1.0000 0.34220  0.83960  0.08963  Biso   1.000  C
  C59      1.0000 0.66040  0.84220  0.83963  Biso   1.000  C
  C60      1.0000 0.65780  0.16040  0.58963  Biso   1.000  C
  C61      1.0000 0.83960  0.34220  0.91037  Biso   1.000  C
  C62      1.0000 0.15780  0.33960  0.66037  Biso   1.000  C
  C63      1.0000 0.16040  0.65780  0.41037  Biso   1.000  C
  C64      1.0000 0.84220  0.66040  0.16037  Biso   1.000  C
  H57      1.0000 0.36060  0.15920  0.36600  Biso   1.000  H
  H58      1.0000 0.34080  0.86060  0.11600  Biso   1.000  H
  H59      1.0000 0.63940  0.84080  0.86600  Biso   1.000  H
  H60      1.0000 0.65920  0.13940  0.61600  Biso   1.000  H
  H61      1.0000 0.86060  0.34080  0.88400  Biso   1.000  H
  H62      1.0000 0.15920  0.36060  0.63400  Biso   1.000  H
  H63      1.0000 0.13940  0.65920  0.38400  Biso   1.000  H
  H64      1.0000 0.84080  0.63940  0.13400  Biso   1.000  H
  C65      1.0000 0.38290  0.16100  0.26984  Biso   1.000  C
  C66      1.0000 0.33900  0.88290  0.01984  Biso   1.000  C
  C67      1.0000 0.61710  0.83900  0.76984  Biso   1.000  C
  C68      1.0000 0.66100  0.11710  0.51984  Biso   1.000  C
  C69      1.0000 0.88290  0.33900  0.98016  Biso   1.000  C
  C70      1.0000 0.16100  0.38290  0.73016  Biso   1.000  C
  C71      1.0000 0.11710  0.66100  0.48016  Biso   1.000  C
  C72      1.0000 0.83900  0.61710  0.23016  Biso   1.000  C
  C73      1.0000 0.27180  0.16200  0.26017  Biso   1.000  C
  C74      1.0000 0.33800  0.77180  0.01017  Biso   1.000  C
  C75      1.0000 0.72820  0.83800  0.76017  Biso   1.000  C
  C76      1.0000 0.66200  0.22820  0.51017  Biso   1.000  C
  C77      1.0000 0.77180  0.33800  0.98983  Biso   1.000  C
  C78      1.0000 0.16200  0.27180  0.73983  Biso   1.000  C
  C79      1.0000 0.22820  0.66200  0.48983  Biso   1.000  C
  C80      1.0000 0.83800  0.72820  0.23983  Biso   1.000  C
  C81      1.0000 0.19960  0.15500  0.29092  Biso   1.000  C
  C82      1.0000 0.34500  0.69960  0.04092  Biso   1.000  C
  C83      1.0000 0.80040  0.84500  0.79092  Biso   1.000  C
  C84      1.0000 0.65500  0.30040  0.54092  Biso   1.000  C
  C85      1.0000 0.69960  0.34500  0.95908  Biso   1.000  C
  C86      1.0000 0.15500  0.19960  0.70908  Biso   1.000  C
  C87      1.0000 0.30040  0.65500  0.45908  Biso   1.000  C
  C88      1.0000 0.84500  0.80040  0.20908  Biso   1.000  C
  H65      1.0000 0.12770  0.15160  0.28540  Biso   1.000  H
  H66      1.0000 0.34840  0.62770  0.03540  Biso   1.000  H
  H67      1.0000 0.87230  0.84840  0.78540  Biso   1.000  H
  H68      1.0000 0.65160  0.37230  0.53540  Biso   1.000  H
  H69      1.0000 0.62770  0.34840  0.96460  Biso   1.000  H
  H70      1.0000 0.15160  0.12770  0.71460  Biso   1.000  H
  H71      1.0000 0.37230  0.65160  0.46460  Biso   1.000  H
  H72      1.0000 0.84840  0.87230  0.21460  Biso   1.000  H
  C89      1.0000 0.24290  0.16120  0.22019  Biso   1.000  C
  C90      1.0000 0.33880  0.74290  0.97019  Biso   1.000  C
  C91      1.0000 0.75710  0.83880  0.72019  Biso   1.000  C
  C92      1.0000 0.66120  0.25710  0.47019  Biso   1.000  C
  C93      1.0000 0.74290  0.33880  0.02981  Biso   1.000  C
  C94      1.0000 0.16120  0.24290  0.77981  Biso   1.000  C
  C95      1.0000 0.25710  0.66120  0.52981  Biso   1.000  C
  C96      1.0000 0.83880  0.75710  0.27981  Biso   1.000  C
  H73      1.0000 0.17180  0.15710  0.21330  Biso   1.000  H
  H74      1.0000 0.34290  0.67180  0.96330  Biso   1.000  H
  H75      1.0000 0.82820  0.84290  0.71330  Biso   1.000  H
  H76      1.0000 0.65710  0.32820  0.46330  Biso   1.000  H
  H77      1.0000 0.67180  0.34290  0.03670  Biso   1.000  H
  H78      1.0000 0.15710  0.17180  0.78670  Biso   1.000  H
  H79      1.0000 0.32820  0.65710  0.53670  Biso   1.000  H
  H80      1.0000 0.84290  0.82820  0.28670  Biso   1.000  H
  C97      1.0000 0.08690  0.61920  0.02952  Biso   1.000  C
  C98      1.0000 0.88080  0.58690  0.77952  Biso   1.000  C
  C99      1.0000 0.91310  0.38080  0.52952  Biso   1.000  C
  C100     1.0000 0.11920  0.41310  0.27952  Biso   1.000  C
  C101     1.0000 0.58690  0.88080  0.22048  Biso   1.000  C
  C102     1.0000 0.61920  0.08690  0.97048  Biso   1.000  C
  C103     1.0000 0.41310  0.11920  0.72048  Biso   1.000  C
  C104     1.0000 0.38080  0.91310  0.47048  Biso   1.000  C
  H81      1.0000 0.11570  0.59330  0.05290  Biso   1.000  H
  H82      1.0000 0.90670  0.61570  0.80290  Biso   1.000  H
  H83      1.0000 0.88430  0.40670  0.55290  Biso   1.000  H
  H84      1.0000 0.09330  0.38430  0.30290  Biso   1.000  H
  H85      1.0000 0.61570  0.90670  0.19710  Biso   1.000  H
  H86      1.0000 0.59330  0.11570  0.94710  Biso   1.000  H
  H87      1.0000 0.38430  0.09330  0.69710  Biso   1.000  H
  H88      1.0000 0.40670  0.88430  0.44710  Biso   1.000  H
  C105     1.0000 0.00810  0.69790  0.02990  Biso   1.000  C
  C106     1.0000 0.80210  0.50810  0.77990  Biso   1.000  C
  C107     1.0000 0.99190  0.30210  0.52990  Biso   1.000  C
  C108     1.0000 0.19790  0.49190  0.27990  Biso   1.000  C
  C109     1.0000 0.50810  0.80210  0.22010  Biso   1.000  C
  C110     1.0000 0.69790  0.00810  0.97010  Biso   1.000  C
  C111     1.0000 0.49190  0.19790  0.72010  Biso   1.000  C
  C112     1.0000 0.30210  0.99190  0.47010  Biso   1.000  C
  H89      1.0000 0.98660  0.72440  0.05430  Biso   1.000  H
  H90      1.0000 0.77560  0.48660  0.80430  Biso   1.000  H
  H91      1.0000 0.01340  0.27560  0.55430  Biso   1.000  H
  H92      1.0000 0.22440  0.51340  0.30430  Biso   1.000  H
  H93      1.0000 0.48660  0.77560  0.19570  Biso   1.000  H
  H94      1.0000 0.72440  0.98660  0.94570  Biso   1.000  H
  H95      1.0000 0.51340  0.22440  0.69570  Biso   1.000  H
  H96      1.0000 0.27560  0.01340  0.44570  Biso   1.000  H
  C113     1.0000 0.59870  0.64410  0.96753  Biso   1.000  C
  C114     1.0000 0.85590  0.09870  0.71753  Biso   1.000  C
  C115     1.0000 0.40130  0.35590  0.46753  Biso   1.000  C
  C116     1.0000 0.14410  0.90130  0.21753  Biso   1.000  C
  C117     1.0000 0.09870  0.85590  0.28247  Biso   1.000  C
  C118     1.0000 0.64410  0.59870  0.03247  Biso   1.000  C
  C119     1.0000 0.90130  0.14410  0.78247  Biso   1.000  C
  C120     1.0000 0.35590  0.40130  0.53247  Biso   1.000  C
  H97      1.0000 0.55830  0.63740  0.94470  Biso   1.000  H
  H98      1.0000 0.86260  0.05830  0.69470  Biso   1.000  H
  H99      1.0000 0.44170  0.36260  0.44470  Biso   1.000  H
  H100     1.0000 0.13740  0.94170  0.19470  Biso   1.000  H
  H101     1.0000 0.05830  0.86260  0.30530  Biso   1.000  H
  H102     1.0000 0.63740  0.55830  0.05530  Biso   1.000  H
  H103     1.0000 0.94170  0.13740  0.80530  Biso   1.000  H
  H104     1.0000 0.36260  0.44170  0.55530  Biso   1.000  H
  C121     1.0000 0.42640  0.17060  0.20136  Biso   1.000  C
  C122     1.0000 0.32940  0.92640  0.95136  Biso   1.000  C
  C123     1.0000 0.57360  0.82940  0.70136  Biso   1.000  C
  C124     1.0000 0.67060  0.07360  0.45136  Biso   1.000  C
  C125     1.0000 0.92640  0.32940  0.04864  Biso   1.000  C
  C126     1.0000 0.17060  0.42640  0.79864  Biso   1.000  C
  C127     1.0000 0.07360  0.67060  0.54864  Biso   1.000  C
  C128     1.0000 0.82940  0.57360  0.29864  Biso   1.000  C
  H105     1.0000 0.47630  0.17360  0.18120  Biso   1.000  H
  H106     1.0000 0.32640  0.97630  0.93120  Biso   1.000  H
  H107     1.0000 0.52370  0.82640  0.68120  Biso   1.000  H
  H108     1.0000 0.67360  0.02370  0.43120  Biso   1.000  H
  H109     1.0000 0.97630  0.32640  0.06880  Biso   1.000  H
  H110     1.0000 0.17360  0.47630  0.81880  Biso   1.000  H
  H111     1.0000 0.02370  0.67360  0.56880  Biso   1.000  H
  H112     1.0000 0.82640  0.52370  0.31880  Biso   1.000  H
  C129     1.0000 0.31790  0.16640  0.19117  Biso   1.000  C
  C130     1.0000 0.33360  0.81790  0.94117  Biso   1.000  C
  C131     1.0000 0.68210  0.83360  0.69117  Biso   1.000  C
  C132     1.0000 0.66640  0.18210  0.44117  Biso   1.000  C
  C133     1.0000 0.81790  0.33360  0.05883  Biso   1.000  C
  C134     1.0000 0.16640  0.31790  0.80883  Biso   1.000  C
  C135     1.0000 0.18210  0.66640  0.55883  Biso   1.000  C
  C136     1.0000 0.83360  0.68210  0.30883  Biso   1.000  C
  C137     1.0000 0.45910  0.17040  0.23876  Biso   1.000  C
  C138     1.0000 0.32960  0.95910  0.98876  Biso   1.000  C
  C139     1.0000 0.54090  0.82960  0.73876  Biso   1.000  C
  C140     1.0000 0.67040  0.04090  0.48876  Biso   1.000  C
  C141     1.0000 0.95910  0.32960  0.01124  Biso   1.000  C
  C142     1.0000 0.17040  0.45910  0.76124  Biso   1.000  C
  C143     1.0000 0.04090  0.67040  0.51124  Biso   1.000  C
  C144     1.0000 0.82960  0.54090  0.26124  Biso   1.000  C
  H113     1.0000 0.53060  0.17630  0.24460  Biso   1.000  H
  H114     1.0000 0.32370  0.03060  0.99460  Biso   1.000  H
  H115     1.0000 0.46940  0.82370  0.74460  Biso   1.000  H
  H116     1.0000 0.67630  0.96940  0.49460  Biso   1.000  H
  H117     1.0000 0.03060  0.32370  0.00540  Biso   1.000  H
  H118     1.0000 0.17630  0.53060  0.75540  Biso   1.000  H
  H119     1.0000 0.96940  0.67630  0.50540  Biso   1.000  H
  H120     1.0000 0.82370  0.46940  0.25540  Biso   1.000  H
  C145     1.0000 0.99000  0.01010  0.96730  Biso   1.000  C
  C146     1.0000 0.48990  0.49000  0.71730  Biso   1.000  C
  C147     1.0000 0.01000  0.98990  0.46730  Biso   1.000  C
  C148     1.0000 0.51010  0.51000  0.21730  Biso   1.000  C
  C149     1.0000 0.49000  0.48990  0.28270  Biso   1.000  C
  C150     1.0000 0.01010  0.99000  0.03270  Biso   1.000  C
  C151     1.0000 0.51000  0.51010  0.78270  Biso   1.000  C
  C152     1.0000 0.98990  0.01000  0.53270  Biso   1.000  C
  H121     1.0000 0.95540  0.99350  0.94390  Biso   1.000  H
  H122     1.0000 0.50650  0.45540  0.69390  Biso   1.000  H
  H123     1.0000 0.04460  0.00650  0.44390  Biso   1.000  H
  H124     1.0000 0.49350  0.54460  0.19390  Biso   1.000  H
  H125     1.0000 0.45540  0.50650  0.30610  Biso   1.000  H
  H126     1.0000 0.99350  0.95540  0.05610  Biso   1.000  H
  H127     1.0000 0.54460  0.49350  0.80610  Biso   1.000  H
  H128     1.0000 0.00650  0.04460  0.55610  Biso   1.000  H
  C153     1.0000 0.40890  0.16000  0.30918  Biso   1.000  C
  C154     1.0000 0.34000  0.90890  0.05918  Biso   1.000  C
  C155     1.0000 0.59110  0.84000  0.80918  Biso   1.000  C
  C156     1.0000 0.66000  0.09110  0.55918  Biso   1.000  C
  C157     1.0000 0.90890  0.34000  0.94082  Biso   1.000  C
  C158     1.0000 0.16000  0.40890  0.69082  Biso   1.000  C
  C159     1.0000 0.09110  0.66000  0.44082  Biso   1.000  C
  C160     1.0000 0.84000  0.59110  0.19082  Biso   1.000  C
  H129     1.0000 0.48040  0.16100  0.31550  Biso   1.000  H
  H130     1.0000 0.33900  0.98040  0.06550  Biso   1.000  H
  H131     1.0000 0.51960  0.83900  0.81550  Biso   1.000  H
  H132     1.0000 0.66100  0.01960  0.56550  Biso   1.000  H
  H133     1.0000 0.98040  0.33900  0.93450  Biso   1.000  H
  H134     1.0000 0.16100  0.48040  0.68450  Biso   1.000  H
  H135     1.0000 0.01960  0.66100  0.43450  Biso   1.000  H
  H136     1.0000 0.83900  0.51960  0.18450  Biso   1.000  H
  C161     1.0000 0.20420  0.49420  0.98901  Biso   1.000  C
  C162     1.0000 0.00580  0.70420  0.73901  Biso   1.000  C
  C163     1.0000 0.79580  0.50580  0.48901  Biso   1.000  C
  C164     1.0000 0.99420  0.29580  0.23901  Biso   1.000  C
  C165     1.0000 0.70420  0.00580  0.26099  Biso   1.000  C
  C166     1.0000 0.49420  0.20420  0.01099  Biso   1.000  C
  C167     1.0000 0.29580  0.99420  0.76099  Biso   1.000  C
  C168     1.0000 0.50580  0.79580  0.51099  Biso   1.000  C
  C169     1.0000 0.67850  0.71930  0.96905  Biso   1.000  C
  C170     1.0000 0.78070  0.17850  0.71905  Biso   1.000  C
  C171     1.0000 0.32150  0.28070  0.46905  Biso   1.000  C
  C172     1.0000 0.21930  0.82150  0.21905  Biso   1.000  C
  C173     1.0000 0.17850  0.78070  0.28095  Biso   1.000  C
  C174     1.0000 0.71930  0.67850  0.03095  Biso   1.000  C
  C175     1.0000 0.82150  0.21930  0.78095  Biso   1.000  C
  C176     1.0000 0.28070  0.32150  0.53095  Biso   1.000  C
  H137     1.0000 0.69120  0.75980  0.94660  Biso   1.000  H
  H138     1.0000 0.74020  0.19120  0.69660  Biso   1.000  H
  H139     1.0000 0.30880  0.24020  0.44660  Biso   1.000  H
  H140     1.0000 0.25980  0.80880  0.19660  Biso   1.000  H
  H141     1.0000 0.19120  0.74020  0.30340  Biso   1.000  H
  H142     1.0000 0.75980  0.69120  0.05340  Biso   1.000  H
  H143     1.0000 0.80880  0.25980  0.80340  Biso   1.000  H
  H144     1.0000 0.24020  0.30880  0.55340  Biso   1.000  H
  O97      1.0000 0.02850  0.50490  0.11791  Biso   1.000  O
  O98      1.0000 0.99510  0.52850  0.86791  Biso   1.000  O
  O99      1.0000 0.97150  0.49510  0.61791  Biso   1.000  O
  O100     1.0000 0.00490  0.47150  0.36791  Biso   1.000  O
  O101     1.0000 0.52850  0.99510  0.13209  Biso   1.000  O
  O102     1.0000 0.50490  0.02850  0.88209  Biso   1.000  O
  O103     1.0000 0.47150  0.00490  0.63209  Biso   1.000  O
  O104     1.0000 0.49510  0.97150  0.38209  Biso   1.000  O
  H145     1.0000 0.96710  0.52540  0.12520  Biso   1.000  H
  H146     1.0000 0.97460  0.46710  0.87520  Biso   1.000  H
  H147     1.0000 0.03290  0.47460  0.62520  Biso   1.000  H
  H148     1.0000 0.02540  0.53290  0.37520  Biso   1.000  H
  H149     1.0000 0.46710  0.97460  0.12480  Biso   1.000  H
  H150     1.0000 0.52540  0.96710  0.87480  Biso   1.000  H
  H151     1.0000 0.53290  0.02540  0.62480  Biso   1.000  H
  H152     1.0000 0.47460  0.03290  0.37480  Biso   1.000  H
  H153     1.0000 0.06920  0.55570  0.12450  Biso   1.000  H
  H154     1.0000 0.94430  0.56920  0.87450  Biso   1.000  H
  H155     1.0000 0.93080  0.44430  0.62450  Biso   1.000  H
  H156     1.0000 0.05570  0.43080  0.37450  Biso   1.000  H
  H157     1.0000 0.56920  0.94430  0.12550  Biso   1.000  H
  H158     1.0000 0.55570  0.06920  0.87550  Biso   1.000  H
  H159     1.0000 0.43080  0.05570  0.62550  Biso   1.000  H
  H160     1.0000 0.44430  0.93080  0.37550  Biso   1.000  H
  O105     1.0000 0.09850  0.70730  0.13359  Biso   1.000  O
  O106     1.0000 0.79270  0.59850  0.88359  Biso   1.000  O
  O107     1.0000 0.90150  0.29270  0.63359  Biso   1.000  O
  O108     1.0000 0.20730  0.40150  0.38359  Biso   1.000  O
  O109     1.0000 0.59850  0.79270  0.11641  Biso   1.000  O
  O110     1.0000 0.70730  0.09850  0.86641  Biso   1.000  O
  O111     1.0000 0.40150  0.20730  0.61641  Biso   1.000  O
  O112     1.0000 0.29270  0.90150  0.36641  Biso   1.000  O
  H161     1.0000 0.15350  0.67270  0.12720  Biso   1.000  H
  H162     1.0000 0.82730  0.65350  0.87720  Biso   1.000  H
  H163     1.0000 0.84650  0.32730  0.62720  Biso   1.000  H
  H164     1.0000 0.17270  0.34650  0.37720  Biso   1.000  H
  H165     1.0000 0.65350  0.82730  0.12280  Biso   1.000  H
  H166     1.0000 0.67270  0.15350  0.87280  Biso   1.000  H
  H167     1.0000 0.34650  0.17270  0.62280  Biso   1.000  H
  H168     1.0000 0.32730  0.84650  0.37280  Biso   1.000  H
  H169     1.0000 0.11730  0.77200  0.13260  Biso   1.000  H
  H170     1.0000 0.72800  0.61730  0.88260  Biso   1.000  H
  H171     1.0000 0.88270  0.22800  0.63260  Biso   1.000  H
  H172     1.0000 0.27200  0.38270  0.38260  Biso   1.000  H
  H173     1.0000 0.61730  0.72800  0.11740  Biso   1.000  H
  H174     1.0000 0.77200  0.11730  0.86740  Biso   1.000  H
  H175     1.0000 0.38270  0.27200  0.61740  Biso   1.000  H
  H176     1.0000 0.22800  0.88270  0.36740  Biso   1.000  H
