data_image0
_cell_length_a       12.666
_cell_length_b       12.666
_cell_length_c       33.841
_cell_angle_alpha    90
_cell_angle_beta     90
_cell_angle_gamma    90

_symmetry_space_group_name_H-M    "P 1"
_symmetry_int_tables_number       1

loop_
  _symmetry_equiv_pos_as_xyz
  'x, y, z'

loop_
  _atom_site_label
  _atom_site_occupancy
  _atom_site_fract_x
  _atom_site_fract_y
  _atom_site_fract_z
  _atom_site_thermal_displace_type
  _atom_site_B_iso_or_equiv
  _atom_site_type_symbol
  Sm1      1.0000 0.15964  0.14142  0.06704  Biso   1.000  Sm
  Sm2      1.0000 0.84036  0.85858  0.56704  Biso   1.000  Sm
  Sm3      1.0000 0.35858  0.65964  0.81704  Biso   1.000  Sm
  Sm4      1.0000 0.64142  0.34036  0.31704  Biso   1.000  Sm
  Sm5      1.0000 0.34036  0.64142  0.68296  Biso   1.000  Sm
  Sm6      1.0000 0.65964  0.35858  0.18296  Biso   1.000  Sm
  Sm7      1.0000 0.14142  0.15964  0.93296  Biso   1.000  Sm
  Sm8      1.0000 0.85858  0.84036  0.43296  Biso   1.000  Sm
  Cu1      1.0000 0.65066  0.65066  0.00000  Biso   1.000  Cu
  Cu2      1.0000 0.34934  0.34934  0.50000  Biso   1.000  Cu
  Cu3      1.0000 0.84934  0.15066  0.75000  Biso   1.000  Cu
  Cu4      1.0000 0.15066  0.84934  0.25000  Biso   1.000  Cu
  S1       1.0000 0.13488  0.86832  0.11687  Biso   1.000  S
  S2       1.0000 0.86512  0.13168  0.61687  Biso   1.000  S
  S3       1.0000 0.63168  0.63488  0.86687  Biso   1.000  S
  S4       1.0000 0.36832  0.36512  0.36687  Biso   1.000  S
  S5       1.0000 0.36512  0.36832  0.63313  Biso   1.000  S
  S6       1.0000 0.63488  0.63168  0.13313  Biso   1.000  S
  S7       1.0000 0.86832  0.13488  0.88313  Biso   1.000  S
  S8       1.0000 0.13168  0.86512  0.38313  Biso   1.000  S
  O1       1.0000 0.25770  0.27480  0.03256  Biso   1.000  O
  O2       1.0000 0.74230  0.72520  0.53256  Biso   1.000  O
  O3       1.0000 0.22520  0.75770  0.78256  Biso   1.000  O
  O4       1.0000 0.77480  0.24230  0.28256  Biso   1.000  O
  O5       1.0000 0.24230  0.77480  0.71744  Biso   1.000  O
  O6       1.0000 0.75770  0.22520  0.21744  Biso   1.000  O
  O7       1.0000 0.27480  0.25770  0.96744  Biso   1.000  O
  O8       1.0000 0.72520  0.74230  0.46744  Biso   1.000  O
  O9       1.0000 0.03070  0.03830  0.03290  Biso   1.000  O
  O10      1.0000 0.96930  0.96170  0.53290  Biso   1.000  O
  O11      1.0000 0.46170  0.53070  0.78290  Biso   1.000  O
  O12      1.0000 0.53830  0.46930  0.28290  Biso   1.000  O
  O13      1.0000 0.46930  0.53830  0.71710  Biso   1.000  O
  O14      1.0000 0.53070  0.46170  0.21710  Biso   1.000  O
  O15      1.0000 0.03830  0.03070  0.96710  Biso   1.000  O
  O16      1.0000 0.96170  0.96930  0.46710  Biso   1.000  O
  O17      1.0000 0.26730  0.02910  0.95615  Biso   1.000  O
  O18      1.0000 0.73270  0.97090  0.45615  Biso   1.000  O
  O19      1.0000 0.47090  0.76730  0.70615  Biso   1.000  O
  O20      1.0000 0.52910  0.23270  0.20615  Biso   1.000  O
  O21      1.0000 0.23270  0.52910  0.79385  Biso   1.000  O
  O22      1.0000 0.76730  0.47090  0.29385  Biso   1.000  O
  O23      1.0000 0.02910  0.26730  0.04385  Biso   1.000  O
  O24      1.0000 0.97090  0.73270  0.54385  Biso   1.000  O
  O25      1.0000 0.18610  0.96270  0.10186  Biso   1.000  O
  O26      1.0000 0.81390  0.03730  0.60186  Biso   1.000  O
  O27      1.0000 0.53730  0.68610  0.85186  Biso   1.000  O
  O28      1.0000 0.46270  0.31390  0.35186  Biso   1.000  O
  O29      1.0000 0.31390  0.46270  0.64814  Biso   1.000  O
  O30      1.0000 0.68610  0.53730  0.14814  Biso   1.000  O
  O31      1.0000 0.96270  0.18610  0.89814  Biso   1.000  O
  O32      1.0000 0.03730  0.81390  0.39814  Biso   1.000  O
  O33      1.0000 0.26200  0.04250  0.02151  Biso   1.000  O
  O34      1.0000 0.73800  0.95750  0.52151  Biso   1.000  O
  O35      1.0000 0.45750  0.76200  0.77151  Biso   1.000  O
  O36      1.0000 0.54250  0.23800  0.27151  Biso   1.000  O
  O37      1.0000 0.23800  0.54250  0.72849  Biso   1.000  O
  O38      1.0000 0.76200  0.45750  0.22849  Biso   1.000  O
  O39      1.0000 0.04250  0.26200  0.97849  Biso   1.000  O
  O40      1.0000 0.95750  0.73800  0.47849  Biso   1.000  O
  C1       1.0000 0.29780  0.29780  0.00000  Biso   1.000  C
  C2       1.0000 0.70220  0.70220  0.50000  Biso   1.000  C
  C3       1.0000 0.20220  0.79780  0.75000  Biso   1.000  C
  C4       1.0000 0.79780  0.20220  0.25000  Biso   1.000  C
  C5       1.0000 0.38300  0.92020  0.99329  Biso   1.000  C
  C6       1.0000 0.61700  0.07980  0.49329  Biso   1.000  C
  C7       1.0000 0.57980  0.88300  0.74329  Biso   1.000  C
  C8       1.0000 0.42020  0.11700  0.24329  Biso   1.000  C
  C9       1.0000 0.11700  0.42020  0.75671  Biso   1.000  C
  C10      1.0000 0.88300  0.57980  0.25671  Biso   1.000  C
  C11      1.0000 0.92020  0.38300  0.00671  Biso   1.000  C
  C12      1.0000 0.07980  0.61700  0.50671  Biso   1.000  C
  C13      1.0000 0.29730  0.00500  0.98959  Biso   1.000  C
  C14      1.0000 0.70270  0.99500  0.48959  Biso   1.000  C
  C15      1.0000 0.49500  0.79730  0.73959  Biso   1.000  C
  C16      1.0000 0.50500  0.20270  0.23959  Biso   1.000  C
  C17      1.0000 0.20270  0.50500  0.76041  Biso   1.000  C
  C18      1.0000 0.79730  0.49500  0.26041  Biso   1.000  C
  C19      1.0000 0.00500  0.29730  0.01041  Biso   1.000  C
  C20      1.0000 0.99500  0.70270  0.51041  Biso   1.000  C
  O41      1.0000 0.22260  0.65440  0.86827  Biso   1.000  O
  O42      1.0000 0.77740  0.34560  0.36827  Biso   1.000  O
  O43      1.0000 0.84560  0.72260  0.61827  Biso   1.000  O
  O44      1.0000 0.15440  0.27740  0.11827  Biso   1.000  O
  O45      1.0000 0.27740  0.15440  0.88173  Biso   1.000  O
  O46      1.0000 0.72260  0.84560  0.38173  Biso   1.000  O
  O47      1.0000 0.65440  0.22260  0.13173  Biso   1.000  O
  O48      1.0000 0.34560  0.77740  0.63173  Biso   1.000  O
  C21      1.0000 0.42950  0.88080  0.95980  Biso   1.000  C
  C22      1.0000 0.57050  0.11920  0.45980  Biso   1.000  C
  C23      1.0000 0.61920  0.92950  0.70980  Biso   1.000  C
  C24      1.0000 0.38080  0.07050  0.20980  Biso   1.000  C
  C25      1.0000 0.07050  0.38080  0.79020  Biso   1.000  C
  C26      1.0000 0.92950  0.61920  0.29020  Biso   1.000  C
  C27      1.0000 0.88080  0.42950  0.04020  Biso   1.000  C
  C28      1.0000 0.11920  0.57050  0.54020  Biso   1.000  C
  H1       1.0000 0.41000  0.90560  0.93500  Biso   1.000  H
  H2       1.0000 0.59000  0.09440  0.43500  Biso   1.000  H
  H3       1.0000 0.59440  0.91000  0.68500  Biso   1.000  H
  H4       1.0000 0.40560  0.09000  0.18500  Biso   1.000  H
  H5       1.0000 0.09000  0.40560  0.81500  Biso   1.000  H
  H6       1.0000 0.91000  0.59440  0.31500  Biso   1.000  H
  H7       1.0000 0.90560  0.41000  0.06500  Biso   1.000  H
  H8       1.0000 0.09440  0.59000  0.56500  Biso   1.000  H
  C29      1.0000 0.41380  0.88080  0.02950  Biso   1.000  C
  C30      1.0000 0.58620  0.11920  0.52950  Biso   1.000  C
  C31      1.0000 0.61920  0.91380  0.77950  Biso   1.000  C
  C32      1.0000 0.38080  0.08620  0.27950  Biso   1.000  C
  C33      1.0000 0.08620  0.38080  0.72050  Biso   1.000  C
  C34      1.0000 0.91380  0.61920  0.22050  Biso   1.000  C
  C35      1.0000 0.88080  0.41380  0.97050  Biso   1.000  C
  C36      1.0000 0.11920  0.58620  0.47050  Biso   1.000  C
  H9       1.0000 0.38440  0.90660  0.05280  Biso   1.000  H
  H10      1.0000 0.61560  0.09340  0.55280  Biso   1.000  H
  H11      1.0000 0.59340  0.88440  0.80280  Biso   1.000  H
  H12      1.0000 0.40660  0.11560  0.30280  Biso   1.000  H
  H13      1.0000 0.11560  0.40660  0.69720  Biso   1.000  H
  H14      1.0000 0.88440  0.59340  0.19720  Biso   1.000  H
  H15      1.0000 0.90660  0.38440  0.94720  Biso   1.000  H
  H16      1.0000 0.09340  0.61560  0.44720  Biso   1.000  H
  N1       1.0000 0.53750  0.76380  0.99820  Biso   1.000  N
  N2       1.0000 0.46250  0.23620  0.49820  Biso   1.000  N
  N3       1.0000 0.73620  0.03750  0.74820  Biso   1.000  N
  N4       1.0000 0.26380  0.96250  0.24820  Biso   1.000  N
  N5       1.0000 0.96250  0.26380  0.75180  Biso   1.000  N
  N6       1.0000 0.03750  0.73620  0.25180  Biso   1.000  N
  N7       1.0000 0.76380  0.53750  0.00180  Biso   1.000  N
  N8       1.0000 0.23620  0.46250  0.50180  Biso   1.000  N
  C37      1.0000 0.50650  0.80290  0.96360  Biso   1.000  C
  C38      1.0000 0.49350  0.19710  0.46360  Biso   1.000  C
  C39      1.0000 0.69710  0.00650  0.71360  Biso   1.000  C
  C40      1.0000 0.30290  0.99350  0.21360  Biso   1.000  C
  C41      1.0000 0.99350  0.30290  0.78640  Biso   1.000  C
  C42      1.0000 0.00650  0.69710  0.28640  Biso   1.000  C
  C43      1.0000 0.80290  0.50650  0.03640  Biso   1.000  C
  C44      1.0000 0.19710  0.49350  0.53640  Biso   1.000  C
  H17      1.0000 0.53780  0.77690  0.94070  Biso   1.000  H
  H18      1.0000 0.46220  0.22310  0.44070  Biso   1.000  H
  H19      1.0000 0.72310  0.03780  0.69070  Biso   1.000  H
  H20      1.0000 0.27690  0.96220  0.19070  Biso   1.000  H
  H21      1.0000 0.96220  0.27690  0.80930  Biso   1.000  H
  H22      1.0000 0.03780  0.72310  0.30930  Biso   1.000  H
  H23      1.0000 0.77690  0.53780  0.05930  Biso   1.000  H
  H24      1.0000 0.22310  0.46220  0.55930  Biso   1.000  H
  N9       1.0000 0.53820  0.53820  0.00000  Biso   1.000  N
  N10      1.0000 0.46180  0.46180  0.50000  Biso   1.000  N
  N11      1.0000 0.96180  0.03820  0.75000  Biso   1.000  N
  N12      1.0000 0.03820  0.96180  0.25000  Biso   1.000  N
  C45      1.0000 0.38230  0.38230  0.00000  Biso   1.000  C
  C46      1.0000 0.61770  0.61770  0.50000  Biso   1.000  C
  C47      1.0000 0.11770  0.88230  0.75000  Biso   1.000  C
  C48      1.0000 0.88230  0.11770  0.25000  Biso   1.000  C
  C49      1.0000 0.49230  0.50770  0.03320  Biso   1.000  C
  C50      1.0000 0.50770  0.49230  0.53320  Biso   1.000  C
  C51      1.0000 0.99230  0.99230  0.78320  Biso   1.000  C
  C52      1.0000 0.00770  0.00770  0.28320  Biso   1.000  C
  C53      1.0000 0.00770  0.00770  0.71680  Biso   1.000  C
  C54      1.0000 0.99230  0.99230  0.21680  Biso   1.000  C
  C55      1.0000 0.50770  0.49230  0.96680  Biso   1.000  C
  C56      1.0000 0.49230  0.50770  0.46680  Biso   1.000  C
  H25      1.0000 0.51320  0.53930  0.05670  Biso   1.000  H
  H26      1.0000 0.48680  0.46070  0.55670  Biso   1.000  H
  H27      1.0000 0.96070  0.01320  0.80670  Biso   1.000  H
  H28      1.0000 0.03930  0.98680  0.30670  Biso   1.000  H
  H29      1.0000 0.98680  0.03930  0.69330  Biso   1.000  H
  H30      1.0000 0.01320  0.96070  0.19330  Biso   1.000  H
  H31      1.0000 0.53930  0.51320  0.94330  Biso   1.000  H
  H32      1.0000 0.46070  0.48680  0.44330  Biso   1.000  H
  C57      1.0000 0.41500  0.43130  0.03460  Biso   1.000  C
  C58      1.0000 0.58500  0.56870  0.53460  Biso   1.000  C
  C59      1.0000 0.06870  0.91500  0.78460  Biso   1.000  C
  C60      1.0000 0.93130  0.08500  0.28460  Biso   1.000  C
  C61      1.0000 0.08500  0.93130  0.71540  Biso   1.000  C
  C62      1.0000 0.91500  0.06870  0.21540  Biso   1.000  C
  C63      1.0000 0.43130  0.41500  0.96540  Biso   1.000  C
  C64      1.0000 0.56870  0.58500  0.46540  Biso   1.000  C
  H33      1.0000 0.38480  0.41250  0.05860  Biso   1.000  H
  H34      1.0000 0.61520  0.58750  0.55860  Biso   1.000  H
  H35      1.0000 0.08750  0.88480  0.80860  Biso   1.000  H
  H36      1.0000 0.91250  0.11520  0.30860  Biso   1.000  H
  H37      1.0000 0.11520  0.91250  0.69140  Biso   1.000  H
  H38      1.0000 0.88480  0.08750  0.19140  Biso   1.000  H
  H39      1.0000 0.41250  0.38480  0.94140  Biso   1.000  H
  H40      1.0000 0.58750  0.61520  0.44140  Biso   1.000  H
  C65      1.0000 0.15850  0.66220  0.09020  Biso   1.000  C
  C66      1.0000 0.84150  0.33780  0.59020  Biso   1.000  C
  C67      1.0000 0.83780  0.65850  0.84020  Biso   1.000  C
  C68      1.0000 0.16220  0.34150  0.34020  Biso   1.000  C
  C69      1.0000 0.34150  0.16220  0.65980  Biso   1.000  C
  C70      1.0000 0.65850  0.83780  0.15980  Biso   1.000  C
  C71      1.0000 0.66220  0.15850  0.90980  Biso   1.000  C
  C72      1.0000 0.33780  0.84150  0.40980  Biso   1.000  C
  H41      1.0000 0.15900  0.64190  0.11660  Biso   1.000  H
  H42      1.0000 0.84100  0.35810  0.61660  Biso   1.000  H
  H43      1.0000 0.85810  0.65900  0.86660  Biso   1.000  H
  H44      1.0000 0.14190  0.34100  0.36660  Biso   1.000  H
  H45      1.0000 0.34100  0.14190  0.63340  Biso   1.000  H
  H46      1.0000 0.65900  0.85810  0.13340  Biso   1.000  H
  H47      1.0000 0.64190  0.15900  0.88340  Biso   1.000  H
  H48      1.0000 0.35810  0.84100  0.38340  Biso   1.000  H
  C73      1.0000 0.15540  0.80120  0.04144  Biso   1.000  C
  C74      1.0000 0.84460  0.19880  0.54144  Biso   1.000  C
  C75      1.0000 0.69880  0.65540  0.79144  Biso   1.000  C
  C76      1.0000 0.30120  0.34460  0.29144  Biso   1.000  C
  C77      1.0000 0.34460  0.30120  0.70856  Biso   1.000  C
  C78      1.0000 0.65540  0.69880  0.20856  Biso   1.000  C
  C79      1.0000 0.80120  0.15540  0.95856  Biso   1.000  C
  C80      1.0000 0.19880  0.84460  0.45856  Biso   1.000  C
  H49      1.0000 0.15400  0.87280  0.03540  Biso   1.000  H
  H50      1.0000 0.84600  0.12720  0.53540  Biso   1.000  H
  H51      1.0000 0.62720  0.65400  0.78540  Biso   1.000  H
  H52      1.0000 0.37280  0.34600  0.28540  Biso   1.000  H
  H53      1.0000 0.34600  0.37280  0.71460  Biso   1.000  H
  H54      1.0000 0.65400  0.62720  0.21460  Biso   1.000  H
  H55      1.0000 0.87280  0.15400  0.96460  Biso   1.000  H
  H56      1.0000 0.12720  0.84600  0.46460  Biso   1.000  H
  C81      1.0000 0.16100  0.72670  0.01097  Biso   1.000  C
  C82      1.0000 0.83900  0.27330  0.51097  Biso   1.000  C
  C83      1.0000 0.77330  0.66100  0.76097  Biso   1.000  C
  C84      1.0000 0.22670  0.33900  0.26097  Biso   1.000  C
  C85      1.0000 0.33900  0.22670  0.73903  Biso   1.000  C
  C86      1.0000 0.66100  0.77330  0.23903  Biso   1.000  C
  C87      1.0000 0.72670  0.16100  0.98903  Biso   1.000  C
  C88      1.0000 0.27330  0.83900  0.48903  Biso   1.000  C
  C89      1.0000 0.15220  0.77010  0.07953  Biso   1.000  C
  C90      1.0000 0.84780  0.22990  0.57953  Biso   1.000  C
  C91      1.0000 0.72990  0.65220  0.82953  Biso   1.000  C
  C92      1.0000 0.27010  0.34780  0.32953  Biso   1.000  C
  C93      1.0000 0.34780  0.27010  0.67047  Biso   1.000  C
  C94      1.0000 0.65220  0.72990  0.17047  Biso   1.000  C
  C95      1.0000 0.77010  0.15220  0.92047  Biso   1.000  C
  C96      1.0000 0.22990  0.84780  0.42047  Biso   1.000  C
  C97      1.0000 0.16310  0.61640  0.02070  Biso   1.000  C
  C98      1.0000 0.83690  0.38360  0.52070  Biso   1.000  C
  C99      1.0000 0.88360  0.66310  0.77070  Biso   1.000  C
  C100     1.0000 0.11640  0.33690  0.27070  Biso   1.000  C
  C101     1.0000 0.33690  0.11640  0.72930  Biso   1.000  C
  C102     1.0000 0.66310  0.88360  0.22930  Biso   1.000  C
  C103     1.0000 0.61640  0.16310  0.97930  Biso   1.000  C
  C104     1.0000 0.38360  0.83690  0.47930  Biso   1.000  C
  C105     1.0000 0.16370  0.58790  0.06050  Biso   1.000  C
  C106     1.0000 0.83630  0.41210  0.56050  Biso   1.000  C
  C107     1.0000 0.91210  0.66370  0.81050  Biso   1.000  C
  C108     1.0000 0.08790  0.33630  0.31050  Biso   1.000  C
  C109     1.0000 0.33630  0.08790  0.68950  Biso   1.000  C
  C110     1.0000 0.66370  0.91210  0.18950  Biso   1.000  C
  C111     1.0000 0.58790  0.16370  0.93950  Biso   1.000  C
  C112     1.0000 0.41210  0.83630  0.43950  Biso   1.000  C
  H57      1.0000 0.16780  0.51680  0.06720  Biso   1.000  H
  H58      1.0000 0.83220  0.48320  0.56720  Biso   1.000  H
  H59      1.0000 0.98320  0.66780  0.81720  Biso   1.000  H
  H60      1.0000 0.01680  0.33220  0.31720  Biso   1.000  H
  H61      1.0000 0.33220  0.01680  0.68280  Biso   1.000  H
  H62      1.0000 0.66780  0.98320  0.18280  Biso   1.000  H
  H63      1.0000 0.51680  0.16780  0.93280  Biso   1.000  H
  H64      1.0000 0.48320  0.83220  0.43280  Biso   1.000  H
  C113     1.0000 0.16660  0.54170  0.98970  Biso   1.000  C
  C114     1.0000 0.83340  0.45830  0.48970  Biso   1.000  C
  C115     1.0000 0.95830  0.66660  0.73970  Biso   1.000  C
  C116     1.0000 0.04170  0.33340  0.23970  Biso   1.000  C
  C117     1.0000 0.33340  0.04170  0.76030  Biso   1.000  C
  C118     1.0000 0.66660  0.95830  0.26030  Biso   1.000  C
  C119     1.0000 0.54170  0.16660  0.01030  Biso   1.000  C
  C120     1.0000 0.45830  0.83340  0.51030  Biso   1.000  C
  H65      1.0000 0.16720  0.47010  0.99590  Biso   1.000  H
  H66      1.0000 0.83280  0.52990  0.49590  Biso   1.000  H
  H67      1.0000 0.02990  0.66720  0.74590  Biso   1.000  H
  H68      1.0000 0.97010  0.33280  0.24590  Biso   1.000  H
  H69      1.0000 0.33280  0.97010  0.75410  Biso   1.000  H
  H70      1.0000 0.66720  0.02990  0.25410  Biso   1.000  H
  H71      1.0000 0.47010  0.16720  0.00410  Biso   1.000  H
  H72      1.0000 0.52990  0.83280  0.50410  Biso   1.000  H
  O49      1.0000 0.02020  0.88340  0.12118  Biso   1.000  O
  O50      1.0000 0.97980  0.11660  0.62118  Biso   1.000  O
  O51      1.0000 0.61660  0.52020  0.87118  Biso   1.000  O
  O52      1.0000 0.38340  0.47980  0.37118  Biso   1.000  O
  O53      1.0000 0.47980  0.38340  0.62882  Biso   1.000  O
  O54      1.0000 0.52020  0.61660  0.12882  Biso   1.000  O
  O55      1.0000 0.88340  0.02020  0.87882  Biso   1.000  O
  O56      1.0000 0.11660  0.97980  0.37882  Biso   1.000  O
  C121     1.0000 0.16360  0.75640  0.97086  Biso   1.000  C
  C122     1.0000 0.83640  0.24360  0.47086  Biso   1.000  C
  C123     1.0000 0.74360  0.66360  0.72086  Biso   1.000  C
  C124     1.0000 0.25640  0.33640  0.22086  Biso   1.000  C
  C125     1.0000 0.33640  0.25640  0.77914  Biso   1.000  C
  C126     1.0000 0.66360  0.74360  0.27914  Biso   1.000  C
  C127     1.0000 0.75640  0.16360  0.02914  Biso   1.000  C
  C128     1.0000 0.24360  0.83640  0.52914  Biso   1.000  C
  H73      1.0000 0.16320  0.82750  0.96400  Biso   1.000  H
  H74      1.0000 0.83680  0.17250  0.46400  Biso   1.000  H
  H75      1.0000 0.67250  0.66320  0.71400  Biso   1.000  H
  H76      1.0000 0.32750  0.33680  0.21400  Biso   1.000  H
  H77      1.0000 0.33680  0.32750  0.78600  Biso   1.000  H
  H78      1.0000 0.66320  0.67250  0.28600  Biso   1.000  H
  H79      1.0000 0.82750  0.16320  0.03600  Biso   1.000  H
  H80      1.0000 0.17250  0.83680  0.53600  Biso   1.000  H
  C129     1.0000 0.16910  0.57160  0.95150  Biso   1.000  C
  C130     1.0000 0.83090  0.42840  0.45150  Biso   1.000  C
  C131     1.0000 0.92840  0.66910  0.70150  Biso   1.000  C
  C132     1.0000 0.07160  0.33090  0.20150  Biso   1.000  C
  C133     1.0000 0.33090  0.07160  0.79850  Biso   1.000  C
  C134     1.0000 0.66910  0.92840  0.29850  Biso   1.000  C
  C135     1.0000 0.57160  0.16910  0.04850  Biso   1.000  C
  C136     1.0000 0.42840  0.83090  0.54850  Biso   1.000  C
  H81      1.0000 0.17220  0.52100  0.93160  Biso   1.000  H
  H82      1.0000 0.82780  0.47900  0.43160  Biso   1.000  H
  H83      1.0000 0.97900  0.67220  0.68160  Biso   1.000  H
  H84      1.0000 0.02100  0.32780  0.18160  Biso   1.000  H
  H85      1.0000 0.32780  0.02100  0.81840  Biso   1.000  H
  H86      1.0000 0.67220  0.97900  0.31840  Biso   1.000  H
  H87      1.0000 0.52100  0.17220  0.06840  Biso   1.000  H
  H88      1.0000 0.47900  0.82780  0.56840  Biso   1.000  H
  C137     1.0000 0.16690  0.67990  0.94180  Biso   1.000  C
  C138     1.0000 0.83310  0.32010  0.44180  Biso   1.000  C
  C139     1.0000 0.82010  0.66690  0.69180  Biso   1.000  C
  C140     1.0000 0.17990  0.33310  0.19180  Biso   1.000  C
  C141     1.0000 0.33310  0.17990  0.80820  Biso   1.000  C
  C142     1.0000 0.66690  0.82010  0.30820  Biso   1.000  C
  C143     1.0000 0.67990  0.16690  0.05820  Biso   1.000  C
  C144     1.0000 0.32010  0.83310  0.55820  Biso   1.000  C
  C145     1.0000 0.48970  0.80160  0.03030  Biso   1.000  C
  C146     1.0000 0.51030  0.19840  0.53030  Biso   1.000  C
  C147     1.0000 0.69840  0.98970  0.78030  Biso   1.000  C
  C148     1.0000 0.30160  0.01030  0.28030  Biso   1.000  C
  C149     1.0000 0.01030  0.30160  0.71970  Biso   1.000  C
  C150     1.0000 0.98970  0.69840  0.21970  Biso   1.000  C
  C151     1.0000 0.80160  0.48970  0.96970  Biso   1.000  C
  C152     1.0000 0.19840  0.51030  0.46970  Biso   1.000  C
  H89      1.0000 0.50820  0.77340  0.05470  Biso   1.000  H
  H90      1.0000 0.49180  0.22660  0.55470  Biso   1.000  H
  H91      1.0000 0.72660  0.00820  0.80470  Biso   1.000  H
  H92      1.0000 0.27340  0.99180  0.30470  Biso   1.000  H
  H93      1.0000 0.99180  0.27340  0.69530  Biso   1.000  H
  H94      1.0000 0.00820  0.72660  0.19530  Biso   1.000  H
  H95      1.0000 0.77340  0.50820  0.94530  Biso   1.000  H
  H96      1.0000 0.22660  0.49180  0.44530  Biso   1.000  H
  O57      1.0000 0.18080  0.82790  0.15310  Biso   1.000  O
  O58      1.0000 0.81920  0.17210  0.65310  Biso   1.000  O
  O59      1.0000 0.67210  0.68080  0.90310  Biso   1.000  O
  O60      1.0000 0.32790  0.31920  0.40310  Biso   1.000  O
  O61      1.0000 0.31920  0.32790  0.59690  Biso   1.000  O
  O62      1.0000 0.68080  0.67210  0.09690  Biso   1.000  O
  O63      1.0000 0.82790  0.18080  0.84690  Biso   1.000  O
  O64      1.0000 0.17210  0.81920  0.34690  Biso   1.000  O
  O65      1.0000 0.33040  0.13340  0.09882  Biso   1.000  O
  O66      1.0000 0.66960  0.86660  0.59882  Biso   1.000  O
  O67      1.0000 0.36660  0.83040  0.84882  Biso   1.000  O
  O68      1.0000 0.63340  0.16960  0.34882  Biso   1.000  O
  O69      1.0000 0.16960  0.63340  0.65118  Biso   1.000  O
  O70      1.0000 0.83040  0.36660  0.15118  Biso   1.000  O
  O71      1.0000 0.13340  0.33040  0.90118  Biso   1.000  O
  O72      1.0000 0.86660  0.66960  0.40118  Biso   1.000  O
  H97      1.0000 0.27000  0.13700  0.11000  Biso   1.000  H
  H98      1.0000 0.73000  0.86300  0.61000  Biso   1.000  H
  H99      1.0000 0.36300  0.77000  0.86000  Biso   1.000  H
  H100     1.0000 0.63700  0.23000  0.36000  Biso   1.000  H
  H101     1.0000 0.23000  0.63700  0.64000  Biso   1.000  H
  H102     1.0000 0.77000  0.36300  0.14000  Biso   1.000  H
  H103     1.0000 0.13700  0.27000  0.89000  Biso   1.000  H
  H104     1.0000 0.86300  0.73000  0.39000  Biso   1.000  H
  H105     1.0000 0.35640  0.19440  0.10060  Biso   1.000  H
  H106     1.0000 0.64360  0.80560  0.60060  Biso   1.000  H
  H107     1.0000 0.30560  0.85640  0.85060  Biso   1.000  H
  H108     1.0000 0.69440  0.14360  0.35060  Biso   1.000  H
  H109     1.0000 0.14360  0.69440  0.64940  Biso   1.000  H
  H110     1.0000 0.85640  0.30560  0.14940  Biso   1.000  H
  H111     1.0000 0.19440  0.35640  0.89940  Biso   1.000  H
  H112     1.0000 0.80560  0.64360  0.39940  Biso   1.000  H
  S9       1.0000 0.15340  0.72037  0.89248  Biso   1.000  S
  S10      1.0000 0.84660  0.27963  0.39248  Biso   1.000  S
  S11      1.0000 0.77963  0.65340  0.64248  Biso   1.000  S
  S12      1.0000 0.22037  0.34660  0.14248  Biso   1.000  S
  S13      1.0000 0.34660  0.22037  0.85752  Biso   1.000  S
  S14      1.0000 0.65340  0.77963  0.35752  Biso   1.000  S
  S15      1.0000 0.72037  0.15340  0.10752  Biso   1.000  S
  S16      1.0000 0.27963  0.84660  0.60752  Biso   1.000  S
  O73      1.0000 0.18800  0.82910  0.89107  Biso   1.000  O
  O74      1.0000 0.81200  0.17090  0.39107  Biso   1.000  O
  O75      1.0000 0.67090  0.68800  0.64107  Biso   1.000  O
  O76      1.0000 0.32910  0.31200  0.14107  Biso   1.000  O
  O77      1.0000 0.31200  0.32910  0.85893  Biso   1.000  O
  O78      1.0000 0.68800  0.67090  0.35893  Biso   1.000  O
  O79      1.0000 0.82910  0.18800  0.10893  Biso   1.000  O
  O80      1.0000 0.17090  0.81200  0.60893  Biso   1.000  O
  O81      1.0000 0.04400  0.70440  0.88337  Biso   1.000  O
  O82      1.0000 0.95600  0.29560  0.38337  Biso   1.000  O
  O83      1.0000 0.79560  0.54400  0.63337  Biso   1.000  O
  O84      1.0000 0.20440  0.45600  0.13337  Biso   1.000  O
  O85      1.0000 0.45600  0.20440  0.86663  Biso   1.000  O
  O86      1.0000 0.54400  0.79560  0.36663  Biso   1.000  O
  O87      1.0000 0.70440  0.04400  0.11663  Biso   1.000  O
  O88      1.0000 0.29560  0.95600  0.61663  Biso   1.000  O
  C153     1.0000 0.00310  0.00310  0.00000  Biso   1.000  C
  C154     1.0000 0.99690  0.99690  0.50000  Biso   1.000  C
  C155     1.0000 0.49690  0.50310  0.75000  Biso   1.000  C
  C156     1.0000 0.50310  0.49690  0.25000  Biso   1.000  C
  C157     1.0000 0.91920  0.91920  0.00000  Biso   1.000  C
  C158     1.0000 0.08080  0.08080  0.50000  Biso   1.000  C
  C159     1.0000 0.58080  0.41920  0.75000  Biso   1.000  C
  C160     1.0000 0.41920  0.58080  0.25000  Biso   1.000  C
  C161     1.0000 0.85430  0.90210  0.03260  Biso   1.000  C
  C162     1.0000 0.14570  0.09790  0.53260  Biso   1.000  C
  C163     1.0000 0.59790  0.35430  0.78260  Biso   1.000  C
  C164     1.0000 0.40210  0.64570  0.28260  Biso   1.000  C
  C165     1.0000 0.64570  0.40210  0.71740  Biso   1.000  C
  C166     1.0000 0.35430  0.59790  0.21740  Biso   1.000  C
  C167     1.0000 0.90210  0.85430  0.96740  Biso   1.000  C
  C168     1.0000 0.09790  0.14570  0.46740  Biso   1.000  C
  H113     1.0000 0.86250  0.94260  0.05530  Biso   1.000  H
  H114     1.0000 0.13750  0.05740  0.55530  Biso   1.000  H
  H115     1.0000 0.55740  0.36250  0.80530  Biso   1.000  H
  H116     1.0000 0.44260  0.63750  0.30530  Biso   1.000  H
  H117     1.0000 0.63750  0.44260  0.69470  Biso   1.000  H
  H118     1.0000 0.36250  0.55740  0.19470  Biso   1.000  H
  H119     1.0000 0.94260  0.86250  0.94470  Biso   1.000  H
  H120     1.0000 0.05740  0.13750  0.44470  Biso   1.000  H
  C169     1.0000 0.77810  0.82510  0.03120  Biso   1.000  C
  C170     1.0000 0.22190  0.17490  0.53120  Biso   1.000  C
  C171     1.0000 0.67490  0.27810  0.78120  Biso   1.000  C
  C172     1.0000 0.32510  0.72190  0.28120  Biso   1.000  C
  C173     1.0000 0.72190  0.32510  0.71880  Biso   1.000  C
  C174     1.0000 0.27810  0.67490  0.21880  Biso   1.000  C
  C175     1.0000 0.82510  0.77810  0.96880  Biso   1.000  C
  C176     1.0000 0.17490  0.22190  0.46880  Biso   1.000  C
  H121     1.0000 0.73480  0.81580  0.05310  Biso   1.000  H
  H122     1.0000 0.26520  0.18420  0.55310  Biso   1.000  H
  H123     1.0000 0.68420  0.23480  0.80310  Biso   1.000  H
  H124     1.0000 0.31580  0.76520  0.30310  Biso   1.000  H
  H125     1.0000 0.76520  0.31580  0.69690  Biso   1.000  H
  H126     1.0000 0.23480  0.68420  0.19690  Biso   1.000  H
  H127     1.0000 0.81580  0.73480  0.94690  Biso   1.000  H
  H128     1.0000 0.18420  0.26520  0.44690  Biso   1.000  H
  N13      1.0000 0.76340  0.76340  0.00000  Biso   1.000  N
  N14      1.0000 0.23660  0.23660  0.50000  Biso   1.000  N
  N15      1.0000 0.73660  0.26340  0.75000  Biso   1.000  N
  N16      1.0000 0.26340  0.73660  0.25000  Biso   1.000  N
  O89      1.0000 0.02020  0.10310  0.11470  Biso   1.000  O
  O90      1.0000 0.97980  0.89690  0.61470  Biso   1.000  O
  O91      1.0000 0.39690  0.52020  0.86470  Biso   1.000  O
  O92      1.0000 0.60310  0.47980  0.36470  Biso   1.000  O
  O93      1.0000 0.47980  0.60310  0.63530  Biso   1.000  O
  O94      1.0000 0.52020  0.39690  0.13530  Biso   1.000  O
  O95      1.0000 0.10310  0.02020  0.88530  Biso   1.000  O
  O96      1.0000 0.89690  0.97980  0.38530  Biso   1.000  O
  H129     1.0000 0.96310  0.13760  0.11190  Biso   1.000  H
  H130     1.0000 0.03690  0.86240  0.61190  Biso   1.000  H
  H131     1.0000 0.36240  0.46310  0.86190  Biso   1.000  H
  H132     1.0000 0.63760  0.53690  0.36190  Biso   1.000  H
  H133     1.0000 0.53690  0.63760  0.63810  Biso   1.000  H
  H134     1.0000 0.46310  0.36240  0.13810  Biso   1.000  H
  H135     1.0000 0.13760  0.96310  0.88810  Biso   1.000  H
  H136     1.0000 0.86240  0.03690  0.38810  Biso   1.000  H
  H137     1.0000 0.00210  0.03850  0.11340  Biso   1.000  H
  H138     1.0000 0.99790  0.96150  0.61340  Biso   1.000  H
  H139     1.0000 0.46150  0.50210  0.86340  Biso   1.000  H
  H140     1.0000 0.53850  0.49790  0.36340  Biso   1.000  H
  H141     1.0000 0.49790  0.53850  0.63660  Biso   1.000  H
  H142     1.0000 0.50210  0.46150  0.13660  Biso   1.000  H
  H143     1.0000 0.03850  0.00210  0.88660  Biso   1.000  H
  H144     1.0000 0.96150  0.99790  0.38660  Biso   1.000  H
  O97      1.0000 0.47070  0.98860  0.11840  Biso   1.000  O
  O98      1.0000 0.52930  0.01140  0.61840  Biso   1.000  O
  O99      1.0000 0.51140  0.97070  0.86840  Biso   1.000  O
  O100     1.0000 0.48860  0.02930  0.36840  Biso   1.000  O
  O101     1.0000 0.02930  0.48860  0.63160  Biso   1.000  O
  O102     1.0000 0.97070  0.51140  0.13160  Biso   1.000  O
  O103     1.0000 0.98860  0.47070  0.88160  Biso   1.000  O
  O104     1.0000 0.01140  0.52930  0.38160  Biso   1.000  O
  H145     1.0000 0.42200  0.03270  0.11320  Biso   1.000  H
  H146     1.0000 0.57800  0.96730  0.61320  Biso   1.000  H
  H147     1.0000 0.46730  0.92200  0.86320  Biso   1.000  H
  H148     1.0000 0.53270  0.07800  0.36320  Biso   1.000  H
  H149     1.0000 0.07800  0.53270  0.63680  Biso   1.000  H
  H150     1.0000 0.92200  0.46730  0.13680  Biso   1.000  H
  H151     1.0000 0.03270  0.42200  0.88680  Biso   1.000  H
  H152     1.0000 0.96730  0.57800  0.38680  Biso   1.000  H
  H153     1.0000 0.52340  0.02590  0.12520  Biso   1.000  H
  H154     1.0000 0.47660  0.97410  0.62520  Biso   1.000  H
  H155     1.0000 0.47410  0.02340  0.87520  Biso   1.000  H
  H156     1.0000 0.52590  0.97660  0.37520  Biso   1.000  H
  H157     1.0000 0.97660  0.52590  0.62480  Biso   1.000  H
  H158     1.0000 0.02340  0.47410  0.12480  Biso   1.000  H
  H159     1.0000 0.02590  0.52340  0.87480  Biso   1.000  H
  H160     1.0000 0.97410  0.47660  0.37480  Biso   1.000  H
  O105     1.0000 0.40170  0.79880  0.13690  Biso   1.000  O
  O106     1.0000 0.59830  0.20120  0.63690  Biso   1.000  O
  O107     1.0000 0.70120  0.90170  0.88690  Biso   1.000  O
  O108     1.0000 0.29880  0.09830  0.38690  Biso   1.000  O
  O109     1.0000 0.09830  0.29880  0.61310  Biso   1.000  O
  O110     1.0000 0.90170  0.70120  0.11310  Biso   1.000  O
  O111     1.0000 0.79880  0.40170  0.86310  Biso   1.000  O
  O112     1.0000 0.20120  0.59830  0.36310  Biso   1.000  O
  H161     1.0000 0.33950  0.78570  0.12870  Biso   1.000  H
  H162     1.0000 0.66050  0.21430  0.62870  Biso   1.000  H
  H163     1.0000 0.71430  0.83950  0.87870  Biso   1.000  H
  H164     1.0000 0.28570  0.16050  0.37870  Biso   1.000  H
  H165     1.0000 0.16050  0.28570  0.62130  Biso   1.000  H
  H166     1.0000 0.83950  0.71430  0.12130  Biso   1.000  H
  H167     1.0000 0.78570  0.33950  0.87130  Biso   1.000  H
  H168     1.0000 0.21430  0.66050  0.37130  Biso   1.000  H
  H169     1.0000 0.43810  0.74550  0.13000  Biso   1.000  H
  H170     1.0000 0.56190  0.25450  0.63000  Biso   1.000  H
  H171     1.0000 0.75450  0.93810  0.88000  Biso   1.000  H
  H172     1.0000 0.24550  0.06190  0.38000  Biso   1.000  H
  H173     1.0000 0.06190  0.24550  0.62000  Biso   1.000  H
  H174     1.0000 0.93810  0.75450  0.12000  Biso   1.000  H
  H175     1.0000 0.74550  0.43810  0.87000  Biso   1.000  H
  H176     1.0000 0.25450  0.56190  0.37000  Biso   1.000  H
