data_image0
_cell_length_a       8.1553
_cell_length_b       8.3859
_cell_length_c       9.0503
_cell_angle_alpha    117.001
_cell_angle_beta     107.965
_cell_angle_gamma    95.628

_symmetry_space_group_name_H-M    "P 1"
_symmetry_int_tables_number       1

loop_
  _symmetry_equiv_pos_as_xyz
  'x, y, z'

loop_
  _atom_site_label
  _atom_site_occupancy
  _atom_site_fract_x
  _atom_site_fract_y
  _atom_site_fract_z
  _atom_site_thermal_displace_type
  _atom_site_B_iso_or_equiv
  _atom_site_type_symbol
  Pt1      1.0000 0.00000  0.00000  0.00000  Biso   1.000  Pt
  Cu1      1.0000 0.50000  0.00000  0.50000  Biso   1.000  Cu
  O1       1.0000 0.27640  0.80250  0.50130  Biso   1.000  O
  O2       1.0000 0.72360  0.19750  0.49870  Biso   1.000  O
  H1       1.0000 0.19700  0.71100  0.39800  Biso   1.000  H
  H2       1.0000 0.80300  0.28900  0.60200  Biso   1.000  H
  N1       1.0000 0.12490  0.43270  0.24590  Biso   1.000  N
  N2       1.0000 0.87510  0.56730  0.75410  Biso   1.000  N
  N3       1.0000 0.31580  0.97590  0.28130  Biso   1.000  N
  N4       1.0000 0.68420  0.02410  0.71870  Biso   1.000  N
  N5       1.0000 0.41400  0.21410  0.65130  Biso   1.000  N
  N6       1.0000 0.58600  0.78590  0.34870  Biso   1.000  N
  C1       1.0000 0.08220  0.27700  0.15880  Biso   1.000  C
  C2       1.0000 0.91780  0.72300  0.84120  Biso   1.000  C
  C3       1.0000 0.20010  0.98140  0.17780  Biso   1.000  C
  C4       1.0000 0.79990  0.01860  0.82220  Biso   1.000  C
  C5       1.0000 0.18290  0.86940  0.61390  Biso   1.000  C
  C6       1.0000 0.81710  0.13060  0.38610  Biso   1.000  C
  H3       1.0000 0.14760  0.77830  0.64450  Biso   1.000  H
  H4       1.0000 0.85240  0.22170  0.35550  Biso   1.000  H
  H5       1.0000 0.07550  0.89220  0.55270  Biso   1.000  H
  H6       1.0000 0.92450  0.10780  0.44730  Biso   1.000  H
  C7       1.0000 0.30740  0.04890  0.78340  Biso   1.000  C
  C8       1.0000 0.69260  0.95110  0.21660  Biso   1.000  C
  H7       1.0000 0.26040  0.07750  0.87610  Biso   1.000  H
  H8       1.0000 0.73960  0.92250  0.12390  Biso   1.000  H
  H9       1.0000 0.42390  0.02960  0.82650  Biso   1.000  H
  H10      1.0000 0.57610  0.97040  0.17350  Biso   1.000  H
  C9       1.0000 0.33190  0.21340  0.75890  Biso   1.000  C
  C10      1.0000 0.66810  0.78660  0.24110  Biso   1.000  C
  C11      1.0000 0.26970  0.36300  0.84630  Biso   1.000  C
  C12      1.0000 0.73030  0.63700  0.15370  Biso   1.000  C
  H11      1.0000 0.21140  0.36060  0.91910  Biso   1.000  H
  H12      1.0000 0.78860  0.63940  0.08090  Biso   1.000  H
  C13      1.0000 0.29440  0.51470  0.82500  Biso   1.000  C
  C14      1.0000 0.70560  0.48530  0.17500  Biso   1.000  C
  H13      1.0000 0.25330  0.61540  0.88350  Biso   1.000  H
  H14      1.0000 0.74670  0.38460  0.11650  Biso   1.000  H
  C15      1.0000 0.37990  0.51590  0.71710  Biso   1.000  C
  C16      1.0000 0.62010  0.48410  0.28290  Biso   1.000  C
  H15      1.0000 0.39990  0.61790  0.70240  Biso   1.000  H
  H16      1.0000 0.60010  0.38210  0.29760  Biso   1.000  H
  C17      1.0000 0.43590  0.36240  0.63060  Biso   1.000  C
  C18      1.0000 0.56410  0.63760  0.36940  Biso   1.000  C
  H17      1.0000 0.49120  0.36150  0.55460  Biso   1.000  H
  H18      1.0000 0.50880  0.63850  0.44540  Biso   1.000  H
