data_image0
_cell_length_a       11.031
_cell_length_b       12.815
_cell_length_c       9.341
_cell_angle_alpha    90
_cell_angle_beta     104.16
_cell_angle_gamma    90

_symmetry_space_group_name_H-M    "P 1"
_symmetry_int_tables_number       1

loop_
  _symmetry_equiv_pos_as_xyz
  'x, y, z'

loop_
  _atom_site_label
  _atom_site_occupancy
  _atom_site_fract_x
  _atom_site_fract_y
  _atom_site_fract_z
  _atom_site_thermal_displace_type
  _atom_site_B_iso_or_equiv
  _atom_site_type_symbol
  Cu1      1.0000 0.00000  0.00000  0.00000  Biso   1.000  Cu
  Cu2      1.0000 0.00000  0.50000  0.50000  Biso   1.000  Cu
  Cl1      1.0000 0.34235  0.79501  0.26572  Biso   1.000  Cl
  Cl2      1.0000 0.65765  0.29501  0.23428  Biso   1.000  Cl
  Cl3      1.0000 0.65765  0.20499  0.73428  Biso   1.000  Cl
  Cl4      1.0000 0.34235  0.70499  0.76572  Biso   1.000  Cl
  N1       1.0000 0.06727  0.97634  0.21881  Biso   1.000  N
  N2       1.0000 0.93273  0.47634  0.28119  Biso   1.000  N
  N3       1.0000 0.93273  0.02366  0.78119  Biso   1.000  N
  N4       1.0000 0.06727  0.52366  0.71881  Biso   1.000  N
  O1       1.0000 0.83185  0.95650  0.01654  Biso   1.000  O
  O2       1.0000 0.16815  0.45650  0.48346  Biso   1.000  O
  O3       1.0000 0.16815  0.04350  0.98346  Biso   1.000  O
  O4       1.0000 0.83185  0.54350  0.51654  Biso   1.000  O
  O5       1.0000 0.78418  0.10377  0.11915  Biso   1.000  O
  O6       1.0000 0.21582  0.60377  0.38085  Biso   1.000  O
  O7       1.0000 0.21582  0.89623  0.88085  Biso   1.000  O
  O8       1.0000 0.78418  0.39623  0.61915  Biso   1.000  O
  O9       1.0000 0.71039  0.78777  0.03436  Biso   1.000  O
  O10      1.0000 0.28961  0.28777  0.46564  Biso   1.000  O
  O11      1.0000 0.28961  0.21223  0.96564  Biso   1.000  O
  O12      1.0000 0.71039  0.71223  0.53436  Biso   1.000  O
  H1       1.0000 0.76260  0.82440  0.00940  Biso   1.000  H
  H2       1.0000 0.23740  0.32440  0.49060  Biso   1.000  H
  H3       1.0000 0.23740  0.17560  0.99060  Biso   1.000  H
  H4       1.0000 0.76260  0.67560  0.50940  Biso   1.000  H
  O13      1.0000 0.01139  0.69118  0.42523  Biso   1.000  O
  O14      1.0000 0.98861  0.19118  0.07477  Biso   1.000  O
  O15      1.0000 0.98861  0.30882  0.57477  Biso   1.000  O
  O16      1.0000 0.01139  0.80882  0.92523  Biso   1.000  O
  H5       1.0000 0.07820  0.67230  0.41020  Biso   1.000  H
  H6       1.0000 0.92180  0.17230  0.08980  Biso   1.000  H
  H7       1.0000 0.92180  0.32770  0.58980  Biso   1.000  H
  H8       1.0000 0.07820  0.82770  0.91020  Biso   1.000  H
  C1       1.0000 0.76423  0.01124  0.08387  Biso   1.000  C
  C2       1.0000 0.23577  0.51124  0.41613  Biso   1.000  C
  C3       1.0000 0.23577  0.98876  0.91613  Biso   1.000  C
  C4       1.0000 0.76423  0.48876  0.58387  Biso   1.000  C
  C5       1.0000 0.65756  0.95548  0.12298  Biso   1.000  C
  C6       1.0000 0.34244  0.45548  0.37702  Biso   1.000  C
  C7       1.0000 0.34244  0.04452  0.87702  Biso   1.000  C
  C8       1.0000 0.65756  0.54452  0.62298  Biso   1.000  C
  C9       1.0000 0.63791  0.84805  0.09946  Biso   1.000  C
  C10      1.0000 0.36209  0.34805  0.40054  Biso   1.000  C
  C11      1.0000 0.36209  0.15195  0.90054  Biso   1.000  C
  C12      1.0000 0.63791  0.65195  0.59946  Biso   1.000  C
  C13      1.0000 0.53896  0.79856  0.14240  Biso   1.000  C
  C14      1.0000 0.46104  0.29856  0.35760  Biso   1.000  C
  C15      1.0000 0.46104  0.20144  0.85760  Biso   1.000  C
  C16      1.0000 0.53896  0.70144  0.64240  Biso   1.000  C
  H9       1.0000 0.52490  0.72750  0.12640  Biso   1.000  H
  H10      1.0000 0.47510  0.22750  0.37360  Biso   1.000  H
  H11      1.0000 0.47510  0.27250  0.87360  Biso   1.000  H
  H12      1.0000 0.52490  0.77250  0.62640  Biso   1.000  H
  C17      1.0000 0.46293  0.85685  0.20850  Biso   1.000  C
  C18      1.0000 0.53707  0.35685  0.29150  Biso   1.000  C
  C19      1.0000 0.53707  0.14315  0.79150  Biso   1.000  C
  C20      1.0000 0.46293  0.64315  0.70850  Biso   1.000  C
  C21      1.0000 0.47925  0.96338  0.23237  Biso   1.000  C
  C22      1.0000 0.52075  0.46338  0.26763  Biso   1.000  C
  C23      1.0000 0.52075  0.03662  0.76763  Biso   1.000  C
  C24      1.0000 0.47925  0.53662  0.73237  Biso   1.000  C
  H13      1.0000 0.42660  0.00130  0.27680  Biso   1.000  H
  H14      1.0000 0.57340  0.50130  0.22320  Biso   1.000  H
  H15      1.0000 0.57340  0.99870  0.72320  Biso   1.000  H
  H16      1.0000 0.42660  0.49870  0.77680  Biso   1.000  H
  C25      1.0000 0.57664  0.01141  0.18783  Biso   1.000  C
  C26      1.0000 0.42336  0.51141  0.31217  Biso   1.000  C
  C27      1.0000 0.42336  0.98859  0.81217  Biso   1.000  C
  C28      1.0000 0.57664  0.48859  0.68783  Biso   1.000  C
  H17      1.0000 0.58820  0.08290  0.20160  Biso   1.000  H
  H18      1.0000 0.41180  0.58290  0.29840  Biso   1.000  H
  H19      1.0000 0.41180  0.91710  0.79840  Biso   1.000  H
  H20      1.0000 0.58820  0.41710  0.70160  Biso   1.000  H
  C29      1.0000 0.15524  0.04049  0.29766  Biso   1.000  C
  C30      1.0000 0.84476  0.54049  0.20234  Biso   1.000  C
  C31      1.0000 0.84476  0.95951  0.70234  Biso   1.000  C
  C32      1.0000 0.15524  0.45951  0.79766  Biso   1.000  C
  H21      1.0000 0.18160  0.09700  0.25070  Biso   1.000  H
  H22      1.0000 0.81840  0.59700  0.24930  Biso   1.000  H
  H23      1.0000 0.81840  0.90300  0.74930  Biso   1.000  H
  H24      1.0000 0.18160  0.40300  0.75070  Biso   1.000  H
  C33      1.0000 0.20778  0.02487  0.44691  Biso   1.000  C
  C34      1.0000 0.79222  0.52487  0.05309  Biso   1.000  C
  C35      1.0000 0.79222  0.97513  0.55309  Biso   1.000  C
  C36      1.0000 0.20778  0.47513  0.94691  Biso   1.000  C
  H25      1.0000 0.26810  0.07040  0.49940  Biso   1.000  H
  H26      1.0000 0.73190  0.57040  0.00060  Biso   1.000  H
  H27      1.0000 0.73190  0.92960  0.50060  Biso   1.000  H
  H28      1.0000 0.26810  0.42960  0.99940  Biso   1.000  H
  C37      1.0000 0.16872  0.94007  0.51653  Biso   1.000  C
  C38      1.0000 0.83128  0.44007  0.98347  Biso   1.000  C
  C39      1.0000 0.83128  0.05993  0.48347  Biso   1.000  C
  C40      1.0000 0.16872  0.55993  0.01653  Biso   1.000  C
  H29      1.0000 0.20410  0.92760  0.61610  Biso   1.000  H
  H30      1.0000 0.79590  0.42760  0.88390  Biso   1.000  H
  H31      1.0000 0.79590  0.07240  0.38390  Biso   1.000  H
  H32      1.0000 0.20410  0.57240  0.11610  Biso   1.000  H
  C41      1.0000 0.07692  0.87388  0.43750  Biso   1.000  C
  C42      1.0000 0.92308  0.37388  0.06250  Biso   1.000  C
  C43      1.0000 0.92308  0.12612  0.56250  Biso   1.000  C
  C44      1.0000 0.07692  0.62612  0.93750  Biso   1.000  C
  C45      1.0000 0.02905  0.89510  0.28791  Biso   1.000  C
  C46      1.0000 0.97095  0.39510  0.21209  Biso   1.000  C
  C47      1.0000 0.97095  0.10490  0.71209  Biso   1.000  C
  C48      1.0000 0.02905  0.60490  0.78791  Biso   1.000  C
  H33      1.0000 0.96790  0.85110  0.23340  Biso   1.000  H
  H34      1.0000 0.03210  0.35110  0.26660  Biso   1.000  H
  H35      1.0000 0.03210  0.14890  0.76660  Biso   1.000  H
  H36      1.0000 0.96790  0.64890  0.73340  Biso   1.000  H
  C49      1.0000 0.02994  0.78298  0.51204  Biso   1.000  C
  C50      1.0000 0.97006  0.28298  0.98796  Biso   1.000  C
  C51      1.0000 0.97006  0.21702  0.48796  Biso   1.000  C
  C52      1.0000 0.02994  0.71702  0.01204  Biso   1.000  C
  H37      1.0000 0.08970  0.76850  0.60480  Biso   1.000  H
  H38      1.0000 0.91030  0.26850  0.89520  Biso   1.000  H
  H39      1.0000 0.91030  0.23150  0.39520  Biso   1.000  H
  H40      1.0000 0.08970  0.73150  0.10480  Biso   1.000  H
  H41      1.0000 0.95150  0.80240  0.53420  Biso   1.000  H
  H42      1.0000 0.04850  0.30240  0.96580  Biso   1.000  H
  H43      1.0000 0.04850  0.19760  0.46580  Biso   1.000  H
  H44      1.0000 0.95150  0.69760  0.03420  Biso   1.000  H
