data_image0
_cell_length_a       8.5553
_cell_length_b       8.8213
_cell_length_c       20.35
_cell_angle_alpha    95.18
_cell_angle_beta     96.444
_cell_angle_gamma    117.107

_symmetry_space_group_name_H-M    "P 1"
_symmetry_int_tables_number       1

loop_
  _symmetry_equiv_pos_as_xyz
  'x, y, z'

loop_
  _atom_site_label
  _atom_site_occupancy
  _atom_site_fract_x
  _atom_site_fract_y
  _atom_site_fract_z
  _atom_site_thermal_displace_type
  _atom_site_B_iso_or_equiv
  _atom_site_type_symbol
  C1       1.0000 0.00270  0.70130  0.72220  Biso   1.000  C
  H1       1.0000 0.89600  0.70670  0.71740  Biso   1.000  H
  C2       1.0000 0.24890  0.70320  0.79090  Biso   1.000  C
  H2       1.0000 0.30660  0.70690  0.83300  Biso   1.000  H
  C3       1.0000 0.00500  0.70710  0.84620  Biso   1.000  C
  C4       1.0000 0.32990  0.69900  0.73520  Biso   1.000  C
  C5       1.0000 0.26410  0.30090  0.51030  Biso   1.000  C
  H3       1.0000 0.23700  0.38640  0.49800  Biso   1.000  H
  C6       1.0000 0.41450  0.34400  0.55560  Biso   1.000  C
  H4       1.0000 0.49090  0.45840  0.57440  Biso   1.000  H
  C7       1.0000 0.65250  0.37310  0.90400  Biso   1.000  C
  H5       1.0000 0.63950  0.45870  0.88430  Biso   1.000  H
  C8       1.0000 0.10640  0.17390  0.77690  Biso   1.000  C
  H6       1.0000 0.05160  0.04900  0.77660  Biso   1.000  H
  C9       1.0000 0.98810  0.68700  0.59670  Biso   1.000  C
  C10      1.0000 0.85060  0.77520  0.26620  Biso   1.000  C
  C11      1.0000 0.89130  0.74870  0.20220  Biso   1.000  C
  H7       1.0000 0.99870  0.74930  0.19820  Biso   1.000  H
  C12      1.0000 0.81610  0.70680  0.07650  Biso   1.000  C
  C13      1.0000 0.20430  0.21120  0.98850  Biso   1.000  C
  H8       1.0000 0.16680  0.28070  0.96710  Biso   1.000  H
  C14      1.0000 0.95930  0.14170  0.65820  Biso   1.000  C
  H9       1.0000 0.89410  0.01710  0.65410  Biso   1.000  H
  H10      1.0000 0.98210  0.17070  0.61420  Biso   1.000  H
  C15      1.0000 0.84310  0.36750  0.46130  Biso   1.000  C
  H11      1.0000 0.95090  0.39310  0.48750  Biso   1.000  H
  C16      1.0000 0.94720  0.19020  0.16290  Biso   1.000  C
  H12      1.0000 0.96180  0.19530  0.11650  Biso   1.000  H
  H13      1.0000 0.87970  0.06970  0.16730  Biso   1.000  H
  C17      1.0000 0.13350  0.20900  0.70550  Biso   1.000  C
  H14      1.0000 0.20240  0.33230  0.70630  Biso   1.000  H
  H15      1.0000 0.20130  0.15490  0.68920  Biso   1.000  H
  C18      1.0000 0.66840  0.14710  0.63780  Biso   1.000  C
  C19      1.0000 0.77140  0.72200  0.14610  Biso   1.000  C
  C20      1.0000 0.71050  0.19980  0.44670  Biso   1.000  C
  H16      1.0000 0.72770  0.11290  0.46350  Biso   1.000  H
  C21      1.0000 0.84220  0.28060  0.18000  Biso   1.000  C
  H17      1.0000 0.89980  0.39740  0.16880  Biso   1.000  H
  C22      1.0000 0.98520  0.81170  0.32820  Biso   1.000  C
  C23      1.0000 0.65080  0.18320  0.14170  Biso   1.000  C
  C24      1.0000 0.83280  0.29140  0.25460  Biso   1.000  C
  H18      1.0000 0.77480  0.36030  0.26570  Biso   1.000  H
  H19      1.0000 0.76080  0.17650  0.26430  Biso   1.000  H
  C25      1.0000 0.30060  0.35490  0.32480  Biso   1.000  C
  C26      1.0000 0.68720  0.12140  0.96070  Biso   1.000  C
  H20      1.0000 0.70030  0.03740  0.98160  Biso   1.000  H
  C27      1.0000 0.36280  0.28340  0.03250  Biso   1.000  C
  H21      1.0000 0.43540  0.40230  0.03990  Biso   1.000  H
  C28      1.0000 0.29570  0.00250  0.05240  Biso   1.000  C
  H22      1.0000 0.32320  0.93100  0.07680  Biso   1.000  H
  C29      1.0000 0.55210  0.16130  0.40710  Biso   1.000  C
  H23      1.0000 0.46220  0.04750  0.39670  Biso   1.000  H
  C30      1.0000 0.01670  0.37090  0.29840  Biso   1.000  C
  H24      1.0000 0.08570  0.48960  0.29200  Biso   1.000  H
  H25      1.0000 0.00410  0.37080  0.34520  Biso   1.000  H
  C31      1.0000 0.13420  0.26660  0.20730  Biso   1.000  C
  H26      1.0000 0.19060  0.19620  0.19620  Biso   1.000  H
  H27      1.0000 0.20900  0.38240  0.19900  Biso   1.000  H
  C32      1.0000 0.15400  0.13230  0.48320  Biso   1.000  C
  H28      1.0000 0.05380  0.10570  0.45180  Biso   1.000  H
  C33      1.0000 0.52090  0.20550  0.88580  Biso   1.000  C
  C34      1.0000 0.81570  0.29330  0.97650  Biso   1.000  C
  H29      1.0000 0.91730  0.32200  0.00750  Biso   1.000  H
  C35      1.0000 0.98550  0.23910  0.80210  Biso   1.000  C
  H30      1.0000 0.04770  0.36430  0.80980  Biso   1.000  H
  H31      1.0000 0.95890  0.20140  0.84460  Biso   1.000  H
  C36      1.0000 0.54030  0.07880  0.91330  Biso   1.000  C
  H32      1.0000 0.45450  0.96400  0.90000  Biso   1.000  H
  C37      1.0000 0.66550  0.45700  0.39970  Biso   1.000  C
  H33      1.0000 0.65030  0.54540  0.38330  Biso   1.000  H
  C38      1.0000 0.80960  0.17640  0.75330  Biso   1.000  C
  H34      1.0000 0.73880  0.05250  0.75000  Biso   1.000  H
  H35      1.0000 0.74210  0.23030  0.77010  Biso   1.000  H
  C39      1.0000 0.84730  0.22160  0.68460  Biso   1.000  C
  H36      1.0000 0.91090  0.34720  0.68710  Biso   1.000  H
  C40      1.0000 0.50070  0.69210  0.74210  Biso   1.000  C
  C41      1.0000 0.10060  0.03270  0.97650  Biso   1.000  C
  H37      1.0000 0.99500  0.98380  0.94570  Biso   1.000  H
  C42      1.0000 0.69290  0.77780  0.27200  Biso   1.000  C
  H38      1.0000 0.66900  0.80000  0.31430  Biso   1.000  H
  C43      1.0000 0.56890  0.74740  0.21530  Biso   1.000  C
  C44      1.0000 0.61270  0.72530  0.15220  Biso   1.000  C
  H39      1.0000 0.53470  0.71260  0.11390  Biso   1.000  H
  C45      1.0000 0.41430  0.18050  0.06540  Biso   1.000  C
  C46      1.0000 0.52550  0.28870  0.38300  Biso   1.000  C
  C47      1.0000 0.32970  0.04280  0.54310  Biso   1.000  C
  H40      1.0000 0.35270  0.95390  0.55400  Biso   1.000  H
  C48      1.0000 0.28670  0.25960  0.82430  Biso   1.000  C
  C49      1.0000 0.08180  0.69230  0.66470  Biso   1.000  C
  C50      1.0000 0.24100  0.68880  0.67200  Biso   1.000  C
  H41      1.0000 0.29040  0.67950  0.63430  Biso   1.000  H
  C51      1.0000 0.45050  0.21080  0.57300  Biso   1.000  C
  C52      1.0000 0.40180  0.75600  0.21960  Biso   1.000  C
  C53      1.0000 0.11350  0.27070  0.28090  Biso   1.000  C
  H42      1.0000 0.04550  0.15230  0.28940  Biso   1.000  H
  C54      1.0000 0.08490  0.70210  0.78530  Biso   1.000  C
  N1       1.0000 0.58440  0.25890  0.10770  Biso   1.000  N
  N2       1.0000 0.80090  0.41880  0.94960  Biso   1.000  N
  N3       1.0000 0.18430  0.00320  0.50020  Biso   1.000  N
  N4       1.0000 0.60650  0.25300  0.61810  Biso   1.000  N
  H43      1.0000 0.67000  0.36020  0.63510  Biso   1.000  H
  N5       1.0000 0.36230  0.24560  0.34250  Biso   1.000  N
  H44      1.0000 0.29440  0.13790  0.32720  Biso   1.000  H
  N6       1.0000 0.82030  0.49640  0.43830  Biso   1.000  N
  N7       1.0000 0.36200  0.15670  0.83910  Biso   1.000  N
  H45      1.0000 0.30840  0.05230  0.81820  Biso   1.000  H
  N8       1.0000 0.14690  0.93060  0.00730  Biso   1.000  N
  O1       1.0000 0.59980  0.76420  0.80340  Biso   1.000  O
  H46      1.0000 0.54700  0.79980  0.82640  Biso   1.000  H
  O2       1.0000 0.54840  0.63050  0.69940  Biso   1.000  O
  O3       1.0000 0.19440  0.59150  0.02890  Biso   1.000  O
  O4       1.0000 0.07950  0.70100  0.55070  Biso   1.000  O
  O5       1.0000 0.38200  0.51080  0.34250  Biso   1.000  O
  O6       1.0000 0.92550  0.79550  0.38260  Biso   1.000  O
  O7       1.0000 0.92750  0.64980  0.07160  Biso   1.000  O
  O8       1.0000 0.57800  0.99070  0.62090  Biso   1.000  O
  O9       1.0000 0.35770  0.41290  0.84590  Biso   1.000  O
  O10      1.0000 0.74680  0.74640  0.03130  Biso   1.000  O
  O11      1.0000 0.83340  0.66580  0.58980  Biso   1.000  O
  O12      1.0000 0.27320  0.69790  0.17430  Biso   1.000  O
  O13      1.0000 0.87680  0.73630  0.84460  Biso   1.000  O
  O14      1.0000 0.14350  0.85570  0.32350  Biso   1.000  O
  O15      1.0000 0.07740  0.67790  0.89860  Biso   1.000  O
  O16      1.0000 0.40070  0.83150  0.27890  Biso   1.000  O
  H47      1.0000 0.49640  0.86320  0.30350  Biso   1.000  H
  O17      1.0000 0.54100  0.05400  0.16680  Biso   1.000  O
  Cu1      1.0000 0.99345  0.66665  0.98300  Biso   1.000  Cu
  Cu2      1.0000 0.01609  0.74772  0.46476  Biso   1.000  Cu
  O18      1.0000 0.25980  0.69190  0.43980  Biso   1.000  O
  H48      1.0000 0.34120  0.73070  0.47420  Biso   1.000  H
  H49      1.0000 0.30180  0.74250  0.40740  Biso   1.000  H
  O19      1.0000 0.59890  0.77090  0.51760  Biso   1.000  O
  O20      1.0000 0.44800  0.68160  0.95330  Biso   1.000  O
  H50      1.0000 0.42000  0.59390  0.92430  Biso   1.000  H
  H51      1.0000 0.54940  0.70910  0.97590  Biso   1.000  H
  H52      1.0000 0.67290  0.74250  0.53700  Biso   1.000  H
  H53      1.0000 0.58800  0.83950  0.54870  Biso   1.000  H
  H54      1.0000 0.25290  0.64130  0.06750  Biso   1.000  H
  H55      1.0000 0.23150  0.61600  0.99280  Biso   1.000  H
  O21      1.0000 0.60100  0.01800  0.11380  Biso   1.000  O
