data_image0
_cell_length_a       15.9732
_cell_length_b       10.8896
_cell_length_c       28.4659
_cell_angle_alpha    90
_cell_angle_beta     94.716
_cell_angle_gamma    90

_symmetry_space_group_name_H-M    "P 1"
_symmetry_int_tables_number       1

loop_
  _symmetry_equiv_pos_as_xyz
  'x, y, z'

loop_
  _atom_site_label
  _atom_site_occupancy
  _atom_site_fract_x
  _atom_site_fract_y
  _atom_site_fract_z
  _atom_site_thermal_displace_type
  _atom_site_B_iso_or_equiv
  _atom_site_type_symbol
  Cu1      1.0000 0.25000  0.25000  0.00000  Biso   1.000  Cu
  Cu2      1.0000 0.75000  0.25000  0.50000  Biso   1.000  Cu
  Cu3      1.0000 0.75000  0.75000  0.00000  Biso   1.000  Cu
  Cu4      1.0000 0.25000  0.75000  0.50000  Biso   1.000  Cu
  O1       1.0000 0.16847  0.19285  0.95039  Biso   1.000  O
  O2       1.0000 0.83153  0.19285  0.54961  Biso   1.000  O
  O3       1.0000 0.66847  0.69285  0.95039  Biso   1.000  O
  O4       1.0000 0.33153  0.69285  0.54961  Biso   1.000  O
  O5       1.0000 0.83153  0.80715  0.04961  Biso   1.000  O
  O6       1.0000 0.16847  0.80715  0.45039  Biso   1.000  O
  O7       1.0000 0.33153  0.30715  0.04961  Biso   1.000  O
  O8       1.0000 0.66847  0.30715  0.45039  Biso   1.000  O
  N1       1.0000 0.86790  0.68720  0.49971  Biso   1.000  N
  N2       1.0000 0.13210  0.68720  0.00029  Biso   1.000  N
  N3       1.0000 0.36790  0.18720  0.49971  Biso   1.000  N
  N4       1.0000 0.63210  0.18720  0.00029  Biso   1.000  N
  N5       1.0000 0.13210  0.31280  0.50029  Biso   1.000  N
  N6       1.0000 0.86790  0.31280  0.99971  Biso   1.000  N
  N7       1.0000 0.63210  0.81280  0.50029  Biso   1.000  N
  N8       1.0000 0.36790  0.81280  0.99971  Biso   1.000  N
  C1       1.0000 0.20513  0.84720  0.91597  Biso   1.000  C
  C2       1.0000 0.79487  0.84720  0.58403  Biso   1.000  C
  C3       1.0000 0.70513  0.34720  0.91597  Biso   1.000  C
  C4       1.0000 0.29487  0.34720  0.58403  Biso   1.000  C
  C5       1.0000 0.79487  0.15280  0.08403  Biso   1.000  C
  C6       1.0000 0.20513  0.15280  0.41597  Biso   1.000  C
  C7       1.0000 0.29487  0.65280  0.08403  Biso   1.000  C
  C8       1.0000 0.70513  0.65280  0.41597  Biso   1.000  C
  Cu5      1.0000 0.75000  0.75000  0.50000  Biso   1.000  Cu
  Cu6      1.0000 0.25000  0.75000  0.00000  Biso   1.000  Cu
  Cu7      1.0000 0.25000  0.25000  0.50000  Biso   1.000  Cu
  Cu8      1.0000 0.75000  0.25000  0.00000  Biso   1.000  Cu
  O9       1.0000 0.28460  0.10309  0.93188  Biso   1.000  O
  O10      1.0000 0.71540  0.10309  0.56812  Biso   1.000  O
  O11      1.0000 0.78460  0.60309  0.93188  Biso   1.000  O
  O12      1.0000 0.21540  0.60309  0.56812  Biso   1.000  O
  O13      1.0000 0.71540  0.89691  0.06812  Biso   1.000  O
  O14      1.0000 0.28460  0.89691  0.43188  Biso   1.000  O
  O15      1.0000 0.21540  0.39691  0.06812  Biso   1.000  O
  O16      1.0000 0.78460  0.39691  0.43188  Biso   1.000  O
  N9       1.0000 0.04610  0.59740  0.58331  Biso   1.000  N
  N10      1.0000 0.95390  0.59740  0.91669  Biso   1.000  N
  N11      1.0000 0.54610  0.09740  0.58331  Biso   1.000  N
  N12      1.0000 0.45390  0.09740  0.91669  Biso   1.000  N
  N13      1.0000 0.95390  0.40260  0.41669  Biso   1.000  N
  N14      1.0000 0.04610  0.40260  0.08331  Biso   1.000  N
  N15      1.0000 0.45390  0.90260  0.41669  Biso   1.000  N
  N16      1.0000 0.54610  0.90260  0.08331  Biso   1.000  N
  H1       1.0000 0.09940  0.60660  0.58230  Biso   1.000  H
  H2       1.0000 0.90060  0.60660  0.91770  Biso   1.000  H
  H3       1.0000 0.59940  0.10660  0.58230  Biso   1.000  H
  H4       1.0000 0.40060  0.10660  0.91770  Biso   1.000  H
  H5       1.0000 0.90060  0.39340  0.41770  Biso   1.000  H
  H6       1.0000 0.09940  0.39340  0.08230  Biso   1.000  H
  H7       1.0000 0.40060  0.89340  0.41770  Biso   1.000  H
  H8       1.0000 0.59940  0.89340  0.08230  Biso   1.000  H
  C9       1.0000 0.16045  0.93110  0.88000  Biso   1.000  C
  C10      1.0000 0.83955  0.93110  0.62000  Biso   1.000  C
  C11      1.0000 0.66045  0.43110  0.88000  Biso   1.000  C
  C12      1.0000 0.33955  0.43110  0.62000  Biso   1.000  C
  C13      1.0000 0.83955  0.06890  0.12000  Biso   1.000  C
  C14      1.0000 0.16045  0.06890  0.38000  Biso   1.000  C
  C15      1.0000 0.33955  0.56890  0.12000  Biso   1.000  C
  C16      1.0000 0.66045  0.56890  0.38000  Biso   1.000  C
  N17      1.0000 0.29266  0.38030  0.95583  Biso   1.000  N
  N18      1.0000 0.70734  0.38030  0.54417  Biso   1.000  N
  N19      1.0000 0.79266  0.88030  0.95583  Biso   1.000  N
  N20      1.0000 0.20734  0.88030  0.54417  Biso   1.000  N
  N21      1.0000 0.70734  0.61970  0.04417  Biso   1.000  N
  N22      1.0000 0.29266  0.61970  0.45583  Biso   1.000  N
  N23      1.0000 0.20734  0.11970  0.04417  Biso   1.000  N
  N24      1.0000 0.79266  0.11970  0.45583  Biso   1.000  N
  O17      1.0000 0.20349  0.88100  0.95887  Biso   1.000  O
  O18      1.0000 0.79651  0.88100  0.54113  Biso   1.000  O
  O19      1.0000 0.70349  0.38100  0.95887  Biso   1.000  O
  O20      1.0000 0.29651  0.38100  0.54113  Biso   1.000  O
  O21      1.0000 0.79651  0.11900  0.04113  Biso   1.000  O
  O22      1.0000 0.20349  0.11900  0.45887  Biso   1.000  O
  O23      1.0000 0.29651  0.61900  0.04113  Biso   1.000  O
  O24      1.0000 0.70349  0.61900  0.45887  Biso   1.000  O
  C17      1.0000 0.11550  0.87710  0.84135  Biso   1.000  C
  C18      1.0000 0.88450  0.87710  0.65865  Biso   1.000  C
  C19      1.0000 0.61550  0.37710  0.84135  Biso   1.000  C
  C20      1.0000 0.38450  0.37710  0.65865  Biso   1.000  C
  C21      1.0000 0.88450  0.12290  0.15865  Biso   1.000  C
  C22      1.0000 0.11550  0.12290  0.34135  Biso   1.000  C
  C23      1.0000 0.38450  0.62290  0.15865  Biso   1.000  C
  C24      1.0000 0.61550  0.62290  0.34135  Biso   1.000  C
  H9       1.0000 0.11740  0.79260  0.83700  Biso   1.000  H
  H10      1.0000 0.88260  0.79260  0.66300  Biso   1.000  H
  H11      1.0000 0.61740  0.29260  0.83700  Biso   1.000  H
  H12      1.0000 0.38260  0.29260  0.66300  Biso   1.000  H
  H13      1.0000 0.88260  0.20740  0.16300  Biso   1.000  H
  H14      1.0000 0.11740  0.20740  0.33700  Biso   1.000  H
  H15      1.0000 0.38260  0.70740  0.16300  Biso   1.000  H
  H16      1.0000 0.61740  0.70740  0.33700  Biso   1.000  H
  N25      1.0000 0.22241  0.50340  0.84038  Biso   1.000  N
  N26      1.0000 0.77759  0.50340  0.65962  Biso   1.000  N
  N27      1.0000 0.72241  0.00340  0.84038  Biso   1.000  N
  N28      1.0000 0.27759  0.00340  0.65962  Biso   1.000  N
  N29      1.0000 0.77759  0.49660  0.15962  Biso   1.000  N
  N30      1.0000 0.22241  0.49660  0.34038  Biso   1.000  N
  N31      1.0000 0.27759  0.99660  0.15962  Biso   1.000  N
  N32      1.0000 0.72241  0.99660  0.34038  Biso   1.000  N
  H17      1.0000 0.17000  0.50700  0.84510  Biso   1.000  H
  H18      1.0000 0.83000  0.50700  0.65490  Biso   1.000  H
  H19      1.0000 0.67000  0.00700  0.84510  Biso   1.000  H
  H20      1.0000 0.33000  0.00700  0.65490  Biso   1.000  H
  H21      1.0000 0.83000  0.49300  0.15490  Biso   1.000  H
  H22      1.0000 0.17000  0.49300  0.34510  Biso   1.000  H
  H23      1.0000 0.33000  0.99300  0.15490  Biso   1.000  H
  H24      1.0000 0.67000  0.99300  0.34510  Biso   1.000  H
  O25      1.0000 0.23640  0.75090  0.90353  Biso   1.000  O
  O26      1.0000 0.76360  0.75090  0.59647  Biso   1.000  O
  O27      1.0000 0.73640  0.25090  0.90353  Biso   1.000  O
  O28      1.0000 0.26360  0.25090  0.59647  Biso   1.000  O
  O29      1.0000 0.76360  0.24910  0.09647  Biso   1.000  O
  O30      1.0000 0.23640  0.24910  0.40353  Biso   1.000  O
  O31      1.0000 0.26360  0.74910  0.09647  Biso   1.000  O
  O32      1.0000 0.73640  0.74910  0.40353  Biso   1.000  O
  C25      1.0000 0.06820  0.94980  0.80958  Biso   1.000  C
  C26      1.0000 0.93180  0.94980  0.69042  Biso   1.000  C
  C27      1.0000 0.56820  0.44980  0.80958  Biso   1.000  C
  C28      1.0000 0.43180  0.44980  0.69042  Biso   1.000  C
  C29      1.0000 0.93180  0.05020  0.19042  Biso   1.000  C
  C30      1.0000 0.06820  0.05020  0.30958  Biso   1.000  C
  C31      1.0000 0.43180  0.55020  0.19042  Biso   1.000  C
  C32      1.0000 0.56820  0.55020  0.30958  Biso   1.000  C
  H25      1.0000 0.03830  0.91350  0.78380  Biso   1.000  H
  H26      1.0000 0.96170  0.91350  0.71620  Biso   1.000  H
  H27      1.0000 0.53830  0.41350  0.78380  Biso   1.000  H
  H28      1.0000 0.46170  0.41350  0.71620  Biso   1.000  H
  H29      1.0000 0.96170  0.08650  0.21620  Biso   1.000  H
  H30      1.0000 0.03830  0.08650  0.28380  Biso   1.000  H
  H31      1.0000 0.46170  0.58650  0.21620  Biso   1.000  H
  H32      1.0000 0.53830  0.58650  0.28380  Biso   1.000  H
  O33      1.0000 0.31180  0.48700  0.78390  Biso   1.000  O
  O34      1.0000 0.68820  0.48700  0.71610  Biso   1.000  O
  O35      1.0000 0.81180  0.98700  0.78390  Biso   1.000  O
  O36      1.0000 0.18820  0.98700  0.71610  Biso   1.000  O
  O37      1.0000 0.68820  0.51300  0.21610  Biso   1.000  O
  O38      1.0000 0.31180  0.51300  0.28390  Biso   1.000  O
  O39      1.0000 0.18820  0.01300  0.21610  Biso   1.000  O
  O40      1.0000 0.81180  0.01300  0.28390  Biso   1.000  O
  C33      1.0000 0.06450  0.07350  0.81537  Biso   1.000  C
  C34      1.0000 0.93550  0.07350  0.68463  Biso   1.000  C
  C35      1.0000 0.56450  0.57350  0.81537  Biso   1.000  C
  C36      1.0000 0.43550  0.57350  0.68463  Biso   1.000  C
  C37      1.0000 0.93550  0.92650  0.18463  Biso   1.000  C
  C38      1.0000 0.06450  0.92650  0.31537  Biso   1.000  C
  C39      1.0000 0.43550  0.42650  0.18463  Biso   1.000  C
  C40      1.0000 0.56450  0.42650  0.31537  Biso   1.000  C
  H33      1.0000 0.03210  0.12100  0.79360  Biso   1.000  H
  H34      1.0000 0.96790  0.12100  0.70640  Biso   1.000  H
  H35      1.0000 0.53210  0.62100  0.79360  Biso   1.000  H
  H36      1.0000 0.46790  0.62100  0.70640  Biso   1.000  H
  H37      1.0000 0.96790  0.87900  0.20640  Biso   1.000  H
  H38      1.0000 0.03210  0.87900  0.29360  Biso   1.000  H
  H39      1.0000 0.46790  0.37900  0.20640  Biso   1.000  H
  H40      1.0000 0.53210  0.37900  0.29360  Biso   1.000  H
  O41      1.0000 0.94843  0.53220  0.63103  Biso   1.000  O
  O42      1.0000 0.05157  0.53220  0.86897  Biso   1.000  O
  O43      1.0000 0.44843  0.03220  0.63103  Biso   1.000  O
  O44      1.0000 0.55157  0.03220  0.86897  Biso   1.000  O
  O45      1.0000 0.05157  0.46780  0.36897  Biso   1.000  O
  O46      1.0000 0.94843  0.46780  0.13103  Biso   1.000  O
  O47      1.0000 0.55157  0.96780  0.36897  Biso   1.000  O
  O48      1.0000 0.44843  0.96780  0.13103  Biso   1.000  O
  C41      1.0000 0.10850  0.12900  0.85318  Biso   1.000  C
  C42      1.0000 0.89150  0.12900  0.64682  Biso   1.000  C
  C43      1.0000 0.60850  0.62900  0.85318  Biso   1.000  C
  C44      1.0000 0.39150  0.62900  0.64682  Biso   1.000  C
  C45      1.0000 0.89150  0.87100  0.14682  Biso   1.000  C
  C46      1.0000 0.10850  0.87100  0.35318  Biso   1.000  C
  C47      1.0000 0.39150  0.37100  0.14682  Biso   1.000  C
  C48      1.0000 0.60850  0.37100  0.35318  Biso   1.000  C
  H41      1.0000 0.10560  0.21360  0.85720  Biso   1.000  H
  H42      1.0000 0.89440  0.21360  0.64280  Biso   1.000  H
  H43      1.0000 0.60560  0.71360  0.85720  Biso   1.000  H
  H44      1.0000 0.39440  0.71360  0.64280  Biso   1.000  H
  H45      1.0000 0.89440  0.78640  0.14280  Biso   1.000  H
  H46      1.0000 0.10560  0.78640  0.35720  Biso   1.000  H
  H47      1.0000 0.39440  0.28640  0.14280  Biso   1.000  H
  H48      1.0000 0.60560  0.28640  0.35720  Biso   1.000  H
  C49      1.0000 0.15761  0.05710  0.88556  Biso   1.000  C
  C50      1.0000 0.84239  0.05710  0.61444  Biso   1.000  C
  C51      1.0000 0.65761  0.55710  0.88556  Biso   1.000  C
  C52      1.0000 0.34239  0.55710  0.61444  Biso   1.000  C
  C53      1.0000 0.84239  0.94290  0.11444  Biso   1.000  C
  C54      1.0000 0.15761  0.94290  0.38556  Biso   1.000  C
  C55      1.0000 0.34239  0.44290  0.11444  Biso   1.000  C
  C56      1.0000 0.65761  0.44290  0.38556  Biso   1.000  C
  C57      1.0000 0.20817  0.11920  0.92524  Biso   1.000  C
  C58      1.0000 0.79183  0.11920  0.57476  Biso   1.000  C
  C59      1.0000 0.70817  0.61920  0.92524  Biso   1.000  C
  C60      1.0000 0.29183  0.61920  0.57476  Biso   1.000  C
  C61      1.0000 0.79183  0.88080  0.07476  Biso   1.000  C
  C62      1.0000 0.20817  0.88080  0.42524  Biso   1.000  C
  C63      1.0000 0.29183  0.38080  0.07476  Biso   1.000  C
  C64      1.0000 0.70817  0.38080  0.42524  Biso   1.000  C
  C65      1.0000 0.90745  0.70060  0.46071  Biso   1.000  C
  C66      1.0000 0.09255  0.70060  0.03929  Biso   1.000  C
  C67      1.0000 0.40745  0.20060  0.46071  Biso   1.000  C
  C68      1.0000 0.59255  0.20060  0.03929  Biso   1.000  C
  C69      1.0000 0.09255  0.29940  0.53929  Biso   1.000  C
  C70      1.0000 0.90745  0.29940  0.96071  Biso   1.000  C
  C71      1.0000 0.59255  0.79940  0.53929  Biso   1.000  C
  C72      1.0000 0.40745  0.79940  0.96071  Biso   1.000  C
  H49      1.0000 0.87680  0.72430  0.43300  Biso   1.000  H
  H50      1.0000 0.12320  0.72430  0.06700  Biso   1.000  H
  H51      1.0000 0.37680  0.22430  0.43300  Biso   1.000  H
  H52      1.0000 0.62320  0.22430  0.06700  Biso   1.000  H
  H53      1.0000 0.12320  0.27570  0.56700  Biso   1.000  H
  H54      1.0000 0.87680  0.27570  0.93300  Biso   1.000  H
  H55      1.0000 0.62320  0.77570  0.56700  Biso   1.000  H
  H56      1.0000 0.37680  0.77570  0.93300  Biso   1.000  H
  C73      1.0000 0.99246  0.68030  0.46022  Biso   1.000  C
  C74      1.0000 0.00754  0.68030  0.03978  Biso   1.000  C
  C75      1.0000 0.49246  0.18030  0.46022  Biso   1.000  C
  C76      1.0000 0.50754  0.18030  0.03978  Biso   1.000  C
  C77      1.0000 0.00754  0.31970  0.53978  Biso   1.000  C
  C78      1.0000 0.99246  0.31970  0.96022  Biso   1.000  C
  C79      1.0000 0.50754  0.81970  0.53978  Biso   1.000  C
  C80      1.0000 0.49246  0.81970  0.96022  Biso   1.000  C
  H57      1.0000 0.01900  0.69120  0.43260  Biso   1.000  H
  H58      1.0000 0.98100  0.69120  0.06740  Biso   1.000  H
  H59      1.0000 0.51900  0.19120  0.43260  Biso   1.000  H
  H60      1.0000 0.48100  0.19120  0.06740  Biso   1.000  H
  H61      1.0000 0.98100  0.30880  0.56740  Biso   1.000  H
  H62      1.0000 0.01900  0.30880  0.93260  Biso   1.000  H
  H63      1.0000 0.48100  0.80880  0.56740  Biso   1.000  H
  H64      1.0000 0.51900  0.80880  0.93260  Biso   1.000  H
  C81      1.0000 0.03765  0.64370  0.50099  Biso   1.000  C
  C82      1.0000 0.96235  0.64370  0.99901  Biso   1.000  C
  C83      1.0000 0.53765  0.14370  0.50099  Biso   1.000  C
  C84      1.0000 0.46235  0.14370  0.99901  Biso   1.000  C
  C85      1.0000 0.96235  0.35630  0.49901  Biso   1.000  C
  C86      1.0000 0.03765  0.35630  0.00099  Biso   1.000  C
  C87      1.0000 0.46235  0.85630  0.49901  Biso   1.000  C
  C88      1.0000 0.53765  0.85630  0.00099  Biso   1.000  C
  H65      1.0000 0.09500  0.62840  0.50110  Biso   1.000  H
  H66      1.0000 0.90500  0.62840  0.99890  Biso   1.000  H
  H67      1.0000 0.59500  0.12840  0.50110  Biso   1.000  H
  H68      1.0000 0.40500  0.12840  0.99890  Biso   1.000  H
  H69      1.0000 0.90500  0.37160  0.49890  Biso   1.000  H
  H70      1.0000 0.09500  0.37160  0.00110  Biso   1.000  H
  H71      1.0000 0.40500  0.87160  0.49890  Biso   1.000  H
  H72      1.0000 0.59500  0.87160  0.00110  Biso   1.000  H
  C89      1.0000 0.99704  0.62970  0.54189  Biso   1.000  C
  C90      1.0000 0.00296  0.62970  0.95811  Biso   1.000  C
  C91      1.0000 0.49704  0.12970  0.54189  Biso   1.000  C
  C92      1.0000 0.50296  0.12970  0.95811  Biso   1.000  C
  C93      1.0000 0.00296  0.37030  0.45811  Biso   1.000  C
  C94      1.0000 0.99704  0.37030  0.04189  Biso   1.000  C
  C95      1.0000 0.50296  0.87030  0.45811  Biso   1.000  C
  C96      1.0000 0.49704  0.87030  0.04189  Biso   1.000  C
  C97      1.0000 0.91152  0.65160  0.53995  Biso   1.000  C
  C98      1.0000 0.08848  0.65160  0.96005  Biso   1.000  C
  C99      1.0000 0.41152  0.15160  0.53995  Biso   1.000  C
  C100     1.0000 0.58848  0.15160  0.96005  Biso   1.000  C
  C101     1.0000 0.08848  0.34840  0.46005  Biso   1.000  C
  C102     1.0000 0.91152  0.34840  0.03995  Biso   1.000  C
  C103     1.0000 0.58848  0.84840  0.46005  Biso   1.000  C
  C104     1.0000 0.41152  0.84840  0.03995  Biso   1.000  C
  H73      1.0000 0.88350  0.64160  0.56700  Biso   1.000  H
  H74      1.0000 0.11650  0.64160  0.93300  Biso   1.000  H
  H75      1.0000 0.38350  0.14160  0.56700  Biso   1.000  H
  H76      1.0000 0.61650  0.14160  0.93300  Biso   1.000  H
  H77      1.0000 0.11650  0.35840  0.43300  Biso   1.000  H
  H78      1.0000 0.88350  0.35840  0.06700  Biso   1.000  H
  H79      1.0000 0.61650  0.85840  0.43300  Biso   1.000  H
  H80      1.0000 0.38350  0.85840  0.06700  Biso   1.000  H
  C105     1.0000 0.02169  0.55400  0.62432  Biso   1.000  C
  C106     1.0000 0.97831  0.55400  0.87568  Biso   1.000  C
  C107     1.0000 0.52169  0.05400  0.62432  Biso   1.000  C
  C108     1.0000 0.47831  0.05400  0.87568  Biso   1.000  C
  C109     1.0000 0.97831  0.44600  0.37568  Biso   1.000  C
  C110     1.0000 0.02169  0.44600  0.12432  Biso   1.000  C
  C111     1.0000 0.47831  0.94600  0.37568  Biso   1.000  C
  C112     1.0000 0.52169  0.94600  0.12432  Biso   1.000  C
  C113     1.0000 0.09394  0.53700  0.66177  Biso   1.000  C
  C114     1.0000 0.90606  0.53700  0.83823  Biso   1.000  C
  C115     1.0000 0.59394  0.03700  0.66177  Biso   1.000  C
  C116     1.0000 0.40606  0.03700  0.83823  Biso   1.000  C
  C117     1.0000 0.90606  0.46300  0.33823  Biso   1.000  C
  C118     1.0000 0.09394  0.46300  0.16177  Biso   1.000  C
  C119     1.0000 0.40606  0.96300  0.33823  Biso   1.000  C
  C120     1.0000 0.59394  0.96300  0.16177  Biso   1.000  C
  H81      1.0000 0.14480  0.52030  0.64580  Biso   1.000  H
  H82      1.0000 0.85520  0.52030  0.85420  Biso   1.000  H
  H83      1.0000 0.64480  0.02030  0.64580  Biso   1.000  H
  H84      1.0000 0.35520  0.02030  0.85420  Biso   1.000  H
  H85      1.0000 0.85520  0.47970  0.35420  Biso   1.000  H
  H86      1.0000 0.14480  0.47970  0.14580  Biso   1.000  H
  H87      1.0000 0.35520  0.97970  0.35420  Biso   1.000  H
  H88      1.0000 0.64480  0.97970  0.14580  Biso   1.000  H
  C121     1.0000 0.08050  0.43070  0.69448  Biso   1.000  C
  C122     1.0000 0.91950  0.43070  0.80552  Biso   1.000  C
  C123     1.0000 0.58050  0.93070  0.69448  Biso   1.000  C
  C124     1.0000 0.41950  0.93070  0.80552  Biso   1.000  C
  C125     1.0000 0.91950  0.56930  0.30552  Biso   1.000  C
  C126     1.0000 0.08050  0.56930  0.19448  Biso   1.000  C
  C127     1.0000 0.41950  0.06930  0.30552  Biso   1.000  C
  C128     1.0000 0.58050  0.06930  0.19448  Biso   1.000  C
  H89      1.0000 0.07600  0.35490  0.67660  Biso   1.000  H
  H90      1.0000 0.92400  0.35490  0.82340  Biso   1.000  H
  H91      1.0000 0.57600  0.85490  0.67660  Biso   1.000  H
  H92      1.0000 0.42400  0.85490  0.82340  Biso   1.000  H
  H93      1.0000 0.92400  0.64510  0.32340  Biso   1.000  H
  H94      1.0000 0.07600  0.64510  0.17660  Biso   1.000  H
  H95      1.0000 0.42400  0.14510  0.32340  Biso   1.000  H
  H96      1.0000 0.57600  0.14510  0.17660  Biso   1.000  H
  H97      1.0000 0.02840  0.44250  0.70920  Biso   1.000  H
  H98      1.0000 0.97160  0.44250  0.79080  Biso   1.000  H
  H99      1.0000 0.52840  0.94250  0.70920  Biso   1.000  H
  H100     1.0000 0.47160  0.94250  0.79080  Biso   1.000  H
  H101     1.0000 0.97160  0.55750  0.29080  Biso   1.000  H
  H102     1.0000 0.02840  0.55750  0.20920  Biso   1.000  H
  H103     1.0000 0.47160  0.05750  0.29080  Biso   1.000  H
  H104     1.0000 0.52840  0.05750  0.20920  Biso   1.000  H
  C129     1.0000 0.15380  0.42150  0.73263  Biso   1.000  C
  C130     1.0000 0.84620  0.42150  0.76737  Biso   1.000  C
  C131     1.0000 0.65380  0.92150  0.73263  Biso   1.000  C
  C132     1.0000 0.34620  0.92150  0.76737  Biso   1.000  C
  C133     1.0000 0.84620  0.57850  0.26737  Biso   1.000  C
  C134     1.0000 0.15380  0.57850  0.23263  Biso   1.000  C
  C135     1.0000 0.34620  0.07850  0.26737  Biso   1.000  C
  C136     1.0000 0.65380  0.07850  0.23263  Biso   1.000  C
  H105     1.0000 0.14260  0.35580  0.75420  Biso   1.000  H
  H106     1.0000 0.85740  0.35580  0.74580  Biso   1.000  H
  H107     1.0000 0.64260  0.85580  0.75420  Biso   1.000  H
  H108     1.0000 0.35740  0.85580  0.74580  Biso   1.000  H
  H109     1.0000 0.85740  0.64420  0.24580  Biso   1.000  H
  H110     1.0000 0.14260  0.64420  0.25420  Biso   1.000  H
  H111     1.0000 0.35740  0.14420  0.24580  Biso   1.000  H
  H112     1.0000 0.64260  0.14420  0.25420  Biso   1.000  H
  H113     1.0000 0.20470  0.40100  0.71800  Biso   1.000  H
  H114     1.0000 0.79530  0.40100  0.78200  Biso   1.000  H
  H115     1.0000 0.70470  0.90100  0.71800  Biso   1.000  H
  H116     1.0000 0.29530  0.90100  0.78200  Biso   1.000  H
  H117     1.0000 0.79530  0.59900  0.28200  Biso   1.000  H
  H118     1.0000 0.20470  0.59900  0.21800  Biso   1.000  H
  H119     1.0000 0.29530  0.09900  0.28200  Biso   1.000  H
  H120     1.0000 0.70470  0.09900  0.21800  Biso   1.000  H
  C137     1.0000 0.16747  0.54000  0.76005  Biso   1.000  C
  C138     1.0000 0.83253  0.54000  0.73995  Biso   1.000  C
  C139     1.0000 0.66747  0.04000  0.76005  Biso   1.000  C
  C140     1.0000 0.33253  0.04000  0.73995  Biso   1.000  C
  C141     1.0000 0.83253  0.46000  0.23995  Biso   1.000  C
  C142     1.0000 0.16747  0.46000  0.26005  Biso   1.000  C
  C143     1.0000 0.33253  0.96000  0.23995  Biso   1.000  C
  C144     1.0000 0.66747  0.96000  0.26005  Biso   1.000  C
  H121     1.0000 0.11740  0.55710  0.77670  Biso   1.000  H
  H122     1.0000 0.88260  0.55710  0.72330  Biso   1.000  H
  H123     1.0000 0.61740  0.05710  0.77670  Biso   1.000  H
  H124     1.0000 0.38260  0.05710  0.72330  Biso   1.000  H
  H125     1.0000 0.88260  0.44290  0.22330  Biso   1.000  H
  H126     1.0000 0.11740  0.44290  0.27670  Biso   1.000  H
  H127     1.0000 0.38260  0.94290  0.22330  Biso   1.000  H
  H128     1.0000 0.61740  0.94290  0.27670  Biso   1.000  H
  C145     1.0000 0.18100  0.64510  0.72691  Biso   1.000  C
  C146     1.0000 0.81900  0.64510  0.77309  Biso   1.000  C
  C147     1.0000 0.68100  0.14510  0.72691  Biso   1.000  C
  C148     1.0000 0.31900  0.14510  0.77309  Biso   1.000  C
  C149     1.0000 0.81900  0.35490  0.27309  Biso   1.000  C
  C150     1.0000 0.18100  0.35490  0.22691  Biso   1.000  C
  C151     1.0000 0.31900  0.85490  0.27309  Biso   1.000  C
  C152     1.0000 0.68100  0.85490  0.22691  Biso   1.000  C
  H129     1.0000 0.23250  0.63170  0.71180  Biso   1.000  H
  H130     1.0000 0.76750  0.63170  0.78820  Biso   1.000  H
  H131     1.0000 0.73250  0.13170  0.71180  Biso   1.000  H
  H132     1.0000 0.26750  0.13170  0.78820  Biso   1.000  H
  H133     1.0000 0.76750  0.36830  0.28820  Biso   1.000  H
  H134     1.0000 0.23250  0.36830  0.21180  Biso   1.000  H
  H135     1.0000 0.26750  0.86830  0.28820  Biso   1.000  H
  H136     1.0000 0.73250  0.86830  0.21180  Biso   1.000  H
  H137     1.0000 0.18700  0.72100  0.74470  Biso   1.000  H
  H138     1.0000 0.81300  0.72100  0.75530  Biso   1.000  H
  H139     1.0000 0.68700  0.22100  0.74470  Biso   1.000  H
  H140     1.0000 0.31300  0.22100  0.75530  Biso   1.000  H
  H141     1.0000 0.81300  0.27900  0.25530  Biso   1.000  H
  H142     1.0000 0.18700  0.27900  0.24470  Biso   1.000  H
  H143     1.0000 0.31300  0.77900  0.25530  Biso   1.000  H
  H144     1.0000 0.68700  0.77900  0.24470  Biso   1.000  H
  C153     1.0000 0.10720  0.65710  0.68914  Biso   1.000  C
  C154     1.0000 0.89280  0.65710  0.81086  Biso   1.000  C
  C155     1.0000 0.60720  0.15710  0.68914  Biso   1.000  C
  C156     1.0000 0.39280  0.15710  0.81086  Biso   1.000  C
  C157     1.0000 0.89280  0.34290  0.31086  Biso   1.000  C
  C158     1.0000 0.10720  0.34290  0.18914  Biso   1.000  C
  C159     1.0000 0.39280  0.84290  0.31086  Biso   1.000  C
  C160     1.0000 0.60720  0.84290  0.18914  Biso   1.000  C
  H145     1.0000 0.05660  0.67770  0.70400  Biso   1.000  H
  H146     1.0000 0.94340  0.67770  0.79600  Biso   1.000  H
  H147     1.0000 0.55660  0.17770  0.70400  Biso   1.000  H
  H148     1.0000 0.44340  0.17770  0.79600  Biso   1.000  H
  H149     1.0000 0.94340  0.32230  0.29600  Biso   1.000  H
  H150     1.0000 0.05660  0.32230  0.20400  Biso   1.000  H
  H151     1.0000 0.44340  0.82230  0.29600  Biso   1.000  H
  H152     1.0000 0.55660  0.82230  0.20400  Biso   1.000  H
  H153     1.0000 0.11850  0.72280  0.66760  Biso   1.000  H
  H154     1.0000 0.88150  0.72280  0.83240  Biso   1.000  H
  H155     1.0000 0.61850  0.22280  0.66760  Biso   1.000  H
  H156     1.0000 0.38150  0.22280  0.83240  Biso   1.000  H
  H157     1.0000 0.88150  0.27720  0.33240  Biso   1.000  H
  H158     1.0000 0.11850  0.27720  0.16760  Biso   1.000  H
  H159     1.0000 0.38150  0.77720  0.33240  Biso   1.000  H
  H160     1.0000 0.61850  0.77720  0.16760  Biso   1.000  H
  C161     1.0000 0.37415  0.41360  0.95984  Biso   1.000  C
  C162     1.0000 0.62585  0.41360  0.54016  Biso   1.000  C
  C163     1.0000 0.87415  0.91360  0.95984  Biso   1.000  C
  C164     1.0000 0.12585  0.91360  0.54016  Biso   1.000  C
  C165     1.0000 0.62585  0.58640  0.04016  Biso   1.000  C
  C166     1.0000 0.37415  0.58640  0.45984  Biso   1.000  C
  C167     1.0000 0.12585  0.08640  0.04016  Biso   1.000  C
  C168     1.0000 0.87415  0.08640  0.45984  Biso   1.000  C
  H161     1.0000 0.40700  0.39420  0.98730  Biso   1.000  H
  H162     1.0000 0.59300  0.39420  0.51270  Biso   1.000  H
  H163     1.0000 0.90700  0.89420  0.98730  Biso   1.000  H
  H164     1.0000 0.09300  0.89420  0.51270  Biso   1.000  H
  H165     1.0000 0.59300  0.60580  0.01270  Biso   1.000  H
  H166     1.0000 0.40700  0.60580  0.48730  Biso   1.000  H
  H167     1.0000 0.09300  0.10580  0.01270  Biso   1.000  H
  H168     1.0000 0.90700  0.10580  0.48730  Biso   1.000  H
  C169     1.0000 0.41026  0.47510  0.92465  Biso   1.000  C
  C170     1.0000 0.58974  0.47510  0.57535  Biso   1.000  C
  C171     1.0000 0.91026  0.97510  0.92465  Biso   1.000  C
  C172     1.0000 0.08974  0.97510  0.57535  Biso   1.000  C
  C173     1.0000 0.58974  0.52490  0.07535  Biso   1.000  C
  C174     1.0000 0.41026  0.52490  0.42465  Biso   1.000  C
  C175     1.0000 0.08974  0.02490  0.07535  Biso   1.000  C
  C176     1.0000 0.91026  0.02490  0.42465  Biso   1.000  C
  H169     1.0000 0.46700  0.49510  0.92840  Biso   1.000  H
  H170     1.0000 0.53300  0.49510  0.57160  Biso   1.000  H
  H171     1.0000 0.96700  0.99510  0.92840  Biso   1.000  H
  H172     1.0000 0.03300  0.99510  0.57160  Biso   1.000  H
  H173     1.0000 0.53300  0.50490  0.07160  Biso   1.000  H
  H174     1.0000 0.46700  0.50490  0.42840  Biso   1.000  H
  H175     1.0000 0.03300  0.00490  0.07160  Biso   1.000  H
  H176     1.0000 0.96700  0.00490  0.42840  Biso   1.000  H
  C177     1.0000 0.36287  0.50760  0.88359  Biso   1.000  C
  C178     1.0000 0.63713  0.50760  0.61641  Biso   1.000  C
  C179     1.0000 0.86287  0.00760  0.88359  Biso   1.000  C
  C180     1.0000 0.13713  0.00760  0.61641  Biso   1.000  C
  C181     1.0000 0.63713  0.49240  0.11641  Biso   1.000  C
  C182     1.0000 0.36287  0.49240  0.38359  Biso   1.000  C
  C183     1.0000 0.13713  0.99240  0.11641  Biso   1.000  C
  C184     1.0000 0.86287  0.99240  0.38359  Biso   1.000  C
  H177     1.0000 0.38680  0.54900  0.85950  Biso   1.000  H
  H178     1.0000 0.61320  0.54900  0.64050  Biso   1.000  H
  H179     1.0000 0.88680  0.04900  0.85950  Biso   1.000  H
  H180     1.0000 0.11320  0.04900  0.64050  Biso   1.000  H
  H181     1.0000 0.61320  0.45100  0.14050  Biso   1.000  H
  H182     1.0000 0.38680  0.45100  0.35950  Biso   1.000  H
  H183     1.0000 0.11320  0.95100  0.14050  Biso   1.000  H
  H184     1.0000 0.88680  0.95100  0.35950  Biso   1.000  H
  C185     1.0000 0.27821  0.47610  0.87973  Biso   1.000  C
  C186     1.0000 0.72179  0.47610  0.62027  Biso   1.000  C
  C187     1.0000 0.77821  0.97610  0.87973  Biso   1.000  C
  C188     1.0000 0.22179  0.97610  0.62027  Biso   1.000  C
  C189     1.0000 0.72179  0.52390  0.12027  Biso   1.000  C
  C190     1.0000 0.27821  0.52390  0.37973  Biso   1.000  C
  C191     1.0000 0.22179  0.02390  0.12027  Biso   1.000  C
  C192     1.0000 0.77821  0.02390  0.37973  Biso   1.000  C
  C193     1.0000 0.24665  0.41360  0.91644  Biso   1.000  C
  C194     1.0000 0.75335  0.41360  0.58356  Biso   1.000  C
  C195     1.0000 0.74665  0.91360  0.91644  Biso   1.000  C
  C196     1.0000 0.25335  0.91360  0.58356  Biso   1.000  C
  C197     1.0000 0.75335  0.58640  0.08356  Biso   1.000  C
  C198     1.0000 0.24665  0.58640  0.41644  Biso   1.000  C
  C199     1.0000 0.25335  0.08640  0.08356  Biso   1.000  C
  C200     1.0000 0.74665  0.08640  0.41644  Biso   1.000  C
  H185     1.0000 0.18990  0.39320  0.91370  Biso   1.000  H
  H186     1.0000 0.81010  0.39320  0.58630  Biso   1.000  H
  H187     1.0000 0.68990  0.89320  0.91370  Biso   1.000  H
  H188     1.0000 0.31010  0.89320  0.58630  Biso   1.000  H
  H189     1.0000 0.81010  0.60680  0.08630  Biso   1.000  H
  H190     1.0000 0.18990  0.60680  0.41370  Biso   1.000  H
  H191     1.0000 0.31010  0.10680  0.08630  Biso   1.000  H
  H192     1.0000 0.68990  0.10680  0.41370  Biso   1.000  H
  C201     1.0000 0.24230  0.52440  0.79624  Biso   1.000  C
  C202     1.0000 0.75770  0.52440  0.70376  Biso   1.000  C
  C203     1.0000 0.74230  0.02440  0.79624  Biso   1.000  C
  C204     1.0000 0.25770  0.02440  0.70376  Biso   1.000  C
  C205     1.0000 0.75770  0.47560  0.20376  Biso   1.000  C
  C206     1.0000 0.24230  0.47560  0.29624  Biso   1.000  C
  C207     1.0000 0.25770  0.97560  0.20376  Biso   1.000  C
  C208     1.0000 0.74230  0.97560  0.29624  Biso   1.000  C
  O49      1.0000 0.68560  0.57000  0.71150  Biso   1.000  O
  O50      1.0000 0.31440  0.57000  0.78850  Biso   1.000  O
  O51      1.0000 0.18560  0.07000  0.71150  Biso   1.000  O
  O52      1.0000 0.81440  0.07000  0.78850  Biso   1.000  O
  O53      1.0000 0.31440  0.43000  0.28850  Biso   1.000  O
  O54      1.0000 0.68560  0.43000  0.21150  Biso   1.000  O
  O55      1.0000 0.81440  0.93000  0.28850  Biso   1.000  O
  O56      1.0000 0.18560  0.93000  0.21150  Biso   1.000  O
