data_image0
_cell_length_a       10.1841
_cell_length_b       8.8838
_cell_length_c       26.289
_cell_angle_alpha    90
_cell_angle_beta     91.837
_cell_angle_gamma    90

_symmetry_space_group_name_H-M    "P 1"
_symmetry_int_tables_number       1

loop_
  _symmetry_equiv_pos_as_xyz
  'x, y, z'

loop_
  _atom_site_label
  _atom_site_occupancy
  _atom_site_fract_x
  _atom_site_fract_y
  _atom_site_fract_z
  _atom_site_thermal_displace_type
  _atom_site_B_iso_or_equiv
  _atom_site_type_symbol
  Cu1      1.0000 0.56312  0.28963  0.90073  Biso   1.000  Cu
  Cu2      1.0000 0.43688  0.78963  0.59927  Biso   1.000  Cu
  Cu3      1.0000 0.43688  0.71037  0.09927  Biso   1.000  Cu
  Cu4      1.0000 0.56312  0.21037  0.40073  Biso   1.000  Cu
  C1       1.0000 0.26725  0.29600  0.88994  Biso   1.000  C
  C2       1.0000 0.73275  0.79600  0.61006  Biso   1.000  C
  C3       1.0000 0.73275  0.70400  0.11006  Biso   1.000  C
  C4       1.0000 0.26725  0.20400  0.38994  Biso   1.000  C
  O1       1.0000 0.37939  0.31620  0.91236  Biso   1.000  O
  O2       1.0000 0.62061  0.81620  0.58764  Biso   1.000  O
  O3       1.0000 0.62061  0.68380  0.08764  Biso   1.000  O
  O4       1.0000 0.37939  0.18380  0.41236  Biso   1.000  O
  N1       1.0000 0.55034  0.40710  0.83393  Biso   1.000  N
  N2       1.0000 0.44966  0.90710  0.66607  Biso   1.000  N
  N3       1.0000 0.44966  0.59290  0.16607  Biso   1.000  N
  N4       1.0000 0.55034  0.09290  0.33393  Biso   1.000  N
  O5       1.0000 0.24175  0.20290  0.85669  Biso   1.000  O
  O6       1.0000 0.75825  0.70290  0.64331  Biso   1.000  O
  O7       1.0000 0.75825  0.79710  0.14331  Biso   1.000  O
  O8       1.0000 0.24175  0.29710  0.35669  Biso   1.000  O
  N5       1.0000 0.76874  0.48330  0.72736  Biso   1.000  N
  N6       1.0000 0.23126  0.98330  0.77264  Biso   1.000  N
  N7       1.0000 0.23126  0.51670  0.27264  Biso   1.000  N
  N8       1.0000 0.76874  0.01670  0.22736  Biso   1.000  N
  H1       1.0000 0.76960  0.54810  0.70310  Biso   1.000  H
  H2       1.0000 0.23040  0.04810  0.79690  Biso   1.000  H
  H3       1.0000 0.23040  0.45190  0.29690  Biso   1.000  H
  H4       1.0000 0.76960  0.95190  0.20310  Biso   1.000  H
  C5       1.0000 0.16153  0.39980  0.90927  Biso   1.000  C
  C6       1.0000 0.83847  0.89980  0.59073  Biso   1.000  C
  C7       1.0000 0.83847  0.60020  0.09073  Biso   1.000  C
  C8       1.0000 0.16153  0.10020  0.40927  Biso   1.000  C
  O9       1.0000 0.75577  0.30061  0.89853  Biso   1.000  O
  O10      1.0000 0.24423  0.80061  0.60147  Biso   1.000  O
  O11      1.0000 0.24423  0.69939  0.10147  Biso   1.000  O
  O12      1.0000 0.75577  0.19939  0.39853  Biso   1.000  O
  N9       1.0000 0.40821  0.31280  0.59123  Biso   1.000  N
  N10      1.0000 0.59179  0.81280  0.90877  Biso   1.000  N
  N11      1.0000 0.59179  0.68720  0.40877  Biso   1.000  N
  N12      1.0000 0.40821  0.18720  0.09123  Biso   1.000  N
  H5       1.0000 0.37090  0.22600  0.58990  Biso   1.000  H
  H6       1.0000 0.62910  0.72600  0.91010  Biso   1.000  H
  H7       1.0000 0.62910  0.77400  0.41010  Biso   1.000  H
  H8       1.0000 0.37090  0.27400  0.08990  Biso   1.000  H
  C9       1.0000 0.19730  0.52710  0.93734  Biso   1.000  C
  C10      1.0000 0.80270  0.02710  0.56266  Biso   1.000  C
  C11      1.0000 0.80270  0.47290  0.06266  Biso   1.000  C
  C12      1.0000 0.19730  0.97290  0.43734  Biso   1.000  C
  H9       1.0000 0.28560  0.54770  0.94410  Biso   1.000  H
  H10      1.0000 0.71440  0.04770  0.55590  Biso   1.000  H
  H11      1.0000 0.71440  0.45230  0.05590  Biso   1.000  H
  H12      1.0000 0.28560  0.95230  0.44410  Biso   1.000  H
  O13      1.0000 0.70682  0.52717  0.92746  Biso   1.000  O
  O14      1.0000 0.29318  0.02717  0.57254  Biso   1.000  O
  O15      1.0000 0.29318  0.47283  0.07254  Biso   1.000  O
  O16      1.0000 0.70682  0.97283  0.42746  Biso   1.000  O
  N13      1.0000 0.58765  0.29710  0.47336  Biso   1.000  N
  N14      1.0000 0.41235  0.79710  0.02664  Biso   1.000  N
  N15      1.0000 0.41235  0.70290  0.52664  Biso   1.000  N
  N16      1.0000 0.58765  0.20290  0.97336  Biso   1.000  N
  C13      1.0000 0.10240  0.62280  0.95514  Biso   1.000  C
  C14      1.0000 0.89760  0.12280  0.54486  Biso   1.000  C
  C15      1.0000 0.89760  0.37720  0.04486  Biso   1.000  C
  C16      1.0000 0.10240  0.87720  0.45514  Biso   1.000  C
  H13      1.0000 0.12750  0.70890  0.97310  Biso   1.000  H
  H14      1.0000 0.87250  0.20890  0.52690  Biso   1.000  H
  H15      1.0000 0.87250  0.29110  0.02690  Biso   1.000  H
  H16      1.0000 0.12750  0.79110  0.47310  Biso   1.000  H
  C17      1.0000 0.97100  0.59210  0.94665  Biso   1.000  C
  C18      1.0000 0.02900  0.09210  0.55335  Biso   1.000  C
  C19      1.0000 0.02900  0.40790  0.05335  Biso   1.000  C
  C20      1.0000 0.97100  0.90790  0.44665  Biso   1.000  C
  H17      1.0000 0.90780  0.65650  0.95930  Biso   1.000  H
  H18      1.0000 0.09220  0.15650  0.54070  Biso   1.000  H
  H19      1.0000 0.09220  0.34350  0.04070  Biso   1.000  H
  H20      1.0000 0.90780  0.84350  0.45930  Biso   1.000  H
  O17      1.0000 0.86690  0.27120  0.75554  Biso   1.000  O
  O18      1.0000 0.13310  0.77120  0.74446  Biso   1.000  O
  O19      1.0000 0.13310  0.72880  0.24446  Biso   1.000  O
  O20      1.0000 0.86690  0.22880  0.25554  Biso   1.000  O
  O21      1.0000 0.41572  0.53639  0.63374  Biso   1.000  O
  O22      1.0000 0.58428  0.03639  0.86626  Biso   1.000  O
  O23      1.0000 0.58428  0.46361  0.36626  Biso   1.000  O
  O24      1.0000 0.41572  0.96361  0.13374  Biso   1.000  O
  C21      1.0000 0.93288  0.46510  0.91926  Biso   1.000  C
  C22      1.0000 0.06712  0.96510  0.58074  Biso   1.000  C
  C23      1.0000 0.06712  0.53490  0.08074  Biso   1.000  C
  C24      1.0000 0.93288  0.03490  0.41926  Biso   1.000  C
  C25      1.0000 0.78872  0.43060  0.91459  Biso   1.000  C
  C26      1.0000 0.21128  0.93060  0.58541  Biso   1.000  C
  C27      1.0000 0.21128  0.56940  0.08541  Biso   1.000  C
  C28      1.0000 0.78872  0.06940  0.41459  Biso   1.000  C
  C29      1.0000 0.02799  0.36980  0.89983  Biso   1.000  C
  C30      1.0000 0.97201  0.86980  0.60017  Biso   1.000  C
  C31      1.0000 0.97201  0.63020  0.10017  Biso   1.000  C
  C32      1.0000 0.02799  0.13020  0.39983  Biso   1.000  C
  H21      1.0000 0.00260  0.28630  0.88060  Biso   1.000  H
  H22      1.0000 0.99740  0.78630  0.61940  Biso   1.000  H
  H23      1.0000 0.99740  0.71370  0.11940  Biso   1.000  H
  H24      1.0000 0.00260  0.21370  0.38060  Biso   1.000  H
  C33      1.0000 0.46140  0.51600  0.82592  Biso   1.000  C
  C34      1.0000 0.53860  0.01600  0.67408  Biso   1.000  C
  C35      1.0000 0.53860  0.48400  0.17408  Biso   1.000  C
  C36      1.0000 0.46140  0.98400  0.32592  Biso   1.000  C
  H25      1.0000 0.39500  0.52800  0.84910  Biso   1.000  H
  H26      1.0000 0.60500  0.02800  0.65090  Biso   1.000  H
  H27      1.0000 0.60500  0.47200  0.15090  Biso   1.000  H
  H28      1.0000 0.39500  0.97200  0.34910  Biso   1.000  H
  C37      1.0000 0.46480  0.61130  0.78443  Biso   1.000  C
  C38      1.0000 0.53520  0.11130  0.71557  Biso   1.000  C
  C39      1.0000 0.53520  0.38870  0.21557  Biso   1.000  C
  C40      1.0000 0.46480  0.88870  0.28443  Biso   1.000  C
  H29      1.0000 0.40010  0.68410  0.77930  Biso   1.000  H
  H30      1.0000 0.59990  0.18410  0.72070  Biso   1.000  H
  H31      1.0000 0.59990  0.31590  0.22070  Biso   1.000  H
  H32      1.0000 0.40010  0.81590  0.27930  Biso   1.000  H
  C41      1.0000 0.56520  0.59720  0.75057  Biso   1.000  C
  C42      1.0000 0.43480  0.09720  0.74943  Biso   1.000  C
  C43      1.0000 0.43480  0.40280  0.24943  Biso   1.000  C
  C44      1.0000 0.56520  0.90280  0.25057  Biso   1.000  C
  H33      1.0000 0.56890  0.66020  0.72240  Biso   1.000  H
  H34      1.0000 0.43110  0.16020  0.77760  Biso   1.000  H
  H35      1.0000 0.43110  0.33980  0.27760  Biso   1.000  H
  H36      1.0000 0.56890  0.83980  0.22240  Biso   1.000  H
  C45      1.0000 0.66060  0.48730  0.75937  Biso   1.000  C
  C46      1.0000 0.33940  0.98730  0.74063  Biso   1.000  C
  C47      1.0000 0.33940  0.51270  0.24063  Biso   1.000  C
  C48      1.0000 0.66060  0.01270  0.25937  Biso   1.000  C
  C49      1.0000 0.64780  0.39210  0.80084  Biso   1.000  C
  C50      1.0000 0.35220  0.89210  0.69916  Biso   1.000  C
  C51      1.0000 0.35220  0.60790  0.19916  Biso   1.000  C
  C52      1.0000 0.64780  0.10790  0.30084  Biso   1.000  C
  H37      1.0000 0.70870  0.31530  0.80600  Biso   1.000  H
  H38      1.0000 0.29130  0.81530  0.69400  Biso   1.000  H
  H39      1.0000 0.29130  0.68470  0.19400  Biso   1.000  H
  H40      1.0000 0.70870  0.18470  0.30600  Biso   1.000  H
  C53      1.0000 0.87160  0.38700  0.73128  Biso   1.000  C
  C54      1.0000 0.12840  0.88700  0.76872  Biso   1.000  C
  C55      1.0000 0.12840  0.61300  0.26872  Biso   1.000  C
  C56      1.0000 0.87160  0.11300  0.23128  Biso   1.000  C
  C57      1.0000 0.99430  0.43540  0.70394  Biso   1.000  C
  C58      1.0000 0.00570  0.93540  0.79606  Biso   1.000  C
  C59      1.0000 0.00570  0.56460  0.29606  Biso   1.000  C
  C60      1.0000 0.99430  0.06460  0.20394  Biso   1.000  C
  H41      1.0000 0.99700  0.54570  0.70320  Biso   1.000  H
  H42      1.0000 0.00300  0.04570  0.79680  Biso   1.000  H
  H43      1.0000 0.00300  0.45430  0.29680  Biso   1.000  H
  H44      1.0000 0.99700  0.95430  0.20320  Biso   1.000  H
  C61      1.0000 0.99200  0.37840  0.64947  Biso   1.000  C
  C62      1.0000 0.00800  0.87840  0.85053  Biso   1.000  C
  C63      1.0000 0.00800  0.62160  0.35053  Biso   1.000  C
  C64      1.0000 0.99200  0.12160  0.14947  Biso   1.000  C
  H45      1.0000 0.91650  0.42020  0.63100  Biso   1.000  H
  H46      1.0000 0.08350  0.92020  0.86900  Biso   1.000  H
  H47      1.0000 0.08350  0.57980  0.36900  Biso   1.000  H
  H48      1.0000 0.91650  0.07980  0.13100  Biso   1.000  H
  H49      1.0000 0.98340  0.26970  0.64940  Biso   1.000  H
  H50      1.0000 0.01660  0.76970  0.85060  Biso   1.000  H
  H51      1.0000 0.01660  0.73030  0.35060  Biso   1.000  H
  H52      1.0000 0.98340  0.23030  0.14940  Biso   1.000  H
  C65      1.0000 0.11830  0.42320  0.62276  Biso   1.000  C
  C66      1.0000 0.88170  0.92320  0.87724  Biso   1.000  C
  C67      1.0000 0.88170  0.57680  0.37724  Biso   1.000  C
  C68      1.0000 0.11830  0.07680  0.12276  Biso   1.000  C
  H53      1.0000 0.11630  0.38220  0.58850  Biso   1.000  H
  H54      1.0000 0.88370  0.88220  0.91150  Biso   1.000  H
  H55      1.0000 0.88370  0.61780  0.41150  Biso   1.000  H
  H56      1.0000 0.11630  0.11780  0.08850  Biso   1.000  H
  H57      1.0000 0.12300  0.53200  0.62020  Biso   1.000  H
  H58      1.0000 0.87700  0.03200  0.87980  Biso   1.000  H
  H59      1.0000 0.87700  0.46800  0.37980  Biso   1.000  H
  H60      1.0000 0.12300  0.96800  0.12020  Biso   1.000  H
  C69      1.0000 0.24000  0.36440  0.65218  Biso   1.000  C
  C70      1.0000 0.76000  0.86440  0.84782  Biso   1.000  C
  C71      1.0000 0.76000  0.63560  0.34782  Biso   1.000  C
  C72      1.0000 0.24000  0.13560  0.15218  Biso   1.000  C
  H61      1.0000 0.23690  0.25410  0.65290  Biso   1.000  H
  H62      1.0000 0.76310  0.75410  0.84710  Biso   1.000  H
  H63      1.0000 0.76310  0.74590  0.34710  Biso   1.000  H
  H64      1.0000 0.23690  0.24590  0.15290  Biso   1.000  H
  C73      1.0000 0.24080  0.42310  0.70669  Biso   1.000  C
  C74      1.0000 0.75920  0.92310  0.79331  Biso   1.000  C
  C75      1.0000 0.75920  0.57690  0.29331  Biso   1.000  C
  C76      1.0000 0.24080  0.07690  0.20669  Biso   1.000  C
  H65      1.0000 0.31590  0.38200  0.72560  Biso   1.000  H
  H66      1.0000 0.68410  0.88200  0.77440  Biso   1.000  H
  H67      1.0000 0.68410  0.61800  0.27440  Biso   1.000  H
  H68      1.0000 0.31590  0.11800  0.22560  Biso   1.000  H
  H69      1.0000 0.24930  0.53180  0.70640  Biso   1.000  H
  H70      1.0000 0.75070  0.03180  0.79360  Biso   1.000  H
  H71      1.0000 0.75070  0.46820  0.29360  Biso   1.000  H
  H72      1.0000 0.24930  0.96820  0.20640  Biso   1.000  H
  C77      1.0000 0.11520  0.37960  0.73299  Biso   1.000  C
  C78      1.0000 0.88480  0.87960  0.76701  Biso   1.000  C
  C79      1.0000 0.88480  0.62040  0.26701  Biso   1.000  C
  C80      1.0000 0.11520  0.12040  0.23299  Biso   1.000  C
  H73      1.0000 0.11090  0.27090  0.73600  Biso   1.000  H
  H74      1.0000 0.88910  0.77090  0.76400  Biso   1.000  H
  H75      1.0000 0.88910  0.72910  0.26400  Biso   1.000  H
  H76      1.0000 0.11090  0.22910  0.23600  Biso   1.000  H
  H77      1.0000 0.11690  0.42170  0.76700  Biso   1.000  H
  H78      1.0000 0.88310  0.92170  0.73300  Biso   1.000  H
  H79      1.0000 0.88310  0.57830  0.23300  Biso   1.000  H
  H80      1.0000 0.11690  0.07830  0.26700  Biso   1.000  H
  C81      1.0000 0.36360  0.41340  0.62577  Biso   1.000  C
  C82      1.0000 0.63640  0.91340  0.87423  Biso   1.000  C
  C83      1.0000 0.63640  0.58660  0.37423  Biso   1.000  C
  C84      1.0000 0.36360  0.08660  0.12577  Biso   1.000  C
  C85      1.0000 0.49967  0.27330  0.50955  Biso   1.000  C
  C86      1.0000 0.50033  0.77330  0.99045  Biso   1.000  C
  C87      1.0000 0.50033  0.72670  0.49045  Biso   1.000  C
  C88      1.0000 0.49967  0.22670  0.00955  Biso   1.000  C
  H81      1.0000 0.42870  0.21020  0.50230  Biso   1.000  H
  H82      1.0000 0.57130  0.71020  0.99770  Biso   1.000  H
  H83      1.0000 0.57130  0.78980  0.49770  Biso   1.000  H
  H84      1.0000 0.42870  0.28980  0.00230  Biso   1.000  H
  C89      1.0000 0.51077  0.33970  0.55752  Biso   1.000  C
  C90      1.0000 0.48923  0.83970  0.94248  Biso   1.000  C
  C91      1.0000 0.48923  0.66030  0.44248  Biso   1.000  C
  C92      1.0000 0.51077  0.16030  0.05752  Biso   1.000  C
  C93      1.0000 0.61820  0.43110  0.56912  Biso   1.000  C
  C94      1.0000 0.38180  0.93110  0.93088  Biso   1.000  C
  C95      1.0000 0.38180  0.56890  0.43088  Biso   1.000  C
  C96      1.0000 0.61820  0.06890  0.06912  Biso   1.000  C
  H85      1.0000 0.62960  0.47480  0.60110  Biso   1.000  H
  H86      1.0000 0.37040  0.97480  0.89890  Biso   1.000  H
  H87      1.0000 0.37040  0.52520  0.39890  Biso   1.000  H
  H88      1.0000 0.62960  0.02520  0.10110  Biso   1.000  H
  C97      1.0000 0.70810  0.45500  0.53137  Biso   1.000  C
  C98      1.0000 0.29190  0.95500  0.96863  Biso   1.000  C
  C99      1.0000 0.29190  0.54500  0.46863  Biso   1.000  C
  C100     1.0000 0.70810  0.04500  0.03137  Biso   1.000  C
  H89      1.0000 0.78080  0.51640  0.53780  Biso   1.000  H
  H90      1.0000 0.21920  0.01640  0.96220  Biso   1.000  H
  H91      1.0000 0.21920  0.48360  0.46220  Biso   1.000  H
  H92      1.0000 0.78080  0.98360  0.03780  Biso   1.000  H
  C101     1.0000 0.68971  0.38800  0.48448  Biso   1.000  C
  C102     1.0000 0.31029  0.88800  0.01552  Biso   1.000  C
  C103     1.0000 0.31029  0.61200  0.51552  Biso   1.000  C
  C104     1.0000 0.68971  0.11200  0.98448  Biso   1.000  C
  H93      1.0000 0.75040  0.40640  0.45950  Biso   1.000  H
  H94      1.0000 0.24960  0.90640  0.04050  Biso   1.000  H
  H95      1.0000 0.24960  0.59360  0.54050  Biso   1.000  H
  H96      1.0000 0.75040  0.09360  0.95950  Biso   1.000  H
