data_image0
_cell_length_a       9.5482
_cell_length_b       5.0668
_cell_length_c       15.1342
_cell_angle_alpha    90
_cell_angle_beta     102.353
_cell_angle_gamma    90

_symmetry_space_group_name_H-M    "P 1"
_symmetry_int_tables_number       1

loop_
  _symmetry_equiv_pos_as_xyz
  'x, y, z'

loop_
  _atom_site_label
  _atom_site_occupancy
  _atom_site_fract_x
  _atom_site_fract_y
  _atom_site_fract_z
  _atom_site_thermal_displace_type
  _atom_site_B_iso_or_equiv
  _atom_site_type_symbol
  Cu1      1.0000 0.73144  0.79995  0.48334  Biso   1.000  Cu
  Cu2      1.0000 0.26856  0.29995  0.51666  Biso   1.000  Cu
  O1       1.0000 0.88580  0.59330  0.45168  Biso   1.000  O
  O2       1.0000 0.11420  0.09330  0.54832  Biso   1.000  O
  N1       1.0000 0.76300  0.04220  0.38730  Biso   1.000  N
  N2       1.0000 0.23700  0.54220  0.61270  Biso   1.000  N
  H1       1.0000 0.69500  0.03100  0.34020  Biso   1.000  H
  H2       1.0000 0.30500  0.53100  0.65980  Biso   1.000  H
  H3       1.0000 0.76300  0.20700  0.40300  Biso   1.000  H
  H4       1.0000 0.23700  0.70700  0.59700  Biso   1.000  H
  O3       1.0000 0.07510  0.63220  0.38842  Biso   1.000  O
  O4       1.0000 0.92490  0.13220  0.61158  Biso   1.000  O
  C1       1.0000 0.95990  0.71340  0.40260  Biso   1.000  C
  C2       1.0000 0.04010  0.21340  0.59740  Biso   1.000  C
  C3       1.0000 0.89860  0.97220  0.35760  Biso   1.000  C
  C4       1.0000 0.10140  0.47220  0.64240  Biso   1.000  C
  H5       1.0000 0.96950  0.11430  0.37750  Biso   1.000  H
  H6       1.0000 0.03050  0.61430  0.62250  Biso   1.000  H
  C5       1.0000 0.87510  0.94640  0.25590  Biso   1.000  C
  C6       1.0000 0.12490  0.44640  0.74410  Biso   1.000  C
  C7       1.0000 0.79250  0.74470  0.21170  Biso   1.000  C
  C8       1.0000 0.20750  0.24470  0.78830  Biso   1.000  C
  H7       1.0000 0.74890  0.62580  0.24520  Biso   1.000  H
  H8       1.0000 0.25110  0.12580  0.75480  Biso   1.000  H
  C9       1.0000 0.93830  0.11900  0.20660  Biso   1.000  C
  C10      1.0000 0.06170  0.61900  0.79340  Biso   1.000  C
  H9       1.0000 0.99390  0.26100  0.23470  Biso   1.000  H
  H10      1.0000 0.00610  0.76100  0.76530  Biso   1.000  H
  N3       1.0000 0.70860  0.57780  0.58690  Biso   1.000  N
  N4       1.0000 0.29140  0.07780  0.41310  Biso   1.000  N
  H11      1.0000 0.64800  0.46400  0.56000  Biso   1.000  H
  H12      1.0000 0.35200  0.96400  0.44000  Biso   1.000  H
  H13      1.0000 0.78200  0.48400  0.60600  Biso   1.000  H
  H14      1.0000 0.21800  0.98400  0.39400  Biso   1.000  H
  O5       1.0000 0.58820  0.02040  0.52207  Biso   1.000  O
  O6       1.0000 0.41180  0.52040  0.47793  Biso   1.000  O
  C11      1.0000 0.55390  0.94680  0.59540  Biso   1.000  C
  C12      1.0000 0.44610  0.44680  0.40460  Biso   1.000  C
  C13      1.0000 0.66470  0.75660  0.65300  Biso   1.000  C
  C14      1.0000 0.33530  0.25660  0.34700  Biso   1.000  C
  H15      1.0000 0.75010  0.86720  0.67640  Biso   1.000  H
  H16      1.0000 0.24990  0.36720  0.32360  Biso   1.000  H
  C15      1.0000 0.63270  0.61990  0.73540  Biso   1.000  C
  C16      1.0000 0.36730  0.11990  0.26460  Biso   1.000  C
  C17      1.0000 0.71410  0.40130  0.77010  Biso   1.000  C
  C18      1.0000 0.28590  0.90130  0.22990  Biso   1.000  C
  H17      1.0000 0.78050  0.33250  0.73840  Biso   1.000  H
  H18      1.0000 0.21950  0.83250  0.26160  Biso   1.000  H
  C19      1.0000 0.70020  0.28270  0.84960  Biso   1.000  C
  C20      1.0000 0.29980  0.78270  0.15040  Biso   1.000  C
  H19      1.0000 0.75720  0.13590  0.87160  Biso   1.000  H
  H20      1.0000 0.24280  0.63590  0.12840  Biso   1.000  H
  C21      1.0000 0.60320  0.37850  0.89690  Biso   1.000  C
  C22      1.0000 0.39680  0.87850  0.10310  Biso   1.000  C
  H21      1.0000 0.59330  0.29810  0.95120  Biso   1.000  H
  H22      1.0000 0.40670  0.79810  0.04880  Biso   1.000  H
  C23      1.0000 0.52160  0.59170  0.86390  Biso   1.000  C
  C24      1.0000 0.47840  0.09170  0.13610  Biso   1.000  C
  H23      1.0000 0.45400  0.65610  0.89550  Biso   1.000  H
  H24      1.0000 0.54600  0.15610  0.10450  Biso   1.000  H
  C25      1.0000 0.53650  0.71570  0.78450  Biso   1.000  C
  C26      1.0000 0.46350  0.21570  0.21550  Biso   1.000  C
  H25      1.0000 0.48100  0.86550  0.76390  Biso   1.000  H
  H26      1.0000 0.51900  0.36550  0.23610  Biso   1.000  H
  C27      1.0000 0.77210  0.71250  0.11970  Biso   1.000  C
  C28      1.0000 0.22790  0.21250  0.88030  Biso   1.000  C
  H27      1.0000 0.71300  0.57530  0.09110  Biso   1.000  H
  H28      1.0000 0.28700  0.07530  0.90890  Biso   1.000  H
  C29      1.0000 0.83480  0.87290  0.07090  Biso   1.000  C
  C30      1.0000 0.16520  0.37290  0.92910  Biso   1.000  C
  H29      1.0000 0.82240  0.84550  0.00820  Biso   1.000  H
  H30      1.0000 0.17760  0.34550  0.99180  Biso   1.000  H
  C31      1.0000 0.91690  0.07660  0.11060  Biso   1.000  C
  C32      1.0000 0.08310  0.57660  0.88940  Biso   1.000  C
  H31      1.0000 0.96010  0.19050  0.07530  Biso   1.000  H
  H32      1.0000 0.03990  0.69050  0.92470  Biso   1.000  H
  O7       1.0000 0.44770  0.02860  0.62094  Biso   1.000  O
  O8       1.0000 0.55230  0.52860  0.37906  Biso   1.000  O
