data_image0
_cell_length_a       9.4086
_cell_length_b       5.1102
_cell_length_c       20.2277
_cell_angle_alpha    90
_cell_angle_beta     97.097
_cell_angle_gamma    90

_symmetry_space_group_name_H-M    "P 1"
_symmetry_int_tables_number       1

loop_
  _symmetry_equiv_pos_as_xyz
  'x, y, z'

loop_
  _atom_site_label
  _atom_site_occupancy
  _atom_site_fract_x
  _atom_site_fract_y
  _atom_site_fract_z
  _atom_site_thermal_displace_type
  _atom_site_B_iso_or_equiv
  _atom_site_type_symbol
  Cu1      1.0000 0.72574  0.59343  0.48203  Biso   1.000  Cu
  Cu2      1.0000 0.27426  0.09343  0.51797  Biso   1.000  Cu
  O1       1.0000 0.58890  0.35990  0.51580  Biso   1.000  O
  O2       1.0000 0.41110  0.85990  0.48420  Biso   1.000  O
  O3       1.0000 0.45160  0.33190  0.59762  Biso   1.000  O
  O4       1.0000 0.54840  0.83190  0.40238  Biso   1.000  O
  N1       1.0000 0.69300  0.81460  0.55990  Biso   1.000  N
  N2       1.0000 0.30700  0.31460  0.44010  Biso   1.000  N
  H1       1.0000 0.76400  0.92400  0.56900  Biso   1.000  H
  H2       1.0000 0.23600  0.42400  0.43100  Biso   1.000  H
  H3       1.0000 0.62500  0.91800  0.54400  Biso   1.000  H
  H4       1.0000 0.37500  0.41800  0.45600  Biso   1.000  H
  N3       1.0000 0.77030  0.30410  0.80990  Biso   1.000  N
  N4       1.0000 0.22970  0.80410  0.19010  Biso   1.000  N
  C1       1.0000 0.55520  0.42450  0.57270  Biso   1.000  C
  C2       1.0000 0.44480  0.92450  0.42730  Biso   1.000  C
  C3       1.0000 0.65750  0.62400  0.61060  Biso   1.000  C
  C4       1.0000 0.34250  0.12400  0.38940  Biso   1.000  C
  H5       1.0000 0.74710  0.52790  0.62550  Biso   1.000  H
  H6       1.0000 0.25290  0.02790  0.37450  Biso   1.000  H
  C5       1.0000 0.60720  0.73910  0.67330  Biso   1.000  C
  C6       1.0000 0.39280  0.23910  0.32670  Biso   1.000  C
  H7       1.0000 0.64210  0.91950  0.67860  Biso   1.000  H
  H8       1.0000 0.35790  0.41950  0.32140  Biso   1.000  H
  H9       1.0000 0.50230  0.74540  0.66730  Biso   1.000  H
  H10      1.0000 0.49770  0.24540  0.33270  Biso   1.000  H
  C7       1.0000 0.65560  0.59150  0.73570  Biso   1.000  C
  C8       1.0000 0.34440  0.09150  0.26430  Biso   1.000  C
  C9       1.0000 0.75230  0.38550  0.74450  Biso   1.000  C
  C10      1.0000 0.24770  0.88550  0.25550  Biso   1.000  C
  H11      1.0000 0.79910  0.31170  0.71050  Biso   1.000  H
  H12      1.0000 0.20090  0.81170  0.28950  Biso   1.000  H
  C11      1.0000 0.68060  0.44990  0.84420  Biso   1.000  C
  C12      1.0000 0.31940  0.94990  0.15580  Biso   1.000  C
  C13      1.0000 0.65710  0.43890  0.91150  Biso   1.000  C
  C14      1.0000 0.34290  0.93890  0.08850  Biso   1.000  C
  H13      1.0000 0.70510  0.31640  0.94090  Biso   1.000  H
  H14      1.0000 0.29490  0.81640  0.05910  Biso   1.000  H
  C15      1.0000 0.56220  0.61210  0.93240  Biso   1.000  C
  C16      1.0000 0.43780  0.11210  0.06760  Biso   1.000  C
  H15      1.0000 0.54570  0.60980  0.97730  Biso   1.000  H
  H16      1.0000 0.45430  0.10980  0.02270  Biso   1.000  H
  C17      1.0000 0.48840  0.79410  0.88890  Biso   1.000  C
  C18      1.0000 0.51160  0.29410  0.11110  Biso   1.000  C
  H17      1.0000 0.42220  0.90810  0.90500  Biso   1.000  H
  H18      1.0000 0.57780  0.40810  0.09500  Biso   1.000  H
  C19      1.0000 0.51140  0.80860  0.82290  Biso   1.000  C
  C20      1.0000 0.48860  0.30860  0.17710  Biso   1.000  C
  H19      1.0000 0.46400  0.93490  0.79440  Biso   1.000  H
  H20      1.0000 0.53600  0.43490  0.20560  Biso   1.000  H
  C21      1.0000 0.60720  0.63030  0.79930  Biso   1.000  C
  C22      1.0000 0.39280  0.13030  0.20070  Biso   1.000  C
  O5       1.0000 0.87980  0.79920  0.45487  Biso   1.000  O
  O6       1.0000 0.12020  0.29920  0.54513  Biso   1.000  O
  O7       1.0000 0.08820  0.75340  0.41229  Biso   1.000  O
  O8       1.0000 0.91180  0.25340  0.58771  Biso   1.000  O
  N5       1.0000 0.77390  0.34520  0.41170  Biso   1.000  N
  N6       1.0000 0.22610  0.84520  0.58830  Biso   1.000  N
  H21      1.0000 0.76400  0.18500  0.42500  Biso   1.000  H
  H22      1.0000 0.23600  0.68500  0.57500  Biso   1.000  H
  H23      1.0000 0.71100  0.39300  0.37900  Biso   1.000  H
  H24      1.0000 0.28900  0.89300  0.62100  Biso   1.000  H
  N7       1.0000 0.73640  0.82990  0.21860  Biso   1.000  N
  N8       1.0000 0.26360  0.32990  0.78140  Biso   1.000  N
  C23      1.0000 0.96930  0.67520  0.42280  Biso   1.000  C
  C24      1.0000 0.03070  0.17520  0.57720  Biso   1.000  C
  C25      1.0000 0.92250  0.39970  0.39930  Biso   1.000  C
  C26      1.0000 0.07750  0.89970  0.60070  Biso   1.000  C
  H25      1.0000 0.98400  0.27640  0.42770  Biso   1.000  H
  H26      1.0000 0.01600  0.77640  0.57230  Biso   1.000  H
  C27      1.0000 0.89490  0.50870  0.20600  Biso   1.000  C
  C28      1.0000 0.10510  0.00870  0.79400  Biso   1.000  C
  C29      1.0000 0.95010  0.34470  0.32730  Biso   1.000  C
  C30      1.0000 0.04990  0.84470  0.67270  Biso   1.000  C
  H27      1.0000 0.05300  0.36230  0.32490  Biso   1.000  H
  H28      1.0000 0.94700  0.86230  0.67510  Biso   1.000  H
  H29      1.0000 0.92400  0.16240  0.31670  Biso   1.000  H
  H30      1.0000 0.07600  0.66240  0.68330  Biso   1.000  H
  C31      1.0000 0.87130  0.51740  0.27450  Biso   1.000  C
  C32      1.0000 0.12870  0.01740  0.72550  Biso   1.000  C
  C33      1.0000 0.77370  0.71240  0.28000  Biso   1.000  C
  C34      1.0000 0.22630  0.21240  0.72000  Biso   1.000  C
  H31      1.0000 0.73730  0.75960  0.31960  Biso   1.000  H
  H32      1.0000 0.26270  0.25960  0.68040  Biso   1.000  H
  C35      1.0000 0.81220  0.70870  0.17280  Biso   1.000  C
  C36      1.0000 0.18780  0.20870  0.82720  Biso   1.000  C
  C37      1.0000 0.81430  0.75580  0.10500  Biso   1.000  C
  C38      1.0000 0.18570  0.25580  0.89500  Biso   1.000  C
  H33      1.0000 0.75870  0.88990  0.08300  Biso   1.000  H
  H34      1.0000 0.24130  0.38990  0.91700  Biso   1.000  H
  C39      1.0000 0.90060  0.59920  0.07130  Biso   1.000  C
  C40      1.0000 0.09940  0.09920  0.92870  Biso   1.000  C
  H35      1.0000 0.90500  0.62860  0.02580  Biso   1.000  H
  H36      1.0000 0.09500  0.12860  0.97420  Biso   1.000  H
  C41      1.0000 0.98150  0.39790  0.10380  Biso   1.000  C
  C42      1.0000 0.01850  0.89790  0.89620  Biso   1.000  C
  H37      1.0000 0.03810  0.29180  0.07950  Biso   1.000  H
  H38      1.0000 0.96190  0.79180  0.92050  Biso   1.000  H
  C43      1.0000 0.98000  0.35180  0.17050  Biso   1.000  C
  C44      1.0000 0.02000  0.85180  0.82950  Biso   1.000  C
  H39      1.0000 0.03550  0.21640  0.19190  Biso   1.000  H
  H40      1.0000 0.96450  0.71640  0.80810  Biso   1.000  H
