data_image0
_cell_length_a       8.184
_cell_length_b       8.792
_cell_length_c       10.887
_cell_angle_alpha    75.65
_cell_angle_beta     76.55
_cell_angle_gamma    74.36

_symmetry_space_group_name_H-M    "P 1"
_symmetry_int_tables_number       1

loop_
  _symmetry_equiv_pos_as_xyz
  'x, y, z'

loop_
  _atom_site_label
  _atom_site_occupancy
  _atom_site_fract_x
  _atom_site_fract_y
  _atom_site_fract_z
  _atom_site_thermal_displace_type
  _atom_site_B_iso_or_equiv
  _atom_site_type_symbol
  Cu1      1.0000 0.08146  0.02543  0.83250  Biso   1.000  Cu
  Cu2      1.0000 0.91854  0.97457  0.16750  Biso   1.000  Cu
  Cu3      1.0000 0.48458  0.86519  0.66614  Biso   1.000  Cu
  Cu4      1.0000 0.51542  0.13481  0.33386  Biso   1.000  Cu
  O1       1.0000 0.24400  0.87680  0.73960  Biso   1.000  O
  O2       1.0000 0.75600  0.12320  0.26040  Biso   1.000  O
  O3       1.0000 0.49300  0.05950  0.72060  Biso   1.000  O
  O4       1.0000 0.50700  0.94050  0.27940  Biso   1.000  O
  O5       1.0000 0.26080  0.10430  0.87470  Biso   1.000  O
  O6       1.0000 0.73920  0.89570  0.12530  Biso   1.000  O
  N1       1.0000 0.90840  0.90090  0.82640  Biso   1.000  N
  N2       1.0000 0.09160  0.09910  0.17360  Biso   1.000  N
  N3       1.0000 0.45760  0.69560  0.58340  Biso   1.000  N
  N4       1.0000 0.54240  0.30440  0.41660  Biso   1.000  N
  N5       1.0000 0.59470  0.68290  0.82720  Biso   1.000  N
  N6       1.0000 0.40530  0.31710  0.17280  Biso   1.000  N
  N7       1.0000 0.76240  0.45410  0.95630  Biso   1.000  N
  N8       1.0000 0.23760  0.54590  0.04370  Biso   1.000  N
  N9       1.0000 0.90830  0.18530  0.92050  Biso   1.000  N
  N10      1.0000 0.09170  0.81470  0.07950  Biso   1.000  N
  N11      1.0000 0.28760  0.12720  0.44980  Biso   1.000  N
  N12      1.0000 0.71240  0.87280  0.55020  Biso   1.000  N
  N13      1.0000 0.04800  0.20800  0.61930  Biso   1.000  N
  N14      1.0000 0.95200  0.79200  0.38070  Biso   1.000  N
  N15      1.0000 0.79630  0.43200  0.60380  Biso   1.000  N
  N16      1.0000 0.20370  0.56800  0.39620  Biso   1.000  N
  C1       1.0000 0.00610  0.75020  0.78380  Biso   1.000  C
  C2       1.0000 0.99390  0.24980  0.21620  Biso   1.000  C
  C3       1.0000 0.16590  0.78390  0.69080  Biso   1.000  C
  C4       1.0000 0.83410  0.21610  0.30920  Biso   1.000  C
  C5       1.0000 0.30240  0.63730  0.66220  Biso   1.000  C
  C6       1.0000 0.69760  0.36270  0.33780  Biso   1.000  C
  C7       1.0000 0.40850  0.12140  0.81520  Biso   1.000  C
  C8       1.0000 0.59150  0.87860  0.18480  Biso   1.000  C
  C9       1.0000 0.48940  0.22480  0.86140  Biso   1.000  C
  C10      1.0000 0.51060  0.77520  0.13860  Biso   1.000  C
  H1       1.0000 0.40110  0.29870  0.90610  Biso   1.000  H
  H2       1.0000 0.59890  0.70130  0.09390  Biso   1.000  H
  H3       1.0000 0.55390  0.28400  0.78900  Biso   1.000  H
  H4       1.0000 0.44610  0.71600  0.21100  Biso   1.000  H
  H5       1.0000 0.56530  0.15820  0.91870  Biso   1.000  H
  H6       1.0000 0.43470  0.84180  0.08130  Biso   1.000  H
  C11      1.0000 0.67120  0.57030  0.88190  Biso   1.000  C
  C12      1.0000 0.32880  0.42970  0.11810  Biso   1.000  C
  C13      1.0000 0.83530  0.31510  0.92960  Biso   1.000  C
  C14      1.0000 0.16470  0.68490  0.07040  Biso   1.000  C
  C15      1.0000 0.17430  0.17400  0.52450  Biso   1.000  C
  C16      1.0000 0.82570  0.82600  0.47550  Biso   1.000  C
  C17      1.0000 0.91820  0.33250  0.60430  Biso   1.000  C
  C18      1.0000 0.08180  0.66750  0.39570  Biso   1.000  C
  H7       1.0000 0.83000  0.96700  0.77900  Biso   1.000  H
  H8       1.0000 0.17000  0.03300  0.22100  Biso   1.000  H
  H9       1.0000 0.84400  0.86900  0.91000  Biso   1.000  H
  H10      1.0000 0.15600  0.13100  0.09000  Biso   1.000  H
  H11      1.0000 0.53600  0.62200  0.58700  Biso   1.000  H
  H12      1.0000 0.46400  0.37800  0.41300  Biso   1.000  H
  H13      1.0000 0.46100  0.73900  0.50200  Biso   1.000  H
  H14      1.0000 0.53900  0.26100  0.49800  Biso   1.000  H
  H15      1.0000 0.92700  0.71400  0.74100  Biso   1.000  H
  H16      1.0000 0.07300  0.28600  0.25900  Biso   1.000  H
  H17      1.0000 0.04600  0.67400  0.86100  Biso   1.000  H
  H18      1.0000 0.95400  0.32600  0.13900  Biso   1.000  H
  H19      1.0000 0.12800  0.84900  0.60200  Biso   1.000  H
  H20      1.0000 0.87200  0.15100  0.39800  Biso   1.000  H
  H21      1.0000 0.27400  0.57700  0.60700  Biso   1.000  H
  H22      1.0000 0.72600  0.42300  0.39300  Biso   1.000  H
  H23      1.0000 0.34000  0.57400  0.74600  Biso   1.000  H
  H24      1.0000 0.66000  0.42600  0.25400  Biso   1.000  H
