data_image0
_cell_length_a       25.827
_cell_length_b       9.643
_cell_length_c       7.4525
_cell_angle_alpha    90
_cell_angle_beta     94.74
_cell_angle_gamma    90

_symmetry_space_group_name_H-M    "P 1"
_symmetry_int_tables_number       1

loop_
  _symmetry_equiv_pos_as_xyz
  'x, y, z'

loop_
  _atom_site_label
  _atom_site_occupancy
  _atom_site_fract_x
  _atom_site_fract_y
  _atom_site_fract_z
  _atom_site_thermal_displace_type
  _atom_site_B_iso_or_equiv
  _atom_site_type_symbol
  Ag1      1.0000 0.50000  0.33330  0.75000  Biso   1.000  Ag
  Ag2      1.0000 0.00000  0.83330  0.75000  Biso   1.000  Ag
  Ag3      1.0000 0.50000  0.66670  0.25000  Biso   1.000  Ag
  Ag4      1.0000 0.00000  0.16670  0.25000  Biso   1.000  Ag
  Cu1      1.0000 0.25000  0.25000  0.00000  Biso   1.000  Cu
  Cu2      1.0000 0.75000  0.75000  0.00000  Biso   1.000  Cu
  Cu3      1.0000 0.25000  0.75000  0.50000  Biso   1.000  Cu
  Cu4      1.0000 0.75000  0.25000  0.50000  Biso   1.000  Cu
  N1       1.0000 0.31932  0.25590  0.90070  Biso   1.000  N
  N2       1.0000 0.81932  0.75590  0.90070  Biso   1.000  N
  N3       1.0000 0.31932  0.74410  0.40070  Biso   1.000  N
  N4       1.0000 0.81932  0.24410  0.40070  Biso   1.000  N
  N5       1.0000 0.68068  0.74410  0.09930  Biso   1.000  N
  N6       1.0000 0.18068  0.24410  0.09930  Biso   1.000  N
  N7       1.0000 0.68068  0.25590  0.59930  Biso   1.000  N
  N8       1.0000 0.18068  0.75590  0.59930  Biso   1.000  N
  N9       1.0000 0.41763  0.30510  0.79330  Biso   1.000  N
  N10      1.0000 0.91763  0.80510  0.79330  Biso   1.000  N
  N11      1.0000 0.41763  0.69490  0.29330  Biso   1.000  N
  N12      1.0000 0.91763  0.19490  0.29330  Biso   1.000  N
  N13      1.0000 0.58237  0.69490  0.20670  Biso   1.000  N
  N14      1.0000 0.08237  0.19490  0.20670  Biso   1.000  N
  N15      1.0000 0.58237  0.30510  0.70670  Biso   1.000  N
  N16      1.0000 0.08237  0.80510  0.70670  Biso   1.000  N
  C1       1.0000 0.34182  0.38050  0.92390  Biso   1.000  C
  C2       1.0000 0.84182  0.88050  0.92390  Biso   1.000  C
  C3       1.0000 0.34182  0.61950  0.42390  Biso   1.000  C
  C4       1.0000 0.84182  0.11950  0.42390  Biso   1.000  C
  C5       1.0000 0.65818  0.61950  0.07610  Biso   1.000  C
  C6       1.0000 0.15818  0.11950  0.07610  Biso   1.000  C
  C7       1.0000 0.65818  0.38050  0.57610  Biso   1.000  C
  C8       1.0000 0.15818  0.88050  0.57610  Biso   1.000  C
  C9       1.0000 0.39085  0.40350  0.87230  Biso   1.000  C
  C10      1.0000 0.89085  0.90350  0.87230  Biso   1.000  C
  C11      1.0000 0.39085  0.59650  0.37230  Biso   1.000  C
  C12      1.0000 0.89085  0.09650  0.37230  Biso   1.000  C
  C13      1.0000 0.60915  0.59650  0.12770  Biso   1.000  C
  C14      1.0000 0.10915  0.09650  0.12770  Biso   1.000  C
  C15      1.0000 0.60915  0.40350  0.62770  Biso   1.000  C
  C16      1.0000 0.10915  0.90350  0.62770  Biso   1.000  C
  H1       1.0000 0.59400  0.49020  0.60730  Biso   1.000  H
  H2       1.0000 0.09400  0.99020  0.60730  Biso   1.000  H
  H3       1.0000 0.59400  0.50980  0.10730  Biso   1.000  H
  H4       1.0000 0.09400  0.00980  0.10730  Biso   1.000  H
  H5       1.0000 0.40600  0.50980  0.39270  Biso   1.000  H
  H6       1.0000 0.90600  0.00980  0.39270  Biso   1.000  H
  H7       1.0000 0.40600  0.49020  0.89270  Biso   1.000  H
  H8       1.0000 0.90600  0.99020  0.89270  Biso   1.000  H
  C17      1.0000 0.60592  0.18150  0.73680  Biso   1.000  C
  C18      1.0000 0.10592  0.68150  0.73680  Biso   1.000  C
  C19      1.0000 0.60592  0.81850  0.23680  Biso   1.000  C
  C20      1.0000 0.10592  0.31850  0.23680  Biso   1.000  C
  C21      1.0000 0.39408  0.81850  0.26320  Biso   1.000  C
  C22      1.0000 0.89408  0.31850  0.26320  Biso   1.000  C
  C23      1.0000 0.39408  0.18150  0.76320  Biso   1.000  C
  C24      1.0000 0.89408  0.68150  0.76320  Biso   1.000  C
  C25      1.0000 0.65520  0.15830  0.68120  Biso   1.000  C
  C26      1.0000 0.15520  0.65830  0.68120  Biso   1.000  C
  C27      1.0000 0.65520  0.84170  0.18120  Biso   1.000  C
  C28      1.0000 0.15520  0.34170  0.18120  Biso   1.000  C
  C29      1.0000 0.34480  0.84170  0.31880  Biso   1.000  C
  C30      1.0000 0.84480  0.34170  0.31880  Biso   1.000  C
  C31      1.0000 0.34480  0.15830  0.81880  Biso   1.000  C
  C32      1.0000 0.84480  0.65830  0.81880  Biso   1.000  C
  H9       1.0000 0.67070  0.07200  0.70180  Biso   1.000  H
  H10      1.0000 0.17070  0.57200  0.70180  Biso   1.000  H
  H11      1.0000 0.67070  0.92800  0.20180  Biso   1.000  H
  H12      1.0000 0.17070  0.42800  0.20180  Biso   1.000  H
  H13      1.0000 0.32930  0.92800  0.29820  Biso   1.000  H
  H14      1.0000 0.82930  0.42800  0.29820  Biso   1.000  H
  H15      1.0000 0.32930  0.07200  0.79820  Biso   1.000  H
  H16      1.0000 0.82930  0.57200  0.79820  Biso   1.000  H
  C33      1.0000 0.69151  0.48940  0.49740  Biso   1.000  C
  C34      1.0000 0.19151  0.98940  0.49740  Biso   1.000  C
  C35      1.0000 0.69151  0.51060  0.99740  Biso   1.000  C
  C36      1.0000 0.19151  0.01060  0.99740  Biso   1.000  C
  C37      1.0000 0.30849  0.51060  0.50260  Biso   1.000  C
  C38      1.0000 0.80849  0.01060  0.50260  Biso   1.000  C
  C39      1.0000 0.30849  0.48940  0.00260  Biso   1.000  C
  C40      1.0000 0.80849  0.98940  0.00260  Biso   1.000  C
  C41      1.0000 0.57790  0.07190  0.83140  Biso   1.000  C
  C42      1.0000 0.07790  0.57190  0.83140  Biso   1.000  C
  C43      1.0000 0.57790  0.92810  0.33140  Biso   1.000  C
  C44      1.0000 0.07790  0.42810  0.33140  Biso   1.000  C
  C45      1.0000 0.42210  0.92810  0.16860  Biso   1.000  C
  C46      1.0000 0.92210  0.42810  0.16860  Biso   1.000  C
  C47      1.0000 0.42210  0.07190  0.66860  Biso   1.000  C
  C48      1.0000 0.92210  0.57190  0.66860  Biso   1.000  C
  H17      1.0000 0.54940  0.03790  0.75310  Biso   1.000  H
  H18      1.0000 0.04940  0.53790  0.75310  Biso   1.000  H
  H19      1.0000 0.54940  0.96210  0.25310  Biso   1.000  H
  H20      1.0000 0.04940  0.46210  0.25310  Biso   1.000  H
  H21      1.0000 0.45060  0.96210  0.24690  Biso   1.000  H
  H22      1.0000 0.95060  0.46210  0.24690  Biso   1.000  H
  H23      1.0000 0.45060  0.03790  0.74690  Biso   1.000  H
  H24      1.0000 0.95060  0.53790  0.74690  Biso   1.000  H
  H25      1.0000 0.60140  0.99700  0.86400  Biso   1.000  H
  H26      1.0000 0.10140  0.49700  0.86400  Biso   1.000  H
  H27      1.0000 0.60140  0.00300  0.36400  Biso   1.000  H
  H28      1.0000 0.10140  0.50300  0.36400  Biso   1.000  H
  H29      1.0000 0.39860  0.00300  0.13600  Biso   1.000  H
  H30      1.0000 0.89860  0.50300  0.13600  Biso   1.000  H
  H31      1.0000 0.39860  0.99700  0.63600  Biso   1.000  H
  H32      1.0000 0.89860  0.49700  0.63600  Biso   1.000  H
  H33      1.0000 0.56510  0.11010  0.93810  Biso   1.000  H
  H34      1.0000 0.06510  0.61010  0.93810  Biso   1.000  H
  H35      1.0000 0.56510  0.88990  0.43810  Biso   1.000  H
  H36      1.0000 0.06510  0.38990  0.43810  Biso   1.000  H
  H37      1.0000 0.43490  0.88990  0.06190  Biso   1.000  H
  H38      1.0000 0.93490  0.38990  0.06190  Biso   1.000  H
  H39      1.0000 0.43490  0.11010  0.56190  Biso   1.000  H
  H40      1.0000 0.93490  0.61010  0.56190  Biso   1.000  H
  O1       1.0000 0.73401  0.44610  0.44230  Biso   1.000  O
  O2       1.0000 0.23401  0.94610  0.44230  Biso   1.000  O
  O3       1.0000 0.73401  0.55390  0.94230  Biso   1.000  O
  O4       1.0000 0.23401  0.05390  0.94230  Biso   1.000  O
  O5       1.0000 0.26599  0.55390  0.55770  Biso   1.000  O
  O6       1.0000 0.76599  0.05390  0.55770  Biso   1.000  O
  O7       1.0000 0.26599  0.44610  0.05770  Biso   1.000  O
  O8       1.0000 0.76599  0.94610  0.05770  Biso   1.000  O
  O9       1.0000 0.67578  0.61040  0.49080  Biso   1.000  O
  O10      1.0000 0.17578  0.11040  0.49080  Biso   1.000  O
  O11      1.0000 0.67578  0.38960  0.99080  Biso   1.000  O
  O12      1.0000 0.17578  0.88960  0.99080  Biso   1.000  O
  O13      1.0000 0.32422  0.38960  0.50920  Biso   1.000  O
  O14      1.0000 0.82422  0.88960  0.50920  Biso   1.000  O
  O15      1.0000 0.32422  0.61040  0.00920  Biso   1.000  O
  O16      1.0000 0.82422  0.11040  0.00920  Biso   1.000  O
  O17      1.0000 0.29180  0.16710  0.28690  Biso   1.000  O
  O18      1.0000 0.79180  0.66710  0.28690  Biso   1.000  O
  O19      1.0000 0.29180  0.83290  0.78690  Biso   1.000  O
  O20      1.0000 0.79180  0.33290  0.78690  Biso   1.000  O
  O21      1.0000 0.70820  0.83290  0.71310  Biso   1.000  O
  O22      1.0000 0.20820  0.33290  0.71310  Biso   1.000  O
  O23      1.0000 0.70820  0.16710  0.21310  Biso   1.000  O
  O24      1.0000 0.20820  0.66710  0.21310  Biso   1.000  O
  H41      1.0000 0.26980  0.12450  0.34590  Biso   1.000  H
  H42      1.0000 0.76980  0.62450  0.34590  Biso   1.000  H
  H43      1.0000 0.26980  0.87550  0.84590  Biso   1.000  H
  H44      1.0000 0.76980  0.37550  0.84590  Biso   1.000  H
  H45      1.0000 0.73020  0.87550  0.65410  Biso   1.000  H
  H46      1.0000 0.23020  0.37550  0.65410  Biso   1.000  H
  H47      1.0000 0.73020  0.12450  0.15410  Biso   1.000  H
  H48      1.0000 0.23020  0.62450  0.15410  Biso   1.000  H
  H49      1.0000 0.29800  0.24730  0.36810  Biso   1.000  H
  H50      1.0000 0.79800  0.74730  0.36810  Biso   1.000  H
  H51      1.0000 0.29800  0.75270  0.86810  Biso   1.000  H
  H52      1.0000 0.79800  0.25270  0.86810  Biso   1.000  H
  H53      1.0000 0.70200  0.75270  0.63190  Biso   1.000  H
  H54      1.0000 0.20200  0.25270  0.63190  Biso   1.000  H
  H55      1.0000 0.70200  0.24730  0.13190  Biso   1.000  H
  H56      1.0000 0.20200  0.74730  0.13190  Biso   1.000  H
  B1       1.0000 0.00000  0.79250  0.25000  Biso   1.000  B
  B2       1.0000 0.50000  0.29250  0.25000  Biso   1.000  B
  B3       1.0000 0.00000  0.20750  0.75000  Biso   1.000  B
  B4       1.0000 0.50000  0.70750  0.75000  Biso   1.000  B
  F1       1.0000 0.99180  0.69470  0.11220  Biso   1.000  F
  F2       1.0000 0.49180  0.19470  0.11220  Biso   1.000  F
  F3       1.0000 0.99180  0.30530  0.61220  Biso   1.000  F
  F4       1.0000 0.49180  0.80530  0.61220  Biso   1.000  F
  F5       1.0000 0.00820  0.30530  0.88780  Biso   1.000  F
  F6       1.0000 0.50820  0.80530  0.88780  Biso   1.000  F
  F7       1.0000 0.00820  0.69470  0.38780  Biso   1.000  F
  F8       1.0000 0.50820  0.19470  0.38780  Biso   1.000  F
  F9       1.0000 0.95050  0.80250  0.26000  Biso   1.000  F
  F10      1.0000 0.45050  0.30250  0.26000  Biso   1.000  F
  F11      1.0000 0.95050  0.19750  0.76000  Biso   1.000  F
  F12      1.0000 0.45050  0.69750  0.76000  Biso   1.000  F
  F13      1.0000 0.04950  0.19750  0.74000  Biso   1.000  F
  F14      1.0000 0.54950  0.69750  0.74000  Biso   1.000  F
  F15      1.0000 0.04950  0.80250  0.24000  Biso   1.000  F
  F16      1.0000 0.54950  0.30250  0.24000  Biso   1.000  F
  F17      1.0000 0.00000  0.90620  0.12150  Biso   1.000  F
  F18      1.0000 0.50000  0.40620  0.12150  Biso   1.000  F
  F19      1.0000 0.00000  0.09380  0.62150  Biso   1.000  F
  F20      1.0000 0.50000  0.59380  0.62150  Biso   1.000  F
  F21      1.0000 0.00000  0.09380  0.87850  Biso   1.000  F
  F22      1.0000 0.50000  0.59380  0.87850  Biso   1.000  F
  F23      1.0000 0.00000  0.90620  0.37850  Biso   1.000  F
  F24      1.0000 0.50000  0.40620  0.37850  Biso   1.000  F
