data_image0
_cell_length_a       25.855
_cell_length_b       9.782
_cell_length_c       7.1201
_cell_angle_alpha    90
_cell_angle_beta     96.9
_cell_angle_gamma    90

_symmetry_space_group_name_H-M    "P 1"
_symmetry_int_tables_number       1

loop_
  _symmetry_equiv_pos_as_xyz
  'x, y, z'

loop_
  _atom_site_label
  _atom_site_occupancy
  _atom_site_fract_x
  _atom_site_fract_y
  _atom_site_fract_z
  _atom_site_thermal_displace_type
  _atom_site_B_iso_or_equiv
  _atom_site_type_symbol
  Ag1      1.0000 0.00000  0.13783  0.75000  Biso   1.000  Ag
  Ag2      1.0000 0.50000  0.63783  0.75000  Biso   1.000  Ag
  Ag3      1.0000 0.00000  0.86217  0.25000  Biso   1.000  Ag
  Ag4      1.0000 0.50000  0.36217  0.25000  Biso   1.000  Ag
  Cu1      1.0000 0.75000  0.25000  0.00000  Biso   1.000  Cu
  Cu2      1.0000 0.25000  0.75000  0.00000  Biso   1.000  Cu
  Cu3      1.0000 0.75000  0.75000  0.50000  Biso   1.000  Cu
  Cu4      1.0000 0.25000  0.25000  0.50000  Biso   1.000  Cu
  N1       1.0000 0.82035  0.24480  0.91040  Biso   1.000  N
  N2       1.0000 0.32035  0.74480  0.91040  Biso   1.000  N
  N3       1.0000 0.82035  0.75520  0.41040  Biso   1.000  N
  N4       1.0000 0.32035  0.25520  0.41040  Biso   1.000  N
  N5       1.0000 0.17965  0.75520  0.08960  Biso   1.000  N
  N6       1.0000 0.67965  0.25520  0.08960  Biso   1.000  N
  N7       1.0000 0.17965  0.24480  0.58960  Biso   1.000  N
  N8       1.0000 0.67965  0.74480  0.58960  Biso   1.000  N
  N9       1.0000 0.91899  0.19120  0.81630  Biso   1.000  N
  N10      1.0000 0.41899  0.69120  0.81630  Biso   1.000  N
  N11      1.0000 0.91899  0.80880  0.31630  Biso   1.000  N
  N12      1.0000 0.41899  0.30880  0.31630  Biso   1.000  N
  N13      1.0000 0.08101  0.80880  0.18370  Biso   1.000  N
  N14      1.0000 0.58101  0.30880  0.18370  Biso   1.000  N
  N15      1.0000 0.08101  0.19120  0.68370  Biso   1.000  N
  N16      1.0000 0.58101  0.69120  0.68370  Biso   1.000  N
  N17      1.0000 0.50000  0.69040  0.25000  Biso   1.000  N
  N18      1.0000 0.00000  0.19040  0.25000  Biso   1.000  N
  N19      1.0000 0.50000  0.30960  0.75000  Biso   1.000  N
  N20      1.0000 0.00000  0.80960  0.75000  Biso   1.000  N
  C1       1.0000 0.84234  0.12100  0.94170  Biso   1.000  C
  C2       1.0000 0.34234  0.62100  0.94170  Biso   1.000  C
  C3       1.0000 0.84234  0.87900  0.44170  Biso   1.000  C
  C4       1.0000 0.34234  0.37900  0.44170  Biso   1.000  C
  C5       1.0000 0.15766  0.87900  0.05830  Biso   1.000  C
  C6       1.0000 0.65766  0.37900  0.05830  Biso   1.000  C
  C7       1.0000 0.15766  0.12100  0.55830  Biso   1.000  C
  C8       1.0000 0.65766  0.62100  0.55830  Biso   1.000  C
  C9       1.0000 0.89198  0.09660  0.89840  Biso   1.000  C
  C10      1.0000 0.39198  0.59660  0.89840  Biso   1.000  C
  C11      1.0000 0.89198  0.90340  0.39840  Biso   1.000  C
  C12      1.0000 0.39198  0.40340  0.39840  Biso   1.000  C
  C13      1.0000 0.10802  0.90340  0.10160  Biso   1.000  C
  C14      1.0000 0.60802  0.40340  0.10160  Biso   1.000  C
  C15      1.0000 0.10802  0.09660  0.60160  Biso   1.000  C
  C16      1.0000 0.60802  0.59660  0.60160  Biso   1.000  C
  H1       1.0000 0.09280  0.01180  0.57290  Biso   1.000  H
  H2       1.0000 0.59280  0.51180  0.57290  Biso   1.000  H
  H3       1.0000 0.09280  0.98820  0.07290  Biso   1.000  H
  H4       1.0000 0.59280  0.48820  0.07290  Biso   1.000  H
  H5       1.0000 0.90720  0.98820  0.42710  Biso   1.000  H
  H6       1.0000 0.40720  0.48820  0.42710  Biso   1.000  H
  H7       1.0000 0.90720  0.01180  0.92710  Biso   1.000  H
  H8       1.0000 0.40720  0.51180  0.92710  Biso   1.000  H
  C17      1.0000 0.10399  0.31280  0.72430  Biso   1.000  C
  C18      1.0000 0.60399  0.81280  0.72430  Biso   1.000  C
  C19      1.0000 0.10399  0.68720  0.22430  Biso   1.000  C
  C20      1.0000 0.60399  0.18720  0.22430  Biso   1.000  C
  C21      1.0000 0.89601  0.68720  0.27570  Biso   1.000  C
  C22      1.0000 0.39601  0.18720  0.27570  Biso   1.000  C
  C23      1.0000 0.89601  0.31280  0.77570  Biso   1.000  C
  C24      1.0000 0.39601  0.81280  0.77570  Biso   1.000  C
  C25      1.0000 0.15324  0.33950  0.67200  Biso   1.000  C
  C26      1.0000 0.65324  0.83950  0.67200  Biso   1.000  C
  C27      1.0000 0.15324  0.66050  0.17200  Biso   1.000  C
  C28      1.0000 0.65324  0.16050  0.17200  Biso   1.000  C
  C29      1.0000 0.84676  0.66050  0.32800  Biso   1.000  C
  C30      1.0000 0.34676  0.16050  0.32800  Biso   1.000  C
  C31      1.0000 0.84676  0.33950  0.82800  Biso   1.000  C
  C32      1.0000 0.34676  0.83950  0.82800  Biso   1.000  C
  H9       1.0000 0.16790  0.42560  0.69520  Biso   1.000  H
  H10      1.0000 0.66790  0.92560  0.69520  Biso   1.000  H
  H11      1.0000 0.16790  0.57440  0.19520  Biso   1.000  H
  H12      1.0000 0.66790  0.07440  0.19520  Biso   1.000  H
  H13      1.0000 0.83210  0.57440  0.30480  Biso   1.000  H
  H14      1.0000 0.33210  0.07440  0.30480  Biso   1.000  H
  H15      1.0000 0.83210  0.42560  0.80480  Biso   1.000  H
  H16      1.0000 0.33210  0.92560  0.80480  Biso   1.000  H
  C33      1.0000 0.19168  0.01370  0.48590  Biso   1.000  C
  C34      1.0000 0.69168  0.51370  0.48590  Biso   1.000  C
  C35      1.0000 0.19168  0.98630  0.98590  Biso   1.000  C
  C36      1.0000 0.69168  0.48630  0.98590  Biso   1.000  C
  C37      1.0000 0.80832  0.98630  0.51410  Biso   1.000  C
  C38      1.0000 0.30832  0.48630  0.51410  Biso   1.000  C
  C39      1.0000 0.80832  0.01370  0.01410  Biso   1.000  C
  C40      1.0000 0.30832  0.51370  0.01410  Biso   1.000  C
  C41      1.0000 0.07610  0.41790  0.82600  Biso   1.000  C
  C42      1.0000 0.57610  0.91790  0.82600  Biso   1.000  C
  C43      1.0000 0.07610  0.58210  0.32600  Biso   1.000  C
  C44      1.0000 0.57610  0.08210  0.32600  Biso   1.000  C
  C45      1.0000 0.92390  0.58210  0.17400  Biso   1.000  C
  C46      1.0000 0.42390  0.08210  0.17400  Biso   1.000  C
  C47      1.0000 0.92390  0.41790  0.67400  Biso   1.000  C
  C48      1.0000 0.42390  0.91790  0.67400  Biso   1.000  C
  H17      1.0000 0.06590  0.37890  0.93960  Biso   1.000  H
  H18      1.0000 0.56590  0.87890  0.93960  Biso   1.000  H
  H19      1.0000 0.06590  0.62110  0.43960  Biso   1.000  H
  H20      1.0000 0.56590  0.12110  0.43960  Biso   1.000  H
  H21      1.0000 0.93410  0.62110  0.06040  Biso   1.000  H
  H22      1.0000 0.43410  0.12110  0.06040  Biso   1.000  H
  H23      1.0000 0.93410  0.37890  0.56040  Biso   1.000  H
  H24      1.0000 0.43410  0.87890  0.56040  Biso   1.000  H
  H25      1.0000 0.09890  0.49420  0.85790  Biso   1.000  H
  H26      1.0000 0.59890  0.99420  0.85790  Biso   1.000  H
  H27      1.0000 0.09890  0.50580  0.35790  Biso   1.000  H
  H28      1.0000 0.59890  0.00580  0.35790  Biso   1.000  H
  H29      1.0000 0.90110  0.50580  0.14210  Biso   1.000  H
  H30      1.0000 0.40110  0.00580  0.14210  Biso   1.000  H
  H31      1.0000 0.90110  0.49420  0.64210  Biso   1.000  H
  H32      1.0000 0.40110  0.99420  0.64210  Biso   1.000  H
  H33      1.0000 0.04580  0.44830  0.74600  Biso   1.000  H
  H34      1.0000 0.54580  0.94830  0.74600  Biso   1.000  H
  H35      1.0000 0.04580  0.55170  0.24600  Biso   1.000  H
  H36      1.0000 0.54580  0.05170  0.24600  Biso   1.000  H
  H37      1.0000 0.95420  0.55170  0.25400  Biso   1.000  H
  H38      1.0000 0.45420  0.05170  0.25400  Biso   1.000  H
  H39      1.0000 0.95420  0.44830  0.75400  Biso   1.000  H
  H40      1.0000 0.45420  0.94830  0.75400  Biso   1.000  H
  O1       1.0000 0.23504  0.05700  0.43920  Biso   1.000  O
  O2       1.0000 0.73504  0.55700  0.43920  Biso   1.000  O
  O3       1.0000 0.23504  0.94300  0.93920  Biso   1.000  O
  O4       1.0000 0.73504  0.44300  0.93920  Biso   1.000  O
  O5       1.0000 0.76496  0.94300  0.56080  Biso   1.000  O
  O6       1.0000 0.26496  0.44300  0.56080  Biso   1.000  O
  O7       1.0000 0.76496  0.05700  0.06080  Biso   1.000  O
  O8       1.0000 0.26496  0.55700  0.06080  Biso   1.000  O
  O9       1.0000 0.17660  0.89470  0.47970  Biso   1.000  O
  O10      1.0000 0.67660  0.39470  0.47970  Biso   1.000  O
  O11      1.0000 0.17660  0.10530  0.97970  Biso   1.000  O
  O12      1.0000 0.67660  0.60530  0.97970  Biso   1.000  O
  O13      1.0000 0.82340  0.10530  0.52030  Biso   1.000  O
  O14      1.0000 0.32340  0.60530  0.52030  Biso   1.000  O
  O15      1.0000 0.82340  0.89470  0.02030  Biso   1.000  O
  O16      1.0000 0.32340  0.39470  0.02030  Biso   1.000  O
  O17      1.0000 0.79314  0.33400  0.30220  Biso   1.000  O
  O18      1.0000 0.29314  0.83400  0.30220  Biso   1.000  O
  O19      1.0000 0.79314  0.66600  0.80220  Biso   1.000  O
  O20      1.0000 0.29314  0.16600  0.80220  Biso   1.000  O
  O21      1.0000 0.20686  0.66600  0.69780  Biso   1.000  O
  O22      1.0000 0.70686  0.16600  0.69780  Biso   1.000  O
  O23      1.0000 0.20686  0.33400  0.19780  Biso   1.000  O
  O24      1.0000 0.70686  0.83400  0.19780  Biso   1.000  O
  O25      1.0000 0.52290  0.62430  0.14140  Biso   1.000  O
  O26      1.0000 0.02290  0.12430  0.14140  Biso   1.000  O
  O27      1.0000 0.52290  0.37570  0.64140  Biso   1.000  O
  O28      1.0000 0.02290  0.87570  0.64140  Biso   1.000  O
  O29      1.0000 0.47710  0.37570  0.85860  Biso   1.000  O
  O30      1.0000 0.97710  0.87570  0.85860  Biso   1.000  O
  O31      1.0000 0.47710  0.62430  0.35860  Biso   1.000  O
  O32      1.0000 0.97710  0.12430  0.35860  Biso   1.000  O
  O33      1.0000 0.50000  0.81010  0.25000  Biso   1.000  O
  O34      1.0000 0.00000  0.31010  0.25000  Biso   1.000  O
  O35      1.0000 0.50000  0.18990  0.75000  Biso   1.000  O
  O36      1.0000 0.00000  0.68990  0.75000  Biso   1.000  O
  H41      1.0000 0.77970  0.39810  0.36940  Biso   1.000  H
  H42      1.0000 0.27970  0.89810  0.36940  Biso   1.000  H
  H43      1.0000 0.77970  0.60190  0.86940  Biso   1.000  H
  H44      1.0000 0.27970  0.10190  0.86940  Biso   1.000  H
  H45      1.0000 0.22030  0.60190  0.63060  Biso   1.000  H
  H46      1.0000 0.72030  0.10190  0.63060  Biso   1.000  H
  H47      1.0000 0.22030  0.39810  0.13060  Biso   1.000  H
  H48      1.0000 0.72030  0.89810  0.13060  Biso   1.000  H
  H49      1.0000 0.80060  0.26790  0.39350  Biso   1.000  H
  H50      1.0000 0.30060  0.76790  0.39350  Biso   1.000  H
  H51      1.0000 0.80060  0.73210  0.89350  Biso   1.000  H
  H52      1.0000 0.30060  0.23210  0.89350  Biso   1.000  H
  H53      1.0000 0.19940  0.73210  0.60650  Biso   1.000  H
  H54      1.0000 0.69940  0.23210  0.60650  Biso   1.000  H
  H55      1.0000 0.19940  0.26790  0.10650  Biso   1.000  H
  H56      1.0000 0.69940  0.76790  0.10650  Biso   1.000  H
