data_image0
_cell_length_a       20.45
_cell_length_b       11.36
_cell_length_c       6.429
_cell_angle_alpha    90
_cell_angle_beta     90
_cell_angle_gamma    90

_symmetry_space_group_name_H-M    "P 1"
_symmetry_int_tables_number       1

loop_
  _symmetry_equiv_pos_as_xyz
  'x, y, z'

loop_
  _atom_site_label
  _atom_site_occupancy
  _atom_site_fract_x
  _atom_site_fract_y
  _atom_site_fract_z
  _atom_site_thermal_displace_type
  _atom_site_B_iso_or_equiv
  _atom_site_type_symbol
  Cu1      1.0000 0.18768  0.33308  0.47740  Biso   1.000  Cu
  Cu2      1.0000 0.31232  0.66692  0.97740  Biso   1.000  Cu
  Cu3      1.0000 0.68768  0.16692  0.52260  Biso   1.000  Cu
  Cu4      1.0000 0.81232  0.83308  0.02260  Biso   1.000  Cu
  Cu5      1.0000 0.01013  0.33322  0.47688  Biso   1.000  Cu
  Cu6      1.0000 0.48987  0.66678  0.97688  Biso   1.000  Cu
  Cu7      1.0000 0.51013  0.16678  0.52312  Biso   1.000  Cu
  Cu8      1.0000 0.98987  0.83322  0.02312  Biso   1.000  Cu
  O1       1.0000 0.09830  0.28880  0.40510  Biso   1.000  O
  O2       1.0000 0.40170  0.71120  0.90510  Biso   1.000  O
  O3       1.0000 0.59830  0.21120  0.59490  Biso   1.000  O
  O4       1.0000 0.90170  0.78880  0.09490  Biso   1.000  O
  N1       1.0000 0.98050  0.21830  0.25950  Biso   1.000  N
  N2       1.0000 0.51950  0.78170  0.75950  Biso   1.000  N
  N3       1.0000 0.48050  0.28170  0.74050  Biso   1.000  N
  N4       1.0000 0.01950  0.71830  0.24050  Biso   1.000  N
  N5       1.0000 0.21740  0.21160  0.26720  Biso   1.000  N
  N6       1.0000 0.28260  0.78840  0.76720  Biso   1.000  N
  N7       1.0000 0.71740  0.28840  0.73280  Biso   1.000  N
  N8       1.0000 0.78260  0.71160  0.23280  Biso   1.000  N
  N9       1.0000 0.04190  0.44000  0.69800  Biso   1.000  N
  N10      1.0000 0.45810  0.56000  0.19800  Biso   1.000  N
  N11      1.0000 0.54190  0.06000  0.30200  Biso   1.000  N
  N12      1.0000 0.95810  0.94000  0.80200  Biso   1.000  N
  N13      1.0000 0.15540  0.43610  0.71540  Biso   1.000  N
  N14      1.0000 0.34460  0.56390  0.21540  Biso   1.000  N
  N15      1.0000 0.65540  0.06390  0.28460  Biso   1.000  N
  N16      1.0000 0.84460  0.93610  0.78460  Biso   1.000  N
  N17      1.0000 0.09850  0.43910  0.71090  Biso   1.000  N
  N18      1.0000 0.40150  0.56090  0.21090  Biso   1.000  N
  N19      1.0000 0.59850  0.06090  0.28910  Biso   1.000  N
  N20      1.0000 0.90150  0.93910  0.78910  Biso   1.000  N
  N21      1.0000 0.92110  0.37830  0.53670  Biso   1.000  N
  N22      1.0000 0.57890  0.62170  0.03670  Biso   1.000  N
  N23      1.0000 0.42110  0.12170  0.46330  Biso   1.000  N
  N24      1.0000 0.07890  0.87830  0.96330  Biso   1.000  N
  N25      1.0000 0.90900  0.44600  0.67350  Biso   1.000  N
  N26      1.0000 0.59100  0.55400  0.17350  Biso   1.000  N
  N27      1.0000 0.40900  0.05400  0.32650  Biso   1.000  N
  N28      1.0000 0.09100  0.94600  0.82650  Biso   1.000  N
  N29      1.0000 0.89430  0.51470  0.79490  Biso   1.000  N
  N30      1.0000 0.60570  0.48530  0.29490  Biso   1.000  N
  N31      1.0000 0.39430  0.98530  0.20510  Biso   1.000  N
  N32      1.0000 0.10570  0.01470  0.70510  Biso   1.000  N
  N33      1.0000 0.27620  0.34350  0.59160  Biso   1.000  N
  N34      1.0000 0.22380  0.65650  0.09160  Biso   1.000  N
  N35      1.0000 0.77620  0.15650  0.40840  Biso   1.000  N
  N36      1.0000 0.72380  0.84350  0.90840  Biso   1.000  N
  N37      1.0000 0.29230  0.42930  0.67420  Biso   1.000  N
  N38      1.0000 0.20770  0.57070  0.17420  Biso   1.000  N
  N39      1.0000 0.79230  0.07070  0.32580  Biso   1.000  N
  N40      1.0000 0.70770  0.92930  0.82580  Biso   1.000  N
  N41      1.0000 0.31320  0.51220  0.74750  Biso   1.000  N
  N42      1.0000 0.18680  0.48780  0.24750  Biso   1.000  N
  N43      1.0000 0.81320  0.98780  0.25250  Biso   1.000  N
  N44      1.0000 0.68680  0.01220  0.75250  Biso   1.000  N
  C1       1.0000 0.96200  0.10990  0.37400  Biso   1.000  C
  C2       1.0000 0.53800  0.89010  0.87400  Biso   1.000  C
  C3       1.0000 0.46200  0.39010  0.62600  Biso   1.000  C
  C4       1.0000 0.03800  0.60990  0.12600  Biso   1.000  C
  H1       1.0000 0.92430  0.12540  0.45840  Biso   1.000  H
  H2       1.0000 0.57570  0.87460  0.95840  Biso   1.000  H
  H3       1.0000 0.42430  0.37460  0.54160  Biso   1.000  H
  H4       1.0000 0.07570  0.62540  0.04160  Biso   1.000  H
  H5       1.0000 0.99770  0.08540  0.46050  Biso   1.000  H
  H6       1.0000 0.50230  0.91460  0.96050  Biso   1.000  H
  H7       1.0000 0.49770  0.41460  0.53950  Biso   1.000  H
  H8       1.0000 0.00230  0.58540  0.03950  Biso   1.000  H
  H9       1.0000 0.95200  0.04860  0.27590  Biso   1.000  H
  H10      1.0000 0.54800  0.95140  0.77590  Biso   1.000  H
  H11      1.0000 0.45200  0.45140  0.72410  Biso   1.000  H
  H12      1.0000 0.04800  0.54860  0.22410  Biso   1.000  H
  C5       1.0000 0.92350  0.25340  0.13250  Biso   1.000  C
  C6       1.0000 0.57650  0.74660  0.63250  Biso   1.000  C
  C7       1.0000 0.42350  0.24660  0.86750  Biso   1.000  C
  C8       1.0000 0.07650  0.75340  0.36750  Biso   1.000  C
  H13      1.0000 0.88630  0.26510  0.22140  Biso   1.000  H
  H14      1.0000 0.61370  0.73490  0.72140  Biso   1.000  H
  H15      1.0000 0.38630  0.23490  0.77860  Biso   1.000  H
  H16      1.0000 0.11370  0.76510  0.27860  Biso   1.000  H
  H17      1.0000 0.91390  0.19250  0.03350  Biso   1.000  H
  H18      1.0000 0.58610  0.80750  0.53350  Biso   1.000  H
  H19      1.0000 0.41390  0.30750  0.96650  Biso   1.000  H
  H20      1.0000 0.08610  0.69250  0.46650  Biso   1.000  H
  H21      1.0000 0.93320  0.32520  0.06020  Biso   1.000  H
  H22      1.0000 0.56680  0.67480  0.56020  Biso   1.000  H
  H23      1.0000 0.43320  0.17480  0.93980  Biso   1.000  H
  H24      1.0000 0.06680  0.82520  0.43980  Biso   1.000  H
  C9       1.0000 0.03820  0.19860  0.12790  Biso   1.000  C
  C10      1.0000 0.46180  0.80140  0.62790  Biso   1.000  C
  C11      1.0000 0.53820  0.30140  0.87210  Biso   1.000  C
  C12      1.0000 0.96180  0.69860  0.37210  Biso   1.000  C
  H25      1.0000 0.04210  0.26220  0.02800  Biso   1.000  H
  H26      1.0000 0.45790  0.73780  0.52800  Biso   1.000  H
  H27      1.0000 0.54210  0.23780  0.97200  Biso   1.000  H
  H28      1.0000 0.95790  0.76220  0.47200  Biso   1.000  H
  H29      1.0000 0.03300  0.12560  0.05140  Biso   1.000  H
  H30      1.0000 0.46700  0.87440  0.55140  Biso   1.000  H
  H31      1.0000 0.53300  0.37440  0.94860  Biso   1.000  H
  H32      1.0000 0.96700  0.62560  0.44860  Biso   1.000  H
  C13      1.0000 0.10020  0.19250  0.26080  Biso   1.000  C
  C14      1.0000 0.39980  0.80750  0.76080  Biso   1.000  C
  C15      1.0000 0.60020  0.30750  0.73920  Biso   1.000  C
  C16      1.0000 0.89980  0.69250  0.23920  Biso   1.000  C
  H33      1.0000 0.10040  0.11830  0.33850  Biso   1.000  H
  H34      1.0000 0.39960  0.88170  0.83850  Biso   1.000  H
  H35      1.0000 0.60040  0.38170  0.66150  Biso   1.000  H
  H36      1.0000 0.89960  0.61830  0.16150  Biso   1.000  H
  C17      1.0000 0.15920  0.19800  0.12900  Biso   1.000  C
  C18      1.0000 0.34080  0.80200  0.62900  Biso   1.000  C
  C19      1.0000 0.65920  0.30200  0.87100  Biso   1.000  C
  C20      1.0000 0.84080  0.69800  0.37100  Biso   1.000  C
  H37      1.0000 0.15620  0.26430  0.03440  Biso   1.000  H
  H38      1.0000 0.34380  0.73570  0.53440  Biso   1.000  H
  H39      1.0000 0.65620  0.23570  0.96560  Biso   1.000  H
  H40      1.0000 0.84380  0.76430  0.46560  Biso   1.000  H
  H41      1.0000 0.16310  0.12660  0.04730  Biso   1.000  H
  H42      1.0000 0.33690  0.87340  0.54730  Biso   1.000  H
  H43      1.0000 0.66310  0.37340  0.95270  Biso   1.000  H
  H44      1.0000 0.83690  0.62660  0.45270  Biso   1.000  H
  C21      1.0000 0.23440  0.10340  0.37500  Biso   1.000  C
  C22      1.0000 0.26560  0.89660  0.87500  Biso   1.000  C
  C23      1.0000 0.73440  0.39660  0.62500  Biso   1.000  C
  C24      1.0000 0.76560  0.60340  0.12500  Biso   1.000  C
  H45      1.0000 0.19780  0.07770  0.45700  Biso   1.000  H
  H46      1.0000 0.30220  0.92230  0.95700  Biso   1.000  H
  H47      1.0000 0.69780  0.42230  0.54300  Biso   1.000  H
  H48      1.0000 0.80220  0.57770  0.04300  Biso   1.000  H
  H49      1.0000 0.27120  0.11730  0.46410  Biso   1.000  H
  H50      1.0000 0.22880  0.88270  0.96410  Biso   1.000  H
  H51      1.0000 0.77120  0.38270  0.53590  Biso   1.000  H
  H52      1.0000 0.72880  0.61730  0.03590  Biso   1.000  H
  H53      1.0000 0.24520  0.04370  0.27500  Biso   1.000  H
  H54      1.0000 0.25480  0.95630  0.77500  Biso   1.000  H
  H55      1.0000 0.74520  0.45630  0.72500  Biso   1.000  H
  H56      1.0000 0.75480  0.54370  0.22500  Biso   1.000  H
  C25      1.0000 0.27490  0.24830  0.14310  Biso   1.000  C
  C26      1.0000 0.22510  0.75170  0.64310  Biso   1.000  C
  C27      1.0000 0.77490  0.25170  0.85690  Biso   1.000  C
  C28      1.0000 0.72510  0.74830  0.35690  Biso   1.000  C
  H57      1.0000 0.26520  0.32070  0.07230  Biso   1.000  H
  H58      1.0000 0.23480  0.67930  0.57230  Biso   1.000  H
  H59      1.0000 0.76520  0.17930  0.92770  Biso   1.000  H
  H60      1.0000 0.73480  0.82070  0.42770  Biso   1.000  H
  H61      1.0000 0.28500  0.18840  0.04290  Biso   1.000  H
  H62      1.0000 0.21500  0.81160  0.54290  Biso   1.000  H
  H63      1.0000 0.78500  0.31160  0.95710  Biso   1.000  H
  H64      1.0000 0.71500  0.68840  0.45710  Biso   1.000  H
  H65      1.0000 0.31170  0.25970  0.23370  Biso   1.000  H
  H66      1.0000 0.18830  0.74030  0.73370  Biso   1.000  H
  H67      1.0000 0.81170  0.24030  0.76630  Biso   1.000  H
  H68      1.0000 0.68830  0.75970  0.26630  Biso   1.000  H
