data_image0
_cell_length_a       12.3573
_cell_length_b       14.1055
_cell_length_c       14.1822
_cell_angle_alpha    104.195
_cell_angle_beta     110.017
_cell_angle_gamma    104.945

_symmetry_space_group_name_H-M    "P 1"
_symmetry_int_tables_number       1

loop_
  _symmetry_equiv_pos_as_xyz
  'x, y, z'

loop_
  _atom_site_label
  _atom_site_occupancy
  _atom_site_fract_x
  _atom_site_fract_y
  _atom_site_fract_z
  _atom_site_thermal_displace_type
  _atom_site_B_iso_or_equiv
  _atom_site_type_symbol
  Cu1      1.0000 0.37128  0.41959  0.41441  Biso   1.000  Cu
  Cu2      1.0000 0.62872  0.58041  0.58559  Biso   1.000  Cu
  Cu3      1.0000 0.13136  0.08183  0.03933  Biso   1.000  Cu
  Cu4      1.0000 0.86864  0.91817  0.96067  Biso   1.000  Cu
  Cu5      1.0000 0.37451  0.46467  0.00414  Biso   1.000  Cu
  Cu6      1.0000 0.62549  0.53533  0.99586  Biso   1.000  Cu
  O1       1.0000 0.52930  0.42750  0.51650  Biso   1.000  O
  O2       1.0000 0.47070  0.57250  0.48350  Biso   1.000  O
  C1       1.0000 0.55710  0.34060  0.50880  Biso   1.000  C
  C2       1.0000 0.44290  0.65940  0.49120  Biso   1.000  C
  C3       1.0000 0.66910  0.33860  0.51240  Biso   1.000  C
  C4       1.0000 0.33090  0.66140  0.48760  Biso   1.000  C
  H1       1.0000 0.72870  0.39940  0.51810  Biso   1.000  H
  H2       1.0000 0.27130  0.60060  0.48190  Biso   1.000  H
  C5       1.0000 0.69540  0.24900  0.50770  Biso   1.000  C
  C6       1.0000 0.30460  0.75100  0.49230  Biso   1.000  C
  H3       1.0000 0.77310  0.24970  0.51200  Biso   1.000  H
  H4       1.0000 0.22690  0.75030  0.48800  Biso   1.000  H
  C7       1.0000 0.60900  0.15940  0.49710  Biso   1.000  C
  C8       1.0000 0.39100  0.84060  0.50290  Biso   1.000  C
  H5       1.0000 0.62700  0.09800  0.49320  Biso   1.000  H
  H6       1.0000 0.37300  0.90200  0.50680  Biso   1.000  H
  C9       1.0000 0.49700  0.15950  0.49200  Biso   1.000  C
  C10      1.0000 0.50300  0.84050  0.50800  Biso   1.000  C
  H7       1.0000 0.43740  0.09740  0.48420  Biso   1.000  H
  H8       1.0000 0.56260  0.90260  0.51580  Biso   1.000  H
  C11      1.0000 0.46830  0.24930  0.49820  Biso   1.000  C
  C12      1.0000 0.53170  0.75070  0.50180  Biso   1.000  C
  C13      1.0000 0.34890  0.25360  0.49990  Biso   1.000  C
  C14      1.0000 0.65110  0.74640  0.50010  Biso   1.000  C
  H9       1.0000 0.29830  0.18500  0.49520  Biso   1.000  H
  H10      1.0000 0.70170  0.81500  0.50480  Biso   1.000  H
  H11      1.0000 0.36750  0.30640  0.56870  Biso   1.000  H
  H12      1.0000 0.63250  0.69360  0.43130  Biso   1.000  H
  N1       1.0000 0.27620  0.28070  0.40980  Biso   1.000  N
  N2       1.0000 0.72380  0.71930  0.59020  Biso   1.000  N
  H13      1.0000 0.26700  0.24000  0.35400  Biso   1.000  H
  H14      1.0000 0.73300  0.76000  0.64600  Biso   1.000  H
  C15      1.0000 0.15360  0.27640  0.40590  Biso   1.000  C
  C16      1.0000 0.84640  0.72360  0.59410  Biso   1.000  C
  H15      1.0000 0.11390  0.20860  0.41130  Biso   1.000  H
  H16      1.0000 0.88610  0.79140  0.58870  Biso   1.000  H
  C17      1.0000 0.16700  0.36410  0.50130  Biso   1.000  C
  C18      1.0000 0.83300  0.63590  0.49870  Biso   1.000  C
  H17      1.0000 0.21620  0.35790  0.56860  Biso   1.000  H
  H18      1.0000 0.78380  0.64210  0.43140  Biso   1.000  H
  H19      1.0000 0.21080  0.43260  0.50120  Biso   1.000  H
  H20      1.0000 0.78920  0.56740  0.49880  Biso   1.000  H
  C19      1.0000 0.04100  0.35930  0.49700  Biso   1.000  C
  C20      1.0000 0.95900  0.64070  0.50300  Biso   1.000  C
  H21      1.0000 0.00240  0.29580  0.50850  Biso   1.000  H
  H22      1.0000 0.99760  0.70420  0.49150  Biso   1.000  H
  H23      1.0000 0.05240  0.42080  0.55530  Biso   1.000  H
  H24      1.0000 0.94760  0.57920  0.44470  Biso   1.000  H
  C21      1.0000 0.95600  0.35740  0.39000  Biso   1.000  C
  C22      1.0000 0.04400  0.64260  0.61000  Biso   1.000  C
  H25      1.0000 0.87380  0.34900  0.38790  Biso   1.000  H
  H26      1.0000 0.12620  0.65100  0.61210  Biso   1.000  H
  H27      1.0000 0.98940  0.42470  0.38230  Biso   1.000  H
  H28      1.0000 0.01060  0.57530  0.61770  Biso   1.000  H
  C23      1.0000 0.94330  0.26840  0.29750  Biso   1.000  C
  C24      1.0000 0.05670  0.73160  0.70250  Biso   1.000  C
  H29      1.0000 0.88920  0.26990  0.22920  Biso   1.000  H
  H30      1.0000 0.11080  0.73010  0.77080  Biso   1.000  H
  H31      1.0000 0.90420  0.20090  0.30230  Biso   1.000  H
  H32      1.0000 0.09580  0.79910  0.69770  Biso   1.000  H
  C25      1.0000 0.06920  0.27630  0.29850  Biso   1.000  C
  C26      1.0000 0.93080  0.72370  0.70150  Biso   1.000  C
  H33      1.0000 0.05510  0.21130  0.24160  Biso   1.000  H
  H34      1.0000 0.94490  0.78870  0.75840  Biso   1.000  H
  C27      1.0000 0.11530  0.36900  0.26560  Biso   1.000  C
  C28      1.0000 0.88470  0.63100  0.73440  Biso   1.000  C
  O3       1.0000 0.22920  0.43340  0.31820  Biso   1.000  O
  O4       1.0000 0.77080  0.56660  0.68180  Biso   1.000  O
  O5       1.0000 0.04160  0.37940  0.18950  Biso   1.000  O
  O6       1.0000 0.95840  0.62060  0.81050  Biso   1.000  O
  O7       1.0000 0.98240  0.98550  0.90770  Biso   1.000  O
  O8       1.0000 0.01760  0.01450  0.09230  Biso   1.000  O
  C29      1.0000 0.96610  0.99710  0.81280  Biso   1.000  C
  C30      1.0000 0.03390  0.00290  0.18720  Biso   1.000  C
  C31      1.0000 0.85560  0.99930  0.74480  Biso   1.000  C
  C32      1.0000 0.14440  0.00070  0.25520  Biso   1.000  C
  H35      1.0000 0.78890  0.99100  0.76380  Biso   1.000  H
  H36      1.0000 0.21110  0.00900  0.23620  Biso   1.000  H
  C33      1.0000 0.84370  0.01350  0.64970  Biso   1.000  C
  C34      1.0000 0.15630  0.98650  0.35030  Biso   1.000  C
  H37      1.0000 0.76910  0.01630  0.60500  Biso   1.000  H
  H38      1.0000 0.23090  0.98370  0.39500  Biso   1.000  H
  C35      1.0000 0.93900  0.02370  0.61920  Biso   1.000  C
  C36      1.0000 0.06100  0.97630  0.38080  Biso   1.000  C
  H39      1.0000 0.92890  0.03170  0.55320  Biso   1.000  H
  H40      1.0000 0.07110  0.96830  0.44680  Biso   1.000  H
  C37      1.0000 0.04840  0.02200  0.68660  Biso   1.000  C
  C38      1.0000 0.95160  0.97800  0.31340  Biso   1.000  C
  H41      1.0000 0.11400  0.02940  0.66620  Biso   1.000  H
  H42      1.0000 0.88600  0.97060  0.33380  Biso   1.000  H
  C39      1.0000 0.06460  0.00960  0.78370  Biso   1.000  C
  C40      1.0000 0.93540  0.99040  0.21630  Biso   1.000  C
  C41      1.0000 0.18570  0.01220  0.85930  Biso   1.000  C
  C42      1.0000 0.81430  0.98780  0.14070  Biso   1.000  C
  H43      1.0000 0.17270  0.94550  0.87130  Biso   1.000  H
  H44      1.0000 0.82730  0.05450  0.12870  Biso   1.000  H
  H45      1.0000 0.24440  0.02030  0.82700  Biso   1.000  H
  H46      1.0000 0.75560  0.97970  0.17300  Biso   1.000  H
  N3       1.0000 0.23810  0.10060  0.96360  Biso   1.000  N
  N4       1.0000 0.76190  0.89940  0.03640  Biso   1.000  N
  H47      1.0000 0.23400  0.15300  0.95300  Biso   1.000  H
  H48      1.0000 0.76600  0.84700  0.04700  Biso   1.000  H
  C43      1.0000 0.36960  0.12410  0.03400  Biso   1.000  C
  C44      1.0000 0.63040  0.87590  0.96600  Biso   1.000  C
  H49      1.0000 0.41530  0.12630  0.98880  Biso   1.000  H
  H50      1.0000 0.58470  0.87370  0.01120  Biso   1.000  H
  C45      1.0000 0.38440  0.03840  0.07900  Biso   1.000  C
  C46      1.0000 0.61560  0.96160  0.92100  Biso   1.000  C
  H51      1.0000 0.34990  0.97040  0.01950  Biso   1.000  H
  H52      1.0000 0.65010  0.02960  0.98050  Biso   1.000  H
  H53      1.0000 0.33870  0.03280  0.12320  Biso   1.000  H
  H54      1.0000 0.66130  0.96720  0.87680  Biso   1.000  H
  C47      1.0000 0.52180  0.06520  0.14760  Biso   1.000  C
  C48      1.0000 0.47820  0.93480  0.85240  Biso   1.000  C
  H55      1.0000 0.53070  0.01170  0.17930  Biso   1.000  H
  H56      1.0000 0.46930  0.98830  0.82070  Biso   1.000  H
  H57      1.0000 0.56590  0.06450  0.10180  Biso   1.000  H
  H58      1.0000 0.43410  0.93550  0.89820  Biso   1.000  H
  C49      1.0000 0.57860  0.17220  0.23620  Biso   1.000  C
  C50      1.0000 0.42140  0.82780  0.76380  Biso   1.000  C
  H59      1.0000 0.53860  0.17110  0.28500  Biso   1.000  H
  H60      1.0000 0.46140  0.82890  0.71500  Biso   1.000  H
  H61      1.0000 0.66710  0.18860  0.27790  Biso   1.000  H
  H62      1.0000 0.33290  0.81140  0.72210  Biso   1.000  H
  C51      1.0000 0.56370  0.25660  0.19110  Biso   1.000  C
  C52      1.0000 0.43630  0.74340  0.80890  Biso   1.000  C
  H63      1.0000 0.60920  0.26140  0.14670  Biso   1.000  H
  H64      1.0000 0.39080  0.73860  0.85330  Biso   1.000  H
  H65      1.0000 0.59960  0.32490  0.25060  Biso   1.000  H
  H66      1.0000 0.40040  0.67510  0.74940  Biso   1.000  H
  C53      1.0000 0.42580  0.23310  0.12210  Biso   1.000  C
  C54      1.0000 0.57420  0.76690  0.87790  Biso   1.000  C
  H67      1.0000 0.42370  0.28470  0.08570  Biso   1.000  H
  H68      1.0000 0.57630  0.71530  0.91430  Biso   1.000  H
  C55      1.0000 0.36010  0.25240  0.19520  Biso   1.000  C
  C56      1.0000 0.63990  0.74760  0.80480  Biso   1.000  C
  O9       1.0000 0.25830  0.18310  0.17790  Biso   1.000  O
  O10      1.0000 0.74170  0.81690  0.82210  Biso   1.000  O
  O11      1.0000 0.41080  0.33870  0.27030  Biso   1.000  O
  O12      1.0000 0.58920  0.66130  0.72970  Biso   1.000  O
  O13      1.0000 0.51010  0.59340  0.03060  Biso   1.000  O
  O14      1.0000 0.48990  0.40660  0.96940  Biso   1.000  O
  C57      1.0000 0.52800  0.68200  0.10670  Biso   1.000  C
  C58      1.0000 0.47200  0.31800  0.89330  Biso   1.000  C
  C59      1.0000 0.63890  0.73980  0.19880  Biso   1.000  C
  C60      1.0000 0.36110  0.26020  0.80120  Biso   1.000  C
  H69      1.0000 0.70820  0.72060  0.20790  Biso   1.000  H
  H70      1.0000 0.29180  0.27940  0.79210  Biso   1.000  H
  C61      1.0000 0.64700  0.82530  0.27690  Biso   1.000  C
  C62      1.0000 0.35300  0.17470  0.72310  Biso   1.000  C
  H71      1.0000 0.72230  0.86360  0.33950  Biso   1.000  H
  H72      1.0000 0.27770  0.13640  0.66050  Biso   1.000  H
  C63      1.0000 0.54800  0.85570  0.26550  Biso   1.000  C
  C64      1.0000 0.45200  0.14430  0.73450  Biso   1.000  C
  H73      1.0000 0.55570  0.91410  0.31980  Biso   1.000  H
  H74      1.0000 0.44430  0.08590  0.68020  Biso   1.000  H
  C65      1.0000 0.43800  0.79990  0.17370  Biso   1.000  C
  C66      1.0000 0.56200  0.20010  0.82630  Biso   1.000  C
  H75      1.0000 0.37020  0.82090  0.16510  Biso   1.000  H
  H76      1.0000 0.62980  0.17910  0.83490  Biso   1.000  H
  C67      1.0000 0.42670  0.71360  0.09440  Biso   1.000  C
  C68      1.0000 0.57330  0.28640  0.90560  Biso   1.000  C
  C69      1.0000 0.30600  0.64560  0.99910  Biso   1.000  C
  C70      1.0000 0.69400  0.35440  0.00090  Biso   1.000  C
  H77      1.0000 0.24500  0.67870  0.99670  Biso   1.000  H
  H78      1.0000 0.75500  0.32130  0.00330  Biso   1.000  H
  H79      1.0000 0.31690  0.63690  0.93260  Biso   1.000  H
  H80      1.0000 0.68310  0.36310  0.06740  Biso   1.000  H
  N5       1.0000 0.26090  0.54090  0.00750  Biso   1.000  N
  N6       1.0000 0.73910  0.45910  0.99250  Biso   1.000  N
  H81      1.0000 0.26400  0.55400  0.07000  Biso   1.000  H
  H82      1.0000 0.73600  0.44600  0.93000  Biso   1.000  H
  C71      1.0000 0.13020  0.47600  0.92820  Biso   1.000  C
  C72      1.0000 0.86980  0.52400  0.07180  Biso   1.000  C
  H83      1.0000 0.08220  0.52230  0.93030  Biso   1.000  H
  H84      1.0000 0.91780  0.47770  0.06970  Biso   1.000  H
  C73      1.0000 0.11650  0.43560  0.81360  Biso   1.000  C
  C74      1.0000 0.88350  0.56440  0.18640  Biso   1.000  C
  H85      1.0000 0.14860  0.49530  0.79410  Biso   1.000  H
  H86      1.0000 0.85140  0.50470  0.20590  Biso   1.000  H
  H87      1.0000 0.16510  0.39110  0.80880  Biso   1.000  H
  H88      1.0000 0.83490  0.60890  0.19120  Biso   1.000  H
  C75      1.0000 0.98110  0.37230  0.73600  Biso   1.000  C
  C76      1.0000 0.01890  0.62770  0.26400  Biso   1.000  C
  H89      1.0000 0.93490  0.41940  0.73370  Biso   1.000  H
  H90      1.0000 0.06510  0.58060  0.26630  Biso   1.000  H
  H91      1.0000 0.97440  0.34150  0.66330  Biso   1.000  H
  H92      1.0000 0.02560  0.65850  0.33670  Biso   1.000  H
  C77      1.0000 0.92370  0.28490  0.76880  Biso   1.000  C
  C78      1.0000 0.07630  0.71510  0.23120  Biso   1.000  C
  H93      1.0000 0.83520  0.24820  0.71930  Biso   1.000  H
  H94      1.0000 0.16480  0.75180  0.28070  Biso   1.000  H
  H95      1.0000 0.96400  0.23370  0.76380  Biso   1.000  H
  H96      1.0000 0.03600  0.76630  0.23620  Biso   1.000  H
  C79      1.0000 0.93820  0.32870  0.88220  Biso   1.000  C
  C80      1.0000 0.06180  0.67130  0.11780  Biso   1.000  C
  H97      1.0000 0.90090  0.27090  0.90200  Biso   1.000  H
  H98      1.0000 0.09910  0.72910  0.09800  Biso   1.000  H
  H99      1.0000 0.89420  0.37720  0.88630  Biso   1.000  H
  H100     1.0000 0.10580  0.62280  0.11370  Biso   1.000  H
  C81      1.0000 0.07620  0.38760  0.96220  Biso   1.000  C
  C82      1.0000 0.92380  0.61240  0.03780  Biso   1.000  C
  H101     1.0000 0.07960  0.42100  0.03380  Biso   1.000  H
  H102     1.0000 0.92040  0.57900  0.96620  Biso   1.000  H
  C83      1.0000 0.14210  0.30970  0.97250  Biso   1.000  C
  C84      1.0000 0.85790  0.69030  0.02750  Biso   1.000  C
  O15      1.0000 0.25090  0.33140  0.97460  Biso   1.000  O
  O16      1.0000 0.74910  0.66860  0.02540  Biso   1.000  O
  O17      1.0000 0.08850  0.22790  0.98080  Biso   1.000  O
  O18      1.0000 0.91150  0.77210  0.01920  Biso   1.000  O
  O19      1.0000 0.47600  0.50310  0.19400  Biso   1.000  O
  O20      1.0000 0.52400  0.49690  0.80600  Biso   1.000  O
  H103     1.0000 0.43000  0.53500  0.22000  Biso   1.000  H
  H104     1.0000 0.57000  0.46500  0.78000  Biso   1.000  H
  H105     1.0000 0.47000  0.45100  0.22000  Biso   1.000  H
  H106     1.0000 0.53000  0.54900  0.78000  Biso   1.000  H
  O21      1.0000 0.30170  0.58240  0.23500  Biso   1.000  O
  O22      1.0000 0.69830  0.41760  0.76500  Biso   1.000  O
  H107     1.0000 0.27000  0.53800  0.26000  Biso   1.000  H
  H108     1.0000 0.73000  0.46200  0.74000  Biso   1.000  H
  H109     1.0000 0.33000  0.64000  0.27000  Biso   1.000  H
  H110     1.0000 0.67000  0.36000  0.73000  Biso   1.000  H
  O23      1.0000 0.87360  0.17590  0.02420  Biso   1.000  O
  O24      1.0000 0.12640  0.82410  0.97580  Biso   1.000  O
  H111     1.0000 0.93000  0.17000  0.99600  Biso   1.000  H
  H112     1.0000 0.07000  0.83000  0.00400  Biso   1.000  H
  H113     1.0000 0.91000  0.24200  0.07300  Biso   1.000  H
  H114     1.0000 0.09000  0.75800  0.92700  Biso   1.000  H
