data_image0
_cell_length_a       7.493
_cell_length_b       9.758
_cell_length_c       13.517
_cell_angle_alpha    68.89
_cell_angle_beta     88.89
_cell_angle_gamma    73.32

_symmetry_space_group_name_H-M    "P 1"
_symmetry_int_tables_number       1

loop_
  _symmetry_equiv_pos_as_xyz
  'x, y, z'

loop_
  _atom_site_label
  _atom_site_occupancy
  _atom_site_fract_x
  _atom_site_fract_y
  _atom_site_fract_z
  _atom_site_thermal_displace_type
  _atom_site_B_iso_or_equiv
  _atom_site_type_symbol
  Cu1      1.0000 0.73150  0.84254  0.81150  Biso   1.000  Cu
  Cu2      1.0000 0.26850  0.15746  0.18850  Biso   1.000  Cu
  N1       1.0000 0.68310  0.69100  0.95071  Biso   1.000  N
  N2       1.0000 0.31690  0.30900  0.04929  Biso   1.000  N
  N3       1.0000 0.86090  0.64804  0.78904  Biso   1.000  N
  N4       1.0000 0.13910  0.35196  0.21096  Biso   1.000  N
  C1       1.0000 0.59590  0.71690  0.03214  Biso   1.000  C
  C2       1.0000 0.40410  0.28310  0.96786  Biso   1.000  C
  H1       1.0000 0.54280  0.81790  0.02740  Biso   1.000  H
  H2       1.0000 0.45720  0.18210  0.97260  Biso   1.000  H
  C3       1.0000 0.58200  0.59700  0.12412  Biso   1.000  C
  C4       1.0000 0.41800  0.40300  0.87588  Biso   1.000  C
  H3       1.0000 0.52110  0.61900  0.17970  Biso   1.000  H
  H4       1.0000 0.47890  0.38100  0.82030  Biso   1.000  H
  C5       1.0000 0.65710  0.44810  0.13301  Biso   1.000  C
  C6       1.0000 0.34290  0.55190  0.86699  Biso   1.000  C
  H5       1.0000 0.64700  0.36830  0.19430  Biso   1.000  H
  H6       1.0000 0.35300  0.63170  0.80570  Biso   1.000  H
  C7       1.0000 0.75050  0.41550  0.04862  Biso   1.000  C
  C8       1.0000 0.24950  0.58450  0.95138  Biso   1.000  C
  C9       1.0000 0.83410  0.26490  0.04810  Biso   1.000  C
  C10      1.0000 0.16590  0.73510  0.95190  Biso   1.000  C
  H7       1.0000 0.83030  0.17970  0.10720  Biso   1.000  H
  H8       1.0000 0.16970  0.82030  0.89280  Biso   1.000  H
  C11      1.0000 0.91900  0.24340  0.96330  Biso   1.000  C
  C12      1.0000 0.08100  0.75660  0.03670  Biso   1.000  C
  H9       1.0000 0.97060  0.14380  0.96490  Biso   1.000  H
  H10      1.0000 0.02940  0.85620  0.03510  Biso   1.000  H
  C13      1.0000 0.93120  0.37110  0.87071  Biso   1.000  C
  C14      1.0000 0.06880  0.62890  0.12929  Biso   1.000  C
  C15      1.0000 0.01860  0.35790  0.78010  Biso   1.000  C
  C16      1.0000 0.98140  0.64210  0.21990  Biso   1.000  C
  H11      1.0000 0.07100  0.26160  0.77600  Biso   1.000  H
  H12      1.0000 0.92900  0.73840  0.22400  Biso   1.000  H
  C17      1.0000 0.02570  0.48850  0.69820  Biso   1.000  C
  C18      1.0000 0.97430  0.51150  0.30180  Biso   1.000  C
  H13      1.0000 0.08320  0.48130  0.63790  Biso   1.000  H
  H14      1.0000 0.91680  0.51870  0.36210  Biso   1.000  H
  C19      1.0000 0.94670  0.63200  0.70519  Biso   1.000  C
  C20      1.0000 0.05330  0.36800  0.29481  Biso   1.000  C
  H15      1.0000 0.95420  0.71950  0.64930  Biso   1.000  H
  H16      1.0000 0.04580  0.28050  0.35070  Biso   1.000  H
  C21      1.0000 0.85300  0.52000  0.87021  Biso   1.000  C
  C22      1.0000 0.14700  0.48000  0.12979  Biso   1.000  C
  C23      1.0000 0.75910  0.54320  0.95911  Biso   1.000  C
  C24      1.0000 0.24090  0.45680  0.04089  Biso   1.000  C
  C25      1.0000 0.32780  0.98440  0.69142  Biso   1.000  C
  C26      1.0000 0.67220  0.01560  0.30858  Biso   1.000  C
  C27      1.0000 0.18890  0.01840  0.60023  Biso   1.000  C
  C28      1.0000 0.81110  0.98160  0.39977  Biso   1.000  C
  H17      1.0000 0.16390  0.92360  0.60640  Biso   1.000  H
  H18      1.0000 0.83610  0.07640  0.39360  Biso   1.000  H
  H19      1.0000 0.24510  0.05310  0.53400  Biso   1.000  H
  H20      1.0000 0.75490  0.94690  0.46600  Biso   1.000  H
  C29      1.0000 0.00380  0.13920  0.59440  Biso   1.000  C
  C30      1.0000 0.99620  0.86080  0.40560  Biso   1.000  C
  H21      1.0000 0.03010  0.22890  0.59840  Biso   1.000  H
  H22      1.0000 0.96990  0.77110  0.40160  Biso   1.000  H
  H23      1.0000 0.93600  0.17070  0.52560  Biso   1.000  H
  H24      1.0000 0.06400  0.82930  0.47440  Biso   1.000  H
  C31      1.0000 0.87820  0.08820  0.68019  Biso   1.000  C
  C32      1.0000 0.12180  0.91180  0.31981  Biso   1.000  C
  O1       1.0000 0.48580  0.88456  0.69946  Biso   1.000  O
  O2       1.0000 0.51420  0.11544  0.30054  Biso   1.000  O
  O3       1.0000 0.28520  0.05130  0.75539  Biso   1.000  O
  O4       1.0000 0.71480  0.94870  0.24461  Biso   1.000  O
  O5       1.0000 0.88400  0.94736  0.71187  Biso   1.000  O
  O6       1.0000 0.11600  0.05264  0.28813  Biso   1.000  O
  O7       1.0000 0.77420  0.18511  0.71184  Biso   1.000  O
  O8       1.0000 0.22580  0.81489  0.28816  Biso   1.000  O
  O9       1.0000 0.60320  0.02086  0.84961  Biso   1.000  O
  O10      1.0000 0.39680  0.97914  0.15039  Biso   1.000  O
  H25      1.0000 0.48450  0.04190  0.82350  Biso   1.000  H
  H26      1.0000 0.51550  0.95810  0.17650  Biso   1.000  H
  H27      1.0000 0.63900  0.09760  0.80340  Biso   1.000  H
  H28      1.0000 0.36100  0.90240  0.19660  Biso   1.000  H
  C33      1.0000 0.48210  0.64480  0.56872  Biso   1.000  C
  C34      1.0000 0.51790  0.35520  0.43128  Biso   1.000  C
  C35      1.0000 0.55830  0.55050  0.50230  Biso   1.000  C
  C36      1.0000 0.44170  0.44950  0.49770  Biso   1.000  C
  H29      1.0000 0.68470  0.48620  0.53130  Biso   1.000  H
  H30      1.0000 0.31530  0.51380  0.46870  Biso   1.000  H
  H31      1.0000 0.56460  0.61910  0.43040  Biso   1.000  H
  H32      1.0000 0.43540  0.38090  0.56960  Biso   1.000  H
  O11      1.0000 0.34700  0.63650  0.61775  Biso   1.000  O
  O12      1.0000 0.65300  0.36350  0.38225  Biso   1.000  O
  O13      1.0000 0.57700  0.74040  0.56694  Biso   1.000  O
  O14      1.0000 0.42300  0.25960  0.43306  Biso   1.000  O
  H33      1.0000 0.53490  0.80090  0.60690  Biso   1.000  H
  H34      1.0000 0.46510  0.19910  0.39310  Biso   1.000  H
