data_image0
_cell_length_a       5.293
_cell_length_b       14.679
_cell_length_c       11.007
_cell_angle_alpha    90
_cell_angle_beta     104.84
_cell_angle_gamma    90

_symmetry_space_group_name_H-M    "P 1"
_symmetry_int_tables_number       1

loop_
  _symmetry_equiv_pos_as_xyz
  'x, y, z'

loop_
  _atom_site_label
  _atom_site_occupancy
  _atom_site_fract_x
  _atom_site_fract_y
  _atom_site_fract_z
  _atom_site_thermal_displace_type
  _atom_site_B_iso_or_equiv
  _atom_site_type_symbol
  Cu1      1.0000 0.50000  0.50000  0.50000  Biso   1.000  Cu
  Cu2      1.0000 0.50000  0.00000  0.00000  Biso   1.000  Cu
  O1       1.0000 0.50310  0.41510  0.72750  Biso   1.000  O
  O2       1.0000 0.49690  0.91510  0.77250  Biso   1.000  O
  O3       1.0000 0.49690  0.58490  0.27250  Biso   1.000  O
  O4       1.0000 0.50310  0.08490  0.22750  Biso   1.000  O
  O5       1.0000 0.74830  0.51632  0.66180  Biso   1.000  O
  O6       1.0000 0.25170  0.01632  0.83820  Biso   1.000  O
  O7       1.0000 0.25170  0.48368  0.33820  Biso   1.000  O
  O8       1.0000 0.74830  0.98368  0.16180  Biso   1.000  O
  N1       1.0000 0.71850  0.40070  0.45880  Biso   1.000  N
  N2       1.0000 0.28150  0.90070  0.04120  Biso   1.000  N
  N3       1.0000 0.28150  0.59930  0.54120  Biso   1.000  N
  N4       1.0000 0.71850  0.09930  0.95880  Biso   1.000  N
  N5       1.0000 0.02360  0.29700  0.47770  Biso   1.000  N
  N6       1.0000 0.97640  0.79700  0.02230  Biso   1.000  N
  N7       1.0000 0.97640  0.70300  0.52230  Biso   1.000  N
  N8       1.0000 0.02360  0.20300  0.97770  Biso   1.000  N
  C1       1.0000 0.77330  0.44970  0.97950  Biso   1.000  C
  C2       1.0000 0.22670  0.94970  0.52050  Biso   1.000  C
  C3       1.0000 0.22670  0.55030  0.02050  Biso   1.000  C
  C4       1.0000 0.77330  0.05030  0.47950  Biso   1.000  C
  H1       1.0000 0.62090  0.41540  0.96580  Biso   1.000  H
  H2       1.0000 0.37910  0.91540  0.53420  Biso   1.000  H
  H3       1.0000 0.37910  0.58460  0.03420  Biso   1.000  H
  H4       1.0000 0.62090  0.08460  0.46580  Biso   1.000  H
  C5       1.0000 0.08030  0.53450  0.89930  Biso   1.000  C
  C6       1.0000 0.91970  0.03450  0.60070  Biso   1.000  C
  C7       1.0000 0.91970  0.46550  0.10070  Biso   1.000  C
  C8       1.0000 0.08030  0.96550  0.39930  Biso   1.000  C
  H5       1.0000 0.13570  0.55740  0.83170  Biso   1.000  H
  H6       1.0000 0.86430  0.05740  0.66830  Biso   1.000  H
  H7       1.0000 0.86430  0.44260  0.16830  Biso   1.000  H
  H8       1.0000 0.13570  0.94260  0.33170  Biso   1.000  H
  C9       1.0000 0.85180  0.48470  0.87820  Biso   1.000  C
  C10      1.0000 0.14820  0.98470  0.62180  Biso   1.000  C
  C11      1.0000 0.14820  0.51530  0.12180  Biso   1.000  C
  C12      1.0000 0.85180  0.01530  0.37820  Biso   1.000  C
  C13      1.0000 0.68580  0.46940  0.74720  Biso   1.000  C
  C14      1.0000 0.31420  0.96940  0.75280  Biso   1.000  C
  C15      1.0000 0.31420  0.53060  0.25280  Biso   1.000  C
  C16      1.0000 0.68580  0.03060  0.24720  Biso   1.000  C
  C17      1.0000 0.94310  0.37030  0.52770  Biso   1.000  C
  C18      1.0000 0.05690  0.87030  0.97230  Biso   1.000  C
  C19      1.0000 0.05690  0.62970  0.47230  Biso   1.000  C
  C20      1.0000 0.94310  0.12970  0.02770  Biso   1.000  C
  H9       1.0000 0.03500  0.39690  0.60260  Biso   1.000  H
  H10      1.0000 0.96500  0.89690  0.89740  Biso   1.000  H
  H11      1.0000 0.96500  0.60310  0.39740  Biso   1.000  H
  H12      1.0000 0.03500  0.10310  0.10260  Biso   1.000  H
  C21      1.0000 0.65380  0.34240  0.35720  Biso   1.000  C
  C22      1.0000 0.34620  0.84240  0.14280  Biso   1.000  C
  C23      1.0000 0.34620  0.65760  0.64280  Biso   1.000  C
  C24      1.0000 0.65380  0.15760  0.85720  Biso   1.000  C
  H13      1.0000 0.50500  0.34670  0.29070  Biso   1.000  H
  H14      1.0000 0.49500  0.84670  0.20930  Biso   1.000  H
  H15      1.0000 0.49500  0.65330  0.70930  Biso   1.000  H
  H16      1.0000 0.50500  0.15330  0.79070  Biso   1.000  H
  C25      1.0000 0.83840  0.27890  0.36960  Biso   1.000  C
  C26      1.0000 0.16160  0.77890  0.13040  Biso   1.000  C
  C27      1.0000 0.16160  0.72110  0.63040  Biso   1.000  C
  C28      1.0000 0.83840  0.22110  0.86960  Biso   1.000  C
  H17      1.0000 0.84030  0.23100  0.31450  Biso   1.000  H
  H18      1.0000 0.15970  0.73100  0.18550  Biso   1.000  H
  H19      1.0000 0.15970  0.76900  0.68550  Biso   1.000  H
  H20      1.0000 0.84030  0.26900  0.81450  Biso   1.000  H
  C29      1.0000 0.25710  0.24310  0.53240  Biso   1.000  C
  C30      1.0000 0.74290  0.74310  0.96760  Biso   1.000  C
  C31      1.0000 0.74290  0.75690  0.46760  Biso   1.000  C
  C32      1.0000 0.25710  0.25690  0.03240  Biso   1.000  C
  H21      1.0000 0.35360  0.27110  0.60910  Biso   1.000  H
  H22      1.0000 0.64640  0.77110  0.89090  Biso   1.000  H
  H23      1.0000 0.64640  0.72890  0.39090  Biso   1.000  H
  H24      1.0000 0.35360  0.22890  0.10910  Biso   1.000  H
  H25      1.0000 0.36460  0.24010  0.47430  Biso   1.000  H
  H26      1.0000 0.63540  0.74010  0.02570  Biso   1.000  H
  H27      1.0000 0.63540  0.75990  0.52570  Biso   1.000  H
  H28      1.0000 0.36460  0.25990  0.97430  Biso   1.000  H
  H29      1.0000 0.20660  0.18260  0.54980  Biso   1.000  H
  H30      1.0000 0.79340  0.68260  0.95020  Biso   1.000  H
  H31      1.0000 0.79340  0.81740  0.45020  Biso   1.000  H
  H32      1.0000 0.20660  0.31740  0.04980  Biso   1.000  H
