data_image0
_cell_length_a       13.099
_cell_length_b       13.734
_cell_length_c       15.973
_cell_angle_alpha    90
_cell_angle_beta     106.33
_cell_angle_gamma    90

_symmetry_space_group_name_H-M    "P 1"
_symmetry_int_tables_number       1

loop_
  _symmetry_equiv_pos_as_xyz
  'x, y, z'

loop_
  _atom_site_label
  _atom_site_occupancy
  _atom_site_fract_x
  _atom_site_fract_y
  _atom_site_fract_z
  _atom_site_thermal_displace_type
  _atom_site_B_iso_or_equiv
  _atom_site_type_symbol
  Cu1      1.0000 0.25000  0.09339  0.00000  Biso   1.000  Cu
  Cu2      1.0000 0.75000  0.59339  0.50000  Biso   1.000  Cu
  Cu3      1.0000 0.75000  0.90661  0.00000  Biso   1.000  Cu
  Cu4      1.0000 0.25000  0.40661  0.50000  Biso   1.000  Cu
  Cu5      1.0000 0.11438  0.91450  0.21444  Biso   1.000  Cu
  Cu6      1.0000 0.38562  0.91450  0.78556  Biso   1.000  Cu
  Cu7      1.0000 0.61438  0.41450  0.71444  Biso   1.000  Cu
  Cu8      1.0000 0.88562  0.41450  0.28556  Biso   1.000  Cu
  Cu9      1.0000 0.88562  0.08550  0.78556  Biso   1.000  Cu
  Cu10     1.0000 0.61438  0.08550  0.21444  Biso   1.000  Cu
  Cu11     1.0000 0.38562  0.58550  0.28556  Biso   1.000  Cu
  Cu12     1.0000 0.11438  0.58550  0.71444  Biso   1.000  Cu
  Cl1      1.0000 0.08716  0.08654  0.84939  Biso   1.000  Cl
  Cl2      1.0000 0.41284  0.08654  0.15061  Biso   1.000  Cl
  Cl3      1.0000 0.58716  0.58654  0.34939  Biso   1.000  Cl
  Cl4      1.0000 0.91284  0.58654  0.65061  Biso   1.000  Cl
  Cl5      1.0000 0.91284  0.91346  0.15061  Biso   1.000  Cl
  Cl6      1.0000 0.58716  0.91346  0.84939  Biso   1.000  Cl
  Cl7      1.0000 0.41284  0.41346  0.65061  Biso   1.000  Cl
  Cl8      1.0000 0.08716  0.41346  0.34939  Biso   1.000  Cl
  Cl9      1.0000 0.13782  0.89905  0.35743  Biso   1.000  Cl
  Cl10     1.0000 0.36218  0.89905  0.64257  Biso   1.000  Cl
  Cl11     1.0000 0.63782  0.39905  0.85743  Biso   1.000  Cl
  Cl12     1.0000 0.86218  0.39905  0.14257  Biso   1.000  Cl
  Cl13     1.0000 0.86218  0.10095  0.64257  Biso   1.000  Cl
  Cl14     1.0000 0.63782  0.10095  0.35743  Biso   1.000  Cl
  Cl15     1.0000 0.36218  0.60095  0.14257  Biso   1.000  Cl
  Cl16     1.0000 0.13782  0.60095  0.85743  Biso   1.000  Cl
  O1       1.0000 0.12740  0.05870  0.20835  Biso   1.000  O
  O2       1.0000 0.37260  0.05870  0.79165  Biso   1.000  O
  O3       1.0000 0.62740  0.55870  0.70835  Biso   1.000  O
  O4       1.0000 0.87260  0.55870  0.29165  Biso   1.000  O
  O5       1.0000 0.87260  0.94130  0.79165  Biso   1.000  O
  O6       1.0000 0.62740  0.94130  0.20835  Biso   1.000  O
  O7       1.0000 0.37260  0.44130  0.29165  Biso   1.000  O
  O8       1.0000 0.12740  0.44130  0.70835  Biso   1.000  O
  N1       1.0000 0.20330  0.20540  0.05760  Biso   1.000  N
  N2       1.0000 0.29670  0.20540  0.94240  Biso   1.000  N
  N3       1.0000 0.70330  0.70540  0.55760  Biso   1.000  N
  N4       1.0000 0.79670  0.70540  0.44240  Biso   1.000  N
  N5       1.0000 0.79670  0.79460  0.94240  Biso   1.000  N
  N6       1.0000 0.70330  0.79460  0.05760  Biso   1.000  N
  N7       1.0000 0.29670  0.29460  0.44240  Biso   1.000  N
  N8       1.0000 0.20330  0.29460  0.55760  Biso   1.000  N
  N9       1.0000 0.16240  0.02310  0.07730  Biso   1.000  N
  N10      1.0000 0.33760  0.02310  0.92270  Biso   1.000  N
  N11      1.0000 0.66240  0.52310  0.57730  Biso   1.000  N
  N12      1.0000 0.83760  0.52310  0.42270  Biso   1.000  N
  N13      1.0000 0.83760  0.97690  0.92270  Biso   1.000  N
  N14      1.0000 0.66240  0.97690  0.07730  Biso   1.000  N
  N15      1.0000 0.33760  0.47690  0.42270  Biso   1.000  N
  N16      1.0000 0.16240  0.47690  0.57730  Biso   1.000  N
  N17      1.0000 0.14350  0.92910  0.10090  Biso   1.000  N
  N18      1.0000 0.35650  0.92910  0.89910  Biso   1.000  N
  N19      1.0000 0.64350  0.42910  0.60090  Biso   1.000  N
  N20      1.0000 0.85650  0.42910  0.39910  Biso   1.000  N
  N21      1.0000 0.85650  0.07090  0.89910  Biso   1.000  N
  N22      1.0000 0.64350  0.07090  0.10090  Biso   1.000  N
  N23      1.0000 0.35650  0.57090  0.39910  Biso   1.000  N
  N24      1.0000 0.14350  0.57090  0.60090  Biso   1.000  N
  N25      1.0000 0.11090  0.77510  0.17910  Biso   1.000  N
  N26      1.0000 0.38910  0.77510  0.82090  Biso   1.000  N
  N27      1.0000 0.61090  0.27510  0.67910  Biso   1.000  N
  N28      1.0000 0.88910  0.27510  0.32090  Biso   1.000  N
  N29      1.0000 0.88910  0.22490  0.82090  Biso   1.000  N
  N30      1.0000 0.61090  0.22490  0.17910  Biso   1.000  N
  N31      1.0000 0.38910  0.72490  0.32090  Biso   1.000  N
  N32      1.0000 0.11090  0.72490  0.67910  Biso   1.000  N
  C1       1.0000 0.22580  0.29670  0.03640  Biso   1.000  C
  C2       1.0000 0.27420  0.29670  0.96360  Biso   1.000  C
  C3       1.0000 0.72580  0.79670  0.53640  Biso   1.000  C
  C4       1.0000 0.77420  0.79670  0.46360  Biso   1.000  C
  C5       1.0000 0.77420  0.70330  0.96360  Biso   1.000  C
  C6       1.0000 0.72580  0.70330  0.03640  Biso   1.000  C
  C7       1.0000 0.27420  0.20330  0.46360  Biso   1.000  C
  C8       1.0000 0.22580  0.20330  0.53640  Biso   1.000  C
  C9       1.0000 0.20570  0.37590  0.08330  Biso   1.000  C
  C10      1.0000 0.29430  0.37590  0.91670  Biso   1.000  C
  C11      1.0000 0.70570  0.87590  0.58330  Biso   1.000  C
  C12      1.0000 0.79430  0.87590  0.41670  Biso   1.000  C
  C13      1.0000 0.79430  0.62410  0.91670  Biso   1.000  C
  C14      1.0000 0.70570  0.62410  0.08330  Biso   1.000  C
  C15      1.0000 0.29430  0.12410  0.41670  Biso   1.000  C
  C16      1.0000 0.20570  0.12410  0.58330  Biso   1.000  C
  H1       1.0000 0.22120  0.43880  0.06940  Biso   1.000  H
  H2       1.0000 0.27880  0.43880  0.93060  Biso   1.000  H
  H3       1.0000 0.72120  0.93880  0.56940  Biso   1.000  H
  H4       1.0000 0.77880  0.93880  0.43060  Biso   1.000  H
  H5       1.0000 0.77880  0.56120  0.93060  Biso   1.000  H
  H6       1.0000 0.72120  0.56120  0.06940  Biso   1.000  H
  H7       1.0000 0.27880  0.06120  0.43060  Biso   1.000  H
  H8       1.0000 0.22120  0.06120  0.56940  Biso   1.000  H
  C17      1.0000 0.16180  0.35910  0.15150  Biso   1.000  C
  C18      1.0000 0.33820  0.35910  0.84850  Biso   1.000  C
  C19      1.0000 0.66180  0.85910  0.65150  Biso   1.000  C
  C20      1.0000 0.83820  0.85910  0.34850  Biso   1.000  C
  C21      1.0000 0.83820  0.64090  0.84850  Biso   1.000  C
  C22      1.0000 0.66180  0.64090  0.15150  Biso   1.000  C
  C23      1.0000 0.33820  0.14090  0.34850  Biso   1.000  C
  C24      1.0000 0.16180  0.14090  0.65150  Biso   1.000  C
  H9       1.0000 0.14650  0.41130  0.18290  Biso   1.000  H
  H10      1.0000 0.35350  0.41130  0.81710  Biso   1.000  H
  H11      1.0000 0.64650  0.91130  0.68290  Biso   1.000  H
  H12      1.0000 0.85350  0.91130  0.31710  Biso   1.000  H
  H13      1.0000 0.85350  0.58870  0.81710  Biso   1.000  H
  H14      1.0000 0.64650  0.58870  0.18290  Biso   1.000  H
  H15      1.0000 0.35350  0.08870  0.31710  Biso   1.000  H
  H16      1.0000 0.14650  0.08870  0.68290  Biso   1.000  H
  C25      1.0000 0.14060  0.26480  0.17310  Biso   1.000  C
  C26      1.0000 0.35940  0.26480  0.82690  Biso   1.000  C
  C27      1.0000 0.64060  0.76480  0.67310  Biso   1.000  C
  C28      1.0000 0.85940  0.76480  0.32690  Biso   1.000  C
  C29      1.0000 0.85940  0.73520  0.82690  Biso   1.000  C
  C30      1.0000 0.64060  0.73520  0.17310  Biso   1.000  C
  C31      1.0000 0.35940  0.23520  0.32690  Biso   1.000  C
  C32      1.0000 0.14060  0.23520  0.67310  Biso   1.000  C
  H17      1.0000 0.11180  0.25300  0.21910  Biso   1.000  H
  H18      1.0000 0.38820  0.25300  0.78090  Biso   1.000  H
  H19      1.0000 0.61180  0.75300  0.71910  Biso   1.000  H
  H20      1.0000 0.88820  0.75300  0.28090  Biso   1.000  H
  H21      1.0000 0.88820  0.74700  0.78090  Biso   1.000  H
  H22      1.0000 0.61180  0.74700  0.21910  Biso   1.000  H
  H23      1.0000 0.38820  0.24700  0.28090  Biso   1.000  H
  H24      1.0000 0.11180  0.24700  0.71910  Biso   1.000  H
  C33      1.0000 0.16360  0.18880  0.12420  Biso   1.000  C
  C34      1.0000 0.33640  0.18880  0.87580  Biso   1.000  C
  C35      1.0000 0.66360  0.68880  0.62420  Biso   1.000  C
  C36      1.0000 0.83640  0.68880  0.37580  Biso   1.000  C
  C37      1.0000 0.83640  0.81120  0.87580  Biso   1.000  C
  C38      1.0000 0.66360  0.81120  0.12420  Biso   1.000  C
  C39      1.0000 0.33640  0.31120  0.37580  Biso   1.000  C
  C40      1.0000 0.16360  0.31120  0.62420  Biso   1.000  C
  C41      1.0000 0.15060  0.08320  0.14050  Biso   1.000  C
  C42      1.0000 0.34940  0.08320  0.85950  Biso   1.000  C
  C43      1.0000 0.65060  0.58320  0.64050  Biso   1.000  C
  C44      1.0000 0.84940  0.58320  0.35950  Biso   1.000  C
  C45      1.0000 0.84940  0.91680  0.85950  Biso   1.000  C
  C46      1.0000 0.65060  0.91680  0.14050  Biso   1.000  C
  C47      1.0000 0.34940  0.41680  0.35950  Biso   1.000  C
  C48      1.0000 0.15060  0.41680  0.64050  Biso   1.000  C
  C49      1.0000 0.12660  0.85500  0.04980  Biso   1.000  C
  C50      1.0000 0.37340  0.85500  0.95020  Biso   1.000  C
  C51      1.0000 0.62660  0.35500  0.54980  Biso   1.000  C
  C52      1.0000 0.87340  0.35500  0.45020  Biso   1.000  C
  C53      1.0000 0.87340  0.14500  0.95020  Biso   1.000  C
  C54      1.0000 0.62660  0.14500  0.04980  Biso   1.000  C
  C55      1.0000 0.37340  0.64500  0.45020  Biso   1.000  C
  C56      1.0000 0.12660  0.64500  0.54980  Biso   1.000  C
  C57      1.0000 0.12120  0.85480  0.95550  Biso   1.000  C
  C58      1.0000 0.37880  0.85480  0.04450  Biso   1.000  C
  C59      1.0000 0.62120  0.35480  0.45550  Biso   1.000  C
  C60      1.0000 0.87880  0.35480  0.54450  Biso   1.000  C
  C61      1.0000 0.87880  0.14520  0.04450  Biso   1.000  C
  C62      1.0000 0.62120  0.14520  0.95550  Biso   1.000  C
  C63      1.0000 0.37880  0.64520  0.54450  Biso   1.000  C
  C64      1.0000 0.12120  0.64520  0.45550  Biso   1.000  C
  H25      1.0000 0.04950  0.84180  0.92160  Biso   1.000  H
  H26      1.0000 0.45050  0.84180  0.07840  Biso   1.000  H
  H27      1.0000 0.54950  0.34180  0.42160  Biso   1.000  H
  H28      1.0000 0.95050  0.34180  0.57840  Biso   1.000  H
  H29      1.0000 0.95050  0.15820  0.07840  Biso   1.000  H
  H30      1.0000 0.54950  0.15820  0.92160  Biso   1.000  H
  H31      1.0000 0.45050  0.65820  0.57840  Biso   1.000  H
  H32      1.0000 0.04950  0.65820  0.42160  Biso   1.000  H
  H33      1.0000 0.16760  0.80540  0.94450  Biso   1.000  H
  H34      1.0000 0.33240  0.80540  0.05550  Biso   1.000  H
  H35      1.0000 0.66760  0.30540  0.44450  Biso   1.000  H
  H36      1.0000 0.83240  0.30540  0.55550  Biso   1.000  H
  H37      1.0000 0.83240  0.19460  0.05550  Biso   1.000  H
  H38      1.0000 0.66760  0.19460  0.94450  Biso   1.000  H
  H39      1.0000 0.33240  0.69460  0.55550  Biso   1.000  H
  H40      1.0000 0.16760  0.69460  0.44450  Biso   1.000  H
  H41      1.0000 0.14290  0.91730  0.93960  Biso   1.000  H
  H42      1.0000 0.35710  0.91730  0.06040  Biso   1.000  H
  H43      1.0000 0.64290  0.41730  0.43960  Biso   1.000  H
  H44      1.0000 0.85710  0.41730  0.56040  Biso   1.000  H
  H45      1.0000 0.85710  0.08270  0.06040  Biso   1.000  H
  H46      1.0000 0.64290  0.08270  0.93960  Biso   1.000  H
  H47      1.0000 0.35710  0.58270  0.56040  Biso   1.000  H
  H48      1.0000 0.14290  0.58270  0.43960  Biso   1.000  H
  C65      1.0000 0.10430  0.76440  0.09290  Biso   1.000  C
  C66      1.0000 0.39570  0.76440  0.90710  Biso   1.000  C
  C67      1.0000 0.60430  0.26440  0.59290  Biso   1.000  C
  C68      1.0000 0.89570  0.26440  0.40710  Biso   1.000  C
  C69      1.0000 0.89570  0.23560  0.90710  Biso   1.000  C
  C70      1.0000 0.60430  0.23560  0.09290  Biso   1.000  C
  C71      1.0000 0.39570  0.73560  0.40710  Biso   1.000  C
  C72      1.0000 0.10430  0.73560  0.59290  Biso   1.000  C
  C73      1.0000 0.07460  0.67750  0.05000  Biso   1.000  C
  C74      1.0000 0.42540  0.67750  0.95000  Biso   1.000  C
  C75      1.0000 0.57460  0.17750  0.55000  Biso   1.000  C
  C76      1.0000 0.92540  0.17750  0.45000  Biso   1.000  C
  C77      1.0000 0.92540  0.32250  0.95000  Biso   1.000  C
  C78      1.0000 0.57460  0.32250  0.05000  Biso   1.000  C
  C79      1.0000 0.42540  0.82250  0.45000  Biso   1.000  C
  C80      1.0000 0.07460  0.82250  0.55000  Biso   1.000  C
  H49      1.0000 0.07140  0.67100  0.99130  Biso   1.000  H
  H50      1.0000 0.42860  0.67100  0.00870  Biso   1.000  H
  H51      1.0000 0.57140  0.17100  0.49130  Biso   1.000  H
  H52      1.0000 0.92860  0.17100  0.50870  Biso   1.000  H
  H53      1.0000 0.92860  0.32900  0.00870  Biso   1.000  H
  H54      1.0000 0.57140  0.32900  0.99130  Biso   1.000  H
  H55      1.0000 0.42860  0.82900  0.50870  Biso   1.000  H
  H56      1.0000 0.07140  0.82900  0.49130  Biso   1.000  H
  C81      1.0000 0.04930  0.59940  0.09610  Biso   1.000  C
  C82      1.0000 0.45070  0.59940  0.90390  Biso   1.000  C
  C83      1.0000 0.54930  0.09940  0.59610  Biso   1.000  C
  C84      1.0000 0.95070  0.09940  0.40390  Biso   1.000  C
  C85      1.0000 0.95070  0.40060  0.90390  Biso   1.000  C
  C86      1.0000 0.54930  0.40060  0.09610  Biso   1.000  C
  C87      1.0000 0.45070  0.90060  0.40390  Biso   1.000  C
  C88      1.0000 0.04930  0.90060  0.59610  Biso   1.000  C
  H57      1.0000 0.02670  0.54060  0.06810  Biso   1.000  H
  H58      1.0000 0.47330  0.54060  0.93190  Biso   1.000  H
  H59      1.0000 0.52670  0.04060  0.56810  Biso   1.000  H
  H60      1.0000 0.97330  0.04060  0.43190  Biso   1.000  H
  H61      1.0000 0.97330  0.45940  0.93190  Biso   1.000  H
  H62      1.0000 0.52670  0.45940  0.06810  Biso   1.000  H
  H63      1.0000 0.47330  0.95940  0.43190  Biso   1.000  H
  H64      1.0000 0.02670  0.95940  0.56810  Biso   1.000  H
  C89      1.0000 0.05820  0.61010  0.18380  Biso   1.000  C
  C90      1.0000 0.44180  0.61010  0.81620  Biso   1.000  C
  C91      1.0000 0.55820  0.11010  0.68380  Biso   1.000  C
  C92      1.0000 0.94180  0.11010  0.31620  Biso   1.000  C
  C93      1.0000 0.94180  0.38990  0.81620  Biso   1.000  C
  C94      1.0000 0.55820  0.38990  0.18380  Biso   1.000  C
  C95      1.0000 0.44180  0.88990  0.31620  Biso   1.000  C
  C96      1.0000 0.05820  0.88990  0.68380  Biso   1.000  C
  H65      1.0000 0.04330  0.55820  0.21590  Biso   1.000  H
  H66      1.0000 0.45670  0.55820  0.78410  Biso   1.000  H
  H67      1.0000 0.54330  0.05820  0.71590  Biso   1.000  H
  H68      1.0000 0.95670  0.05820  0.28410  Biso   1.000  H
  H69      1.0000 0.95670  0.44180  0.78410  Biso   1.000  H
  H70      1.0000 0.54330  0.44180  0.21590  Biso   1.000  H
  H71      1.0000 0.45670  0.94180  0.28410  Biso   1.000  H
  H72      1.0000 0.04330  0.94180  0.71590  Biso   1.000  H
  C97      1.0000 0.08940  0.69870  0.22290  Biso   1.000  C
  C98      1.0000 0.41060  0.69870  0.77710  Biso   1.000  C
  C99      1.0000 0.58940  0.19870  0.72290  Biso   1.000  C
  C100     1.0000 0.91060  0.19870  0.27710  Biso   1.000  C
  C101     1.0000 0.91060  0.30130  0.77710  Biso   1.000  C
  C102     1.0000 0.58940  0.30130  0.22290  Biso   1.000  C
  C103     1.0000 0.41060  0.80130  0.27710  Biso   1.000  C
  C104     1.0000 0.08940  0.80130  0.72290  Biso   1.000  C
  H73      1.0000 0.09570  0.70550  0.28210  Biso   1.000  H
  H74      1.0000 0.40430  0.70550  0.71790  Biso   1.000  H
  H75      1.0000 0.59570  0.20550  0.78210  Biso   1.000  H
  H76      1.0000 0.90430  0.20550  0.21790  Biso   1.000  H
  H77      1.0000 0.90430  0.29450  0.71790  Biso   1.000  H
  H78      1.0000 0.59570  0.29450  0.28210  Biso   1.000  H
  H79      1.0000 0.40430  0.79450  0.21790  Biso   1.000  H
  H80      1.0000 0.09570  0.79450  0.78210  Biso   1.000  H
