data_image0
_cell_length_a       15.0153
_cell_length_b       14.1311
_cell_length_c       14.3905
_cell_angle_alpha    90
_cell_angle_beta     98.11
_cell_angle_gamma    90

_symmetry_space_group_name_H-M    "P 1"
_symmetry_int_tables_number       1

loop_
  _symmetry_equiv_pos_as_xyz
  'x, y, z'

loop_
  _atom_site_label
  _atom_site_occupancy
  _atom_site_fract_x
  _atom_site_fract_y
  _atom_site_fract_z
  _atom_site_thermal_displace_type
  _atom_site_B_iso_or_equiv
  _atom_site_type_symbol
  Cu1      1.0000 0.27516  0.55784  0.59513  Biso   1.000  Cu
  Cu2      1.0000 0.72484  0.55784  0.90487  Biso   1.000  Cu
  Cu3      1.0000 0.77516  0.05784  0.59513  Biso   1.000  Cu
  Cu4      1.0000 0.22484  0.05784  0.90487  Biso   1.000  Cu
  Cu5      1.0000 0.72484  0.44216  0.40487  Biso   1.000  Cu
  Cu6      1.0000 0.27516  0.44216  0.09513  Biso   1.000  Cu
  Cu7      1.0000 0.22484  0.94216  0.40487  Biso   1.000  Cu
  Cu8      1.0000 0.77516  0.94216  0.09513  Biso   1.000  Cu
  Cu9      1.0000 0.50000  0.35524  0.75000  Biso   1.000  Cu
  Cu10     1.0000 0.00000  0.85524  0.75000  Biso   1.000  Cu
  Cu11     1.0000 0.50000  0.64476  0.25000  Biso   1.000  Cu
  Cu12     1.0000 0.00000  0.14476  0.25000  Biso   1.000  Cu
  O1       1.0000 0.26599  0.40823  0.58522  Biso   1.000  O
  O2       1.0000 0.73401  0.40823  0.91478  Biso   1.000  O
  O3       1.0000 0.76599  0.90823  0.58522  Biso   1.000  O
  O4       1.0000 0.23401  0.90823  0.91478  Biso   1.000  O
  O5       1.0000 0.73401  0.59177  0.41478  Biso   1.000  O
  O6       1.0000 0.26599  0.59177  0.08522  Biso   1.000  O
  O7       1.0000 0.23401  0.09177  0.41478  Biso   1.000  O
  O8       1.0000 0.76599  0.09177  0.08522  Biso   1.000  O
  O9       1.0000 0.02998  0.60830  0.48860  Biso   1.000  O
  O10      1.0000 0.97002  0.60830  0.01140  Biso   1.000  O
  O11      1.0000 0.52998  0.10830  0.48860  Biso   1.000  O
  O12      1.0000 0.47002  0.10830  0.01140  Biso   1.000  O
  O13      1.0000 0.97002  0.39170  0.51140  Biso   1.000  O
  O14      1.0000 0.02998  0.39170  0.98860  Biso   1.000  O
  O15      1.0000 0.47002  0.89170  0.51140  Biso   1.000  O
  O16      1.0000 0.52998  0.89170  0.98860  Biso   1.000  O
  O17      1.0000 0.10530  0.55841  0.62014  Biso   1.000  O
  O18      1.0000 0.89470  0.55841  0.87986  Biso   1.000  O
  O19      1.0000 0.60530  0.05841  0.62014  Biso   1.000  O
  O20      1.0000 0.39470  0.05841  0.87986  Biso   1.000  O
  O21      1.0000 0.89470  0.44159  0.37986  Biso   1.000  O
  O22      1.0000 0.10530  0.44159  0.12014  Biso   1.000  O
  O23      1.0000 0.39470  0.94159  0.37986  Biso   1.000  O
  O24      1.0000 0.60530  0.94159  0.12014  Biso   1.000  O
  O25      1.0000 0.17492  0.59397  0.50201  Biso   1.000  O
  O26      1.0000 0.82508  0.59397  0.99799  Biso   1.000  O
  O27      1.0000 0.67492  0.09397  0.50201  Biso   1.000  O
  O28      1.0000 0.32508  0.09397  0.99799  Biso   1.000  O
  O29      1.0000 0.82508  0.40603  0.49799  Biso   1.000  O
  O30      1.0000 0.17492  0.40603  0.00201  Biso   1.000  O
  O31      1.0000 0.32508  0.90603  0.49799  Biso   1.000  O
  O32      1.0000 0.67492  0.90603  0.00201  Biso   1.000  O
  O33      1.0000 0.34967  0.55899  0.47368  Biso   1.000  O
  O34      1.0000 0.65033  0.55899  0.02632  Biso   1.000  O
  O35      1.0000 0.84967  0.05899  0.47368  Biso   1.000  O
  O36      1.0000 0.15033  0.05899  0.02632  Biso   1.000  O
  O37      1.0000 0.65033  0.44101  0.52632  Biso   1.000  O
  O38      1.0000 0.34967  0.44101  0.97368  Biso   1.000  O
  O39      1.0000 0.15033  0.94101  0.52632  Biso   1.000  O
  O40      1.0000 0.84967  0.94101  0.97368  Biso   1.000  O
  N1       1.0000 0.42750  0.59630  0.48440  Biso   1.000  N
  N2       1.0000 0.57250  0.59630  0.01560  Biso   1.000  N
  N3       1.0000 0.92750  0.09630  0.48440  Biso   1.000  N
  N4       1.0000 0.07250  0.09630  0.01560  Biso   1.000  N
  N5       1.0000 0.57250  0.40370  0.51560  Biso   1.000  N
  N6       1.0000 0.42750  0.40370  0.98440  Biso   1.000  N
  N7       1.0000 0.07250  0.90370  0.51560  Biso   1.000  N
  N8       1.0000 0.92750  0.90370  0.98440  Biso   1.000  N
  O41      1.0000 0.45370  0.63630  0.56060  Biso   1.000  O
  O42      1.0000 0.54630  0.63630  0.93940  Biso   1.000  O
  O43      1.0000 0.95370  0.13630  0.56060  Biso   1.000  O
  O44      1.0000 0.04630  0.13630  0.93940  Biso   1.000  O
  O45      1.0000 0.54630  0.36370  0.43940  Biso   1.000  O
  O46      1.0000 0.45370  0.36370  0.06060  Biso   1.000  O
  O47      1.0000 0.04630  0.86370  0.43940  Biso   1.000  O
  O48      1.0000 0.95370  0.86370  0.06060  Biso   1.000  O
  O49      1.0000 0.47120  0.59200  0.41740  Biso   1.000  O
  O50      1.0000 0.52880  0.59200  0.08260  Biso   1.000  O
  O51      1.0000 0.97120  0.09200  0.41740  Biso   1.000  O
  O52      1.0000 0.02880  0.09200  0.08260  Biso   1.000  O
  O53      1.0000 0.52880  0.40800  0.58260  Biso   1.000  O
  O54      1.0000 0.47120  0.40800  0.91740  Biso   1.000  O
  O55      1.0000 0.02880  0.90800  0.58260  Biso   1.000  O
  O56      1.0000 0.97120  0.90800  0.91740  Biso   1.000  O
  N9       1.0000 0.29796  0.68229  0.66814  Biso   1.000  N
  N10      1.0000 0.70204  0.68229  0.83186  Biso   1.000  N
  N11      1.0000 0.79796  0.18229  0.66814  Biso   1.000  N
  N12      1.0000 0.20204  0.18229  0.83186  Biso   1.000  N
  N13      1.0000 0.70204  0.31771  0.33186  Biso   1.000  N
  N14      1.0000 0.29796  0.31771  0.16814  Biso   1.000  N
  N15      1.0000 0.20204  0.81771  0.33186  Biso   1.000  N
  N16      1.0000 0.79796  0.81771  0.16814  Biso   1.000  N
  N17      1.0000 0.36496  0.51672  0.69679  Biso   1.000  N
  N18      1.0000 0.63504  0.51672  0.80321  Biso   1.000  N
  N19      1.0000 0.86496  0.01672  0.69679  Biso   1.000  N
  N20      1.0000 0.13504  0.01672  0.80321  Biso   1.000  N
  N21      1.0000 0.63504  0.48328  0.30321  Biso   1.000  N
  N22      1.0000 0.36496  0.48328  0.19679  Biso   1.000  N
  N23      1.0000 0.13504  0.98328  0.30321  Biso   1.000  N
  N24      1.0000 0.86496  0.98328  0.19679  Biso   1.000  N
  N25      1.0000 0.38909  0.42345  0.70031  Biso   1.000  N
  N26      1.0000 0.61091  0.42345  0.79969  Biso   1.000  N
  N27      1.0000 0.88909  0.92345  0.70031  Biso   1.000  N
  N28      1.0000 0.11091  0.92345  0.79969  Biso   1.000  N
  N29      1.0000 0.61091  0.57655  0.29969  Biso   1.000  N
  N30      1.0000 0.38909  0.57655  0.20031  Biso   1.000  N
  N31      1.0000 0.11091  0.07655  0.29969  Biso   1.000  N
  N32      1.0000 0.88909  0.07655  0.20031  Biso   1.000  N
  N33      1.0000 0.42587  0.24981  0.70039  Biso   1.000  N
  N34      1.0000 0.57413  0.24981  0.79961  Biso   1.000  N
  N35      1.0000 0.92587  0.74981  0.70039  Biso   1.000  N
  N36      1.0000 0.07413  0.74981  0.79961  Biso   1.000  N
  N37      1.0000 0.57413  0.75019  0.29961  Biso   1.000  N
  N38      1.0000 0.42587  0.75019  0.20039  Biso   1.000  N
  N39      1.0000 0.07413  0.25019  0.29961  Biso   1.000  N
  N40      1.0000 0.92587  0.25019  0.20039  Biso   1.000  N
  N41      1.0000 0.09942  0.58700  0.53764  Biso   1.000  N
  N42      1.0000 0.90058  0.58700  0.96236  Biso   1.000  N
  N43      1.0000 0.59942  0.08700  0.53764  Biso   1.000  N
  N44      1.0000 0.40058  0.08700  0.96236  Biso   1.000  N
  N45      1.0000 0.90058  0.41300  0.46236  Biso   1.000  N
  N46      1.0000 0.09942  0.41300  0.03764  Biso   1.000  N
  N47      1.0000 0.40058  0.91300  0.46236  Biso   1.000  N
  N48      1.0000 0.59942  0.91300  0.03764  Biso   1.000  N
  C1       1.0000 0.34827  0.26891  0.64576  Biso   1.000  C
  C2       1.0000 0.65173  0.26891  0.85424  Biso   1.000  C
  C3       1.0000 0.84827  0.76891  0.64576  Biso   1.000  C
  C4       1.0000 0.15173  0.76891  0.85424  Biso   1.000  C
  C5       1.0000 0.65173  0.73109  0.35424  Biso   1.000  C
  C6       1.0000 0.34827  0.73109  0.14576  Biso   1.000  C
  C7       1.0000 0.15173  0.23109  0.35424  Biso   1.000  C
  C8       1.0000 0.84827  0.23109  0.14576  Biso   1.000  C
  C9       1.0000 0.29430  0.19630  0.60586  Biso   1.000  C
  C10      1.0000 0.70570  0.19630  0.89414  Biso   1.000  C
  C11      1.0000 0.79430  0.69630  0.60586  Biso   1.000  C
  C12      1.0000 0.20570  0.69630  0.89414  Biso   1.000  C
  C13      1.0000 0.70570  0.80370  0.39414  Biso   1.000  C
  C14      1.0000 0.29430  0.80370  0.10586  Biso   1.000  C
  C15      1.0000 0.20570  0.30370  0.39414  Biso   1.000  C
  C16      1.0000 0.79430  0.30370  0.10586  Biso   1.000  C
  H1       1.0000 0.23820  0.20880  0.56850  Biso   1.000  H
  H2       1.0000 0.76180  0.20880  0.93150  Biso   1.000  H
  H3       1.0000 0.73820  0.70880  0.56850  Biso   1.000  H
  H4       1.0000 0.26180  0.70880  0.93150  Biso   1.000  H
  H5       1.0000 0.76180  0.79120  0.43150  Biso   1.000  H
  H6       1.0000 0.23820  0.79120  0.06850  Biso   1.000  H
  H7       1.0000 0.26180  0.29120  0.43150  Biso   1.000  H
  H8       1.0000 0.73820  0.29120  0.06850  Biso   1.000  H
  C17      1.0000 0.32540  0.10390  0.62240  Biso   1.000  C
  C18      1.0000 0.67460  0.10390  0.87760  Biso   1.000  C
  C19      1.0000 0.82540  0.60390  0.62240  Biso   1.000  C
  C20      1.0000 0.17460  0.60390  0.87760  Biso   1.000  C
  C21      1.0000 0.67460  0.89610  0.37760  Biso   1.000  C
  C22      1.0000 0.32540  0.89610  0.12240  Biso   1.000  C
  C23      1.0000 0.17460  0.39610  0.37760  Biso   1.000  C
  C24      1.0000 0.82540  0.39610  0.12240  Biso   1.000  C
  H9       1.0000 0.29000  0.05260  0.59510  Biso   1.000  H
  H10      1.0000 0.71000  0.05260  0.90490  Biso   1.000  H
  H11      1.0000 0.79000  0.55260  0.59510  Biso   1.000  H
  H12      1.0000 0.21000  0.55260  0.90490  Biso   1.000  H
  H13      1.0000 0.71000  0.94740  0.40490  Biso   1.000  H
  H14      1.0000 0.29000  0.94740  0.09510  Biso   1.000  H
  H15      1.0000 0.21000  0.44740  0.40490  Biso   1.000  H
  H16      1.0000 0.79000  0.44740  0.09510  Biso   1.000  H
  C25      1.0000 0.40650  0.08530  0.67780  Biso   1.000  C
  C26      1.0000 0.59350  0.08530  0.82220  Biso   1.000  C
  C27      1.0000 0.90650  0.58530  0.67780  Biso   1.000  C
  C28      1.0000 0.09350  0.58530  0.82220  Biso   1.000  C
  C29      1.0000 0.59350  0.91470  0.32220  Biso   1.000  C
  C30      1.0000 0.40650  0.91470  0.17780  Biso   1.000  C
  C31      1.0000 0.09350  0.41470  0.32220  Biso   1.000  C
  C32      1.0000 0.90650  0.41470  0.17780  Biso   1.000  C
  H17      1.0000 0.42760  0.02230  0.68800  Biso   1.000  H
  H18      1.0000 0.57240  0.02230  0.81200  Biso   1.000  H
  H19      1.0000 0.92760  0.52230  0.68800  Biso   1.000  H
  H20      1.0000 0.07240  0.52230  0.81200  Biso   1.000  H
  H21      1.0000 0.57240  0.97770  0.31200  Biso   1.000  H
  H22      1.0000 0.42760  0.97770  0.18800  Biso   1.000  H
  H23      1.0000 0.07240  0.47770  0.31200  Biso   1.000  H
  H24      1.0000 0.92760  0.47770  0.18800  Biso   1.000  H
  C33      1.0000 0.45610  0.16178  0.71798  Biso   1.000  C
  C34      1.0000 0.54390  0.16178  0.78202  Biso   1.000  C
  C35      1.0000 0.95610  0.66178  0.71798  Biso   1.000  C
  C36      1.0000 0.04390  0.66178  0.78202  Biso   1.000  C
  C37      1.0000 0.54390  0.83822  0.28202  Biso   1.000  C
  C38      1.0000 0.45610  0.83822  0.21798  Biso   1.000  C
  C39      1.0000 0.04390  0.33822  0.28202  Biso   1.000  C
  C40      1.0000 0.95610  0.33822  0.21798  Biso   1.000  C
  C41      1.0000 0.33083  0.37365  0.63904  Biso   1.000  C
  C42      1.0000 0.66917  0.37365  0.86096  Biso   1.000  C
  C43      1.0000 0.83083  0.87365  0.63904  Biso   1.000  C
  C44      1.0000 0.16917  0.87365  0.86096  Biso   1.000  C
  C45      1.0000 0.66917  0.62635  0.36096  Biso   1.000  C
  C46      1.0000 0.33083  0.62635  0.13904  Biso   1.000  C
  C47      1.0000 0.16917  0.12635  0.36096  Biso   1.000  C
  C48      1.0000 0.83083  0.12635  0.13904  Biso   1.000  C
  C49      1.0000 0.39695  0.57630  0.75964  Biso   1.000  C
  C50      1.0000 0.60305  0.57630  0.74036  Biso   1.000  C
  C51      1.0000 0.89695  0.07630  0.75964  Biso   1.000  C
  C52      1.0000 0.10305  0.07630  0.74036  Biso   1.000  C
  C53      1.0000 0.60305  0.42370  0.24036  Biso   1.000  C
  C54      1.0000 0.39695  0.42370  0.25964  Biso   1.000  C
  C55      1.0000 0.10305  0.92370  0.24036  Biso   1.000  C
  C56      1.0000 0.89695  0.92370  0.25964  Biso   1.000  C
  H25      1.0000 0.43890  0.55920  0.81270  Biso   1.000  H
  H26      1.0000 0.56110  0.55920  0.68730  Biso   1.000  H
  H27      1.0000 0.93890  0.05920  0.81270  Biso   1.000  H
  H28      1.0000 0.06110  0.05920  0.68730  Biso   1.000  H
  H29      1.0000 0.56110  0.44080  0.18730  Biso   1.000  H
  H30      1.0000 0.43890  0.44080  0.31270  Biso   1.000  H
  H31      1.0000 0.06110  0.94080  0.18730  Biso   1.000  H
  H32      1.0000 0.93890  0.94080  0.31270  Biso   1.000  H
  C57      1.0000 0.36386  0.67270  0.74343  Biso   1.000  C
  C58      1.0000 0.63614  0.67270  0.75657  Biso   1.000  C
  C59      1.0000 0.86386  0.17270  0.74343  Biso   1.000  C
  C60      1.0000 0.13614  0.17270  0.75657  Biso   1.000  C
  C61      1.0000 0.63614  0.32730  0.25657  Biso   1.000  C
  C62      1.0000 0.36386  0.32730  0.24343  Biso   1.000  C
  C63      1.0000 0.13614  0.82730  0.25657  Biso   1.000  C
  C64      1.0000 0.86386  0.82730  0.24343  Biso   1.000  C
  C65      1.0000 0.39620  0.74920  0.79830  Biso   1.000  C
  C66      1.0000 0.60380  0.74920  0.70170  Biso   1.000  C
  C67      1.0000 0.89620  0.24920  0.79830  Biso   1.000  C
  C68      1.0000 0.10380  0.24920  0.70170  Biso   1.000  C
  C69      1.0000 0.60380  0.25080  0.20170  Biso   1.000  C
  C70      1.0000 0.39620  0.25080  0.29830  Biso   1.000  C
  C71      1.0000 0.10380  0.75080  0.20170  Biso   1.000  C
  C72      1.0000 0.89620  0.75080  0.29830  Biso   1.000  C
  H33      1.0000 0.44210  0.74110  0.85030  Biso   1.000  H
  H34      1.0000 0.55790  0.74110  0.64970  Biso   1.000  H
  H35      1.0000 0.94210  0.24110  0.85030  Biso   1.000  H
  H36      1.0000 0.05790  0.24110  0.64970  Biso   1.000  H
  H37      1.0000 0.55790  0.25890  0.14970  Biso   1.000  H
  H38      1.0000 0.44210  0.25890  0.35030  Biso   1.000  H
  H39      1.0000 0.05790  0.75890  0.14970  Biso   1.000  H
  H40      1.0000 0.94210  0.75890  0.35030  Biso   1.000  H
  C73      1.0000 0.36010  0.83840  0.77550  Biso   1.000  C
  C74      1.0000 0.63990  0.83840  0.72450  Biso   1.000  C
  C75      1.0000 0.86010  0.33840  0.77550  Biso   1.000  C
  C76      1.0000 0.13990  0.33840  0.72450  Biso   1.000  C
  C77      1.0000 0.63990  0.16160  0.22450  Biso   1.000  C
  C78      1.0000 0.36010  0.16160  0.27550  Biso   1.000  C
  C79      1.0000 0.13990  0.66160  0.22450  Biso   1.000  C
  C80      1.0000 0.86010  0.66160  0.27550  Biso   1.000  C
  H41      1.0000 0.38100  0.89220  0.81170  Biso   1.000  H
  H42      1.0000 0.61900  0.89220  0.68830  Biso   1.000  H
  H43      1.0000 0.88100  0.39220  0.81170  Biso   1.000  H
  H44      1.0000 0.11900  0.39220  0.68830  Biso   1.000  H
  H45      1.0000 0.61900  0.10780  0.18830  Biso   1.000  H
  H46      1.0000 0.38100  0.10780  0.31170  Biso   1.000  H
  H47      1.0000 0.11900  0.60780  0.18830  Biso   1.000  H
  H48      1.0000 0.88100  0.60780  0.31170  Biso   1.000  H
  C81      1.0000 0.29360  0.84750  0.69990  Biso   1.000  C
  C82      1.0000 0.70640  0.84750  0.80010  Biso   1.000  C
  C83      1.0000 0.79360  0.34750  0.69990  Biso   1.000  C
  C84      1.0000 0.20640  0.34750  0.80010  Biso   1.000  C
  C85      1.0000 0.70640  0.15250  0.30010  Biso   1.000  C
  C86      1.0000 0.29360  0.15250  0.19990  Biso   1.000  C
  C87      1.0000 0.20640  0.65250  0.30010  Biso   1.000  C
  C88      1.0000 0.79360  0.65250  0.19990  Biso   1.000  C
  H49      1.0000 0.26820  0.90780  0.68330  Biso   1.000  H
  H50      1.0000 0.73180  0.90780  0.81670  Biso   1.000  H
  H51      1.0000 0.76820  0.40780  0.68330  Biso   1.000  H
  H52      1.0000 0.23180  0.40780  0.81670  Biso   1.000  H
  H53      1.0000 0.73180  0.09220  0.31670  Biso   1.000  H
  H54      1.0000 0.26820  0.09220  0.18330  Biso   1.000  H
  H55      1.0000 0.23180  0.59220  0.31670  Biso   1.000  H
  H56      1.0000 0.76820  0.59220  0.18330  Biso   1.000  H
  C89      1.0000 0.26400  0.76790  0.64780  Biso   1.000  C
  C90      1.0000 0.73600  0.76790  0.85220  Biso   1.000  C
  C91      1.0000 0.76400  0.26790  0.64780  Biso   1.000  C
  C92      1.0000 0.23600  0.26790  0.85220  Biso   1.000  C
  C93      1.0000 0.73600  0.23210  0.35220  Biso   1.000  C
  C94      1.0000 0.26400  0.23210  0.14780  Biso   1.000  C
  C95      1.0000 0.23600  0.73210  0.35220  Biso   1.000  C
  C96      1.0000 0.76400  0.73210  0.14780  Biso   1.000  C
  H57      1.0000 0.21780  0.77490  0.59580  Biso   1.000  H
  H58      1.0000 0.78220  0.77490  0.90420  Biso   1.000  H
  H59      1.0000 0.71780  0.27490  0.59580  Biso   1.000  H
  H60      1.0000 0.28220  0.27490  0.90420  Biso   1.000  H
  H61      1.0000 0.78220  0.22510  0.40420  Biso   1.000  H
  H62      1.0000 0.21780  0.22510  0.09580  Biso   1.000  H
  H63      1.0000 0.28220  0.72510  0.40420  Biso   1.000  H
  H64      1.0000 0.71780  0.72510  0.09580  Biso   1.000  H
  N49      1.0000 0.42300  0.60360  0.47760  Biso   1.000  N
  N50      1.0000 0.57700  0.60360  0.02240  Biso   1.000  N
  N51      1.0000 0.92300  0.10360  0.47760  Biso   1.000  N
  N52      1.0000 0.07700  0.10360  0.02240  Biso   1.000  N
  N53      1.0000 0.57700  0.39640  0.52240  Biso   1.000  N
  N54      1.0000 0.42300  0.39640  0.97760  Biso   1.000  N
  N55      1.0000 0.07700  0.89640  0.52240  Biso   1.000  N
  N56      1.0000 0.92300  0.89640  0.97760  Biso   1.000  N
  O57      1.0000 0.47350  0.61020  0.55310  Biso   1.000  O
  O58      1.0000 0.52650  0.61020  0.94690  Biso   1.000  O
  O59      1.0000 0.97350  0.11020  0.55310  Biso   1.000  O
  O60      1.0000 0.02650  0.11020  0.94690  Biso   1.000  O
  O61      1.0000 0.52650  0.38980  0.44690  Biso   1.000  O
  O62      1.0000 0.47350  0.38980  0.05310  Biso   1.000  O
  O63      1.0000 0.02650  0.88980  0.44690  Biso   1.000  O
  O64      1.0000 0.97350  0.88980  0.05310  Biso   1.000  O
  O65      1.0000 0.45170  0.64440  0.41190  Biso   1.000  O
  O66      1.0000 0.54830  0.64440  0.08810  Biso   1.000  O
  O67      1.0000 0.95170  0.14440  0.41190  Biso   1.000  O
  O68      1.0000 0.04830  0.14440  0.08810  Biso   1.000  O
  O69      1.0000 0.54830  0.35560  0.58810  Biso   1.000  O
  O70      1.0000 0.45170  0.35560  0.91190  Biso   1.000  O
  O71      1.0000 0.04830  0.85560  0.58810  Biso   1.000  O
  O72      1.0000 0.95170  0.85560  0.91190  Biso   1.000  O
