data_image0
_cell_length_a       8.8871
_cell_length_b       11.4931
_cell_length_c       16.457
_cell_angle_alpha    90
_cell_angle_beta     90
_cell_angle_gamma    90

_symmetry_space_group_name_H-M    "P 1"
_symmetry_int_tables_number       1

loop_
  _symmetry_equiv_pos_as_xyz
  'x, y, z'

loop_
  _atom_site_label
  _atom_site_occupancy
  _atom_site_fract_x
  _atom_site_fract_y
  _atom_site_fract_z
  _atom_site_thermal_displace_type
  _atom_site_B_iso_or_equiv
  _atom_site_type_symbol
  Cu1      1.0000 0.00000  0.00191  0.00000  Biso   1.000  Cu
  Cu2      1.0000 0.00000  0.00191  0.50000  Biso   1.000  Cu
  Cu3      1.0000 0.50000  0.50191  0.00000  Biso   1.000  Cu
  Cu4      1.0000 0.50000  0.50191  0.50000  Biso   1.000  Cu
  O1       1.0000 0.01560  0.88510  0.08920  Biso   1.000  O
  O2       1.0000 0.01560  0.88510  0.41080  Biso   1.000  O
  O3       1.0000 0.98440  0.88510  0.58920  Biso   1.000  O
  O4       1.0000 0.98440  0.88510  0.91080  Biso   1.000  O
  O5       1.0000 0.51560  0.38510  0.08920  Biso   1.000  O
  O6       1.0000 0.51560  0.38510  0.41080  Biso   1.000  O
  O7       1.0000 0.48440  0.38510  0.58920  Biso   1.000  O
  O8       1.0000 0.48440  0.38510  0.91080  Biso   1.000  O
  O9       1.0000 0.25410  0.88350  0.04920  Biso   1.000  O
  O10      1.0000 0.25410  0.88350  0.45080  Biso   1.000  O
  O11      1.0000 0.74590  0.88350  0.54920  Biso   1.000  O
  O12      1.0000 0.74590  0.88350  0.95080  Biso   1.000  O
  O13      1.0000 0.75410  0.38350  0.04920  Biso   1.000  O
  O14      1.0000 0.75410  0.38350  0.45080  Biso   1.000  O
  O15      1.0000 0.24590  0.38350  0.54920  Biso   1.000  O
  O16      1.0000 0.24590  0.38350  0.95080  Biso   1.000  O
  O17      1.0000 0.47110  0.61550  0.08650  Biso   1.000  O
  O18      1.0000 0.47110  0.61550  0.41350  Biso   1.000  O
  O19      1.0000 0.52890  0.61550  0.58650  Biso   1.000  O
  O20      1.0000 0.52890  0.61550  0.91350  Biso   1.000  O
  O21      1.0000 0.97110  0.11550  0.08650  Biso   1.000  O
  O22      1.0000 0.97110  0.11550  0.41350  Biso   1.000  O
  O23      1.0000 0.02890  0.11550  0.58650  Biso   1.000  O
  O24      1.0000 0.02890  0.11550  0.91350  Biso   1.000  O
  O25      1.0000 0.23060  0.61580  0.05070  Biso   1.000  O
  O26      1.0000 0.23060  0.61580  0.44930  Biso   1.000  O
  O27      1.0000 0.76940  0.61580  0.55070  Biso   1.000  O
  O28      1.0000 0.76940  0.61580  0.94930  Biso   1.000  O
  O29      1.0000 0.73060  0.11580  0.05070  Biso   1.000  O
  O30      1.0000 0.73060  0.11580  0.44930  Biso   1.000  O
  O31      1.0000 0.26940  0.11580  0.55070  Biso   1.000  O
  O32      1.0000 0.26940  0.11580  0.94930  Biso   1.000  O
  O33      1.0000 0.55130  0.91540  0.39030  Biso   1.000  O
  O34      1.0000 0.55130  0.91540  0.10970  Biso   1.000  O
  O35      1.0000 0.44870  0.91540  0.89030  Biso   1.000  O
  O36      1.0000 0.44870  0.91540  0.60970  Biso   1.000  O
  O37      1.0000 0.05130  0.41540  0.39030  Biso   1.000  O
  O38      1.0000 0.05130  0.41540  0.10970  Biso   1.000  O
  O39      1.0000 0.94870  0.41540  0.89030  Biso   1.000  O
  O40      1.0000 0.94870  0.41540  0.60970  Biso   1.000  O
  H1       1.0000 0.45770  0.90520  0.37770  Biso   1.000  H
  H2       1.0000 0.45770  0.90520  0.12230  Biso   1.000  H
  H3       1.0000 0.54230  0.90520  0.87770  Biso   1.000  H
  H4       1.0000 0.54230  0.90520  0.62230  Biso   1.000  H
  H5       1.0000 0.95770  0.40520  0.37770  Biso   1.000  H
  H6       1.0000 0.95770  0.40520  0.12230  Biso   1.000  H
  H7       1.0000 0.04230  0.40520  0.87770  Biso   1.000  H
  H8       1.0000 0.04230  0.40520  0.62230  Biso   1.000  H
  H9       1.0000 0.56150  0.97200  0.41820  Biso   1.000  H
  H10      1.0000 0.56150  0.97200  0.08180  Biso   1.000  H
  H11      1.0000 0.43850  0.97200  0.91820  Biso   1.000  H
  H12      1.0000 0.43850  0.97200  0.58180  Biso   1.000  H
  H13      1.0000 0.06150  0.47200  0.41820  Biso   1.000  H
  H14      1.0000 0.06150  0.47200  0.08180  Biso   1.000  H
  H15      1.0000 0.93850  0.47200  0.91820  Biso   1.000  H
  H16      1.0000 0.93850  0.47200  0.58180  Biso   1.000  H
  N1       1.0000 0.73060  0.23590  0.89986  Biso   1.000  N
  N2       1.0000 0.73060  0.23590  0.60014  Biso   1.000  N
  N3       1.0000 0.26940  0.23590  0.39986  Biso   1.000  N
  N4       1.0000 0.26940  0.23590  0.10014  Biso   1.000  N
  N5       1.0000 0.23060  0.73590  0.89986  Biso   1.000  N
  N6       1.0000 0.23060  0.73590  0.60014  Biso   1.000  N
  N7       1.0000 0.76940  0.73590  0.39986  Biso   1.000  N
  N8       1.0000 0.76940  0.73590  0.10014  Biso   1.000  N
  H17      1.0000 0.73990  0.19040  0.94330  Biso   1.000  H
  H18      1.0000 0.73990  0.19040  0.55670  Biso   1.000  H
  H19      1.0000 0.26010  0.19040  0.44330  Biso   1.000  H
  H20      1.0000 0.26010  0.19040  0.05670  Biso   1.000  H
  H21      1.0000 0.23990  0.69040  0.94330  Biso   1.000  H
  H22      1.0000 0.23990  0.69040  0.55670  Biso   1.000  H
  H23      1.0000 0.76010  0.69040  0.44330  Biso   1.000  H
  H24      1.0000 0.76010  0.69040  0.05670  Biso   1.000  H
  H25      1.0000 0.64950  0.28060  0.90530  Biso   1.000  H
  H26      1.0000 0.64950  0.28060  0.59470  Biso   1.000  H
  H27      1.0000 0.35050  0.28060  0.40530  Biso   1.000  H
  H28      1.0000 0.35050  0.28060  0.09470  Biso   1.000  H
  H29      1.0000 0.14950  0.78060  0.90530  Biso   1.000  H
  H30      1.0000 0.14950  0.78060  0.59470  Biso   1.000  H
  H31      1.0000 0.85050  0.78060  0.40530  Biso   1.000  H
  H32      1.0000 0.85050  0.78060  0.09470  Biso   1.000  H
  H33      1.0000 0.81190  0.28060  0.89520  Biso   1.000  H
  H34      1.0000 0.81190  0.28060  0.60480  Biso   1.000  H
  H35      1.0000 0.18810  0.28060  0.39520  Biso   1.000  H
  H36      1.0000 0.18810  0.28060  0.10480  Biso   1.000  H
  H37      1.0000 0.31190  0.78060  0.89520  Biso   1.000  H
  H38      1.0000 0.31190  0.78060  0.60480  Biso   1.000  H
  H39      1.0000 0.68810  0.78060  0.39520  Biso   1.000  H
  H40      1.0000 0.68810  0.78060  0.10480  Biso   1.000  H
  C1       1.0000 0.14820  0.84570  0.25000  Biso   1.000  C
  C2       1.0000 0.85180  0.84570  0.75000  Biso   1.000  C
  C3       1.0000 0.64820  0.34570  0.25000  Biso   1.000  C
  C4       1.0000 0.35180  0.34570  0.75000  Biso   1.000  C
  H41      1.0000 0.08560  0.91060  0.25000  Biso   1.000  H
  H42      1.0000 0.91440  0.91060  0.75000  Biso   1.000  H
  H43      1.0000 0.58560  0.41060  0.25000  Biso   1.000  H
  H44      1.0000 0.41440  0.41060  0.75000  Biso   1.000  H
  C5       1.0000 0.19590  0.79620  0.17490  Biso   1.000  C
  C6       1.0000 0.19590  0.79620  0.32510  Biso   1.000  C
  C7       1.0000 0.80410  0.79620  0.67490  Biso   1.000  C
  C8       1.0000 0.80410  0.79620  0.82510  Biso   1.000  C
  C9       1.0000 0.69590  0.29620  0.17490  Biso   1.000  C
  C10      1.0000 0.69590  0.29620  0.32510  Biso   1.000  C
  C11      1.0000 0.30410  0.29620  0.67490  Biso   1.000  C
  C12      1.0000 0.30410  0.29620  0.82510  Biso   1.000  C
  C13      1.0000 0.29470  0.70130  0.17770  Biso   1.000  C
  C14      1.0000 0.29470  0.70130  0.32230  Biso   1.000  C
  C15      1.0000 0.70530  0.70130  0.67770  Biso   1.000  C
  C16      1.0000 0.70530  0.70130  0.82230  Biso   1.000  C
  C17      1.0000 0.79470  0.20130  0.17770  Biso   1.000  C
  C18      1.0000 0.79470  0.20130  0.32230  Biso   1.000  C
  C19      1.0000 0.20530  0.20130  0.67770  Biso   1.000  C
  C20      1.0000 0.20530  0.20130  0.82230  Biso   1.000  C
  C21      1.0000 0.34070  0.65900  0.25000  Biso   1.000  C
  C22      1.0000 0.65930  0.65900  0.75000  Biso   1.000  C
  C23      1.0000 0.84070  0.15900  0.25000  Biso   1.000  C
  C24      1.0000 0.15930  0.15900  0.75000  Biso   1.000  C
  H45      1.0000 0.40810  0.59710  0.25000  Biso   1.000  H
  H46      1.0000 0.59190  0.59710  0.75000  Biso   1.000  H
  H47      1.0000 0.90810  0.09710  0.25000  Biso   1.000  H
  H48      1.0000 0.09190  0.09710  0.75000  Biso   1.000  H
  C25      1.0000 0.15450  0.85700  0.09850  Biso   1.000  C
  C26      1.0000 0.15450  0.85700  0.40150  Biso   1.000  C
  C27      1.0000 0.84550  0.85700  0.59850  Biso   1.000  C
  C28      1.0000 0.84550  0.85700  0.90150  Biso   1.000  C
  C29      1.0000 0.65450  0.35700  0.09850  Biso   1.000  C
  C30      1.0000 0.65450  0.35700  0.40150  Biso   1.000  C
  C31      1.0000 0.34550  0.35700  0.59850  Biso   1.000  C
  C32      1.0000 0.34550  0.35700  0.90150  Biso   1.000  C
  C33      1.0000 0.33420  0.64020  0.09760  Biso   1.000  C
  C34      1.0000 0.33420  0.64020  0.40240  Biso   1.000  C
  C35      1.0000 0.66580  0.64020  0.59760  Biso   1.000  C
  C36      1.0000 0.66580  0.64020  0.90240  Biso   1.000  C
  C37      1.0000 0.83420  0.14020  0.09760  Biso   1.000  C
  C38      1.0000 0.83420  0.14020  0.40240  Biso   1.000  C
  C39      1.0000 0.16580  0.14020  0.59760  Biso   1.000  C
  C40      1.0000 0.16580  0.14020  0.90240  Biso   1.000  C
  C41      1.0000 0.73480  0.23030  0.75000  Biso   1.000  C
  C42      1.0000 0.26520  0.23030  0.25000  Biso   1.000  C
  C43      1.0000 0.23480  0.73030  0.75000  Biso   1.000  C
  C44      1.0000 0.76520  0.73030  0.25000  Biso   1.000  C
  H49      1.0000 0.66330  0.29410  0.75000  Biso   1.000  H
  H50      1.0000 0.33670  0.29410  0.25000  Biso   1.000  H
  H51      1.0000 0.16330  0.79410  0.75000  Biso   1.000  H
  H52      1.0000 0.83670  0.79410  0.25000  Biso   1.000  H
  H53      1.0000 0.83510  0.26360  0.75000  Biso   1.000  H
  H54      1.0000 0.16490  0.26360  0.25000  Biso   1.000  H
  H55      1.0000 0.33510  0.76360  0.75000  Biso   1.000  H
  H56      1.0000 0.66490  0.76360  0.25000  Biso   1.000  H
  C45      1.0000 0.71450  0.16180  0.82520  Biso   1.000  C
  C46      1.0000 0.71450  0.16180  0.67480  Biso   1.000  C
  C47      1.0000 0.28550  0.16180  0.32520  Biso   1.000  C
  C48      1.0000 0.28550  0.16180  0.17480  Biso   1.000  C
  C49      1.0000 0.21450  0.66180  0.82520  Biso   1.000  C
  C50      1.0000 0.21450  0.66180  0.67480  Biso   1.000  C
  C51      1.0000 0.78550  0.66180  0.32520  Biso   1.000  C
  C52      1.0000 0.78550  0.66180  0.17480  Biso   1.000  C
  H57      1.0000 0.78870  0.09990  0.82670  Biso   1.000  H
  H58      1.0000 0.78870  0.09990  0.67330  Biso   1.000  H
  H59      1.0000 0.21130  0.09990  0.32670  Biso   1.000  H
  H60      1.0000 0.21130  0.09990  0.17330  Biso   1.000  H
  H61      1.0000 0.28870  0.59990  0.82670  Biso   1.000  H
  H62      1.0000 0.28870  0.59990  0.67330  Biso   1.000  H
  H63      1.0000 0.71130  0.59990  0.32670  Biso   1.000  H
  H64      1.0000 0.71130  0.59990  0.17330  Biso   1.000  H
  H65      1.0000 0.61550  0.12630  0.82480  Biso   1.000  H
  H66      1.0000 0.61550  0.12630  0.67520  Biso   1.000  H
  H67      1.0000 0.38450  0.12630  0.32480  Biso   1.000  H
  H68      1.0000 0.38450  0.12630  0.17520  Biso   1.000  H
  H69      1.0000 0.11550  0.62630  0.82480  Biso   1.000  H
  H70      1.0000 0.11550  0.62630  0.67520  Biso   1.000  H
  H71      1.0000 0.88450  0.62630  0.32480  Biso   1.000  H
  H72      1.0000 0.88450  0.62630  0.17520  Biso   1.000  H
