data_image0
_cell_length_a       11.161
_cell_length_b       11.94
_cell_length_c       15.513
_cell_angle_alpha    90
_cell_angle_beta     97.07
_cell_angle_gamma    90

_symmetry_space_group_name_H-M    "P 1"
_symmetry_int_tables_number       1

loop_
  _symmetry_equiv_pos_as_xyz
  'x, y, z'

loop_
  _atom_site_label
  _atom_site_occupancy
  _atom_site_fract_x
  _atom_site_fract_y
  _atom_site_fract_z
  _atom_site_thermal_displace_type
  _atom_site_B_iso_or_equiv
  _atom_site_type_symbol
  Cu1      1.0000 0.14022  0.00330  0.15283  Biso   1.000  Cu
  Cu2      1.0000 0.35978  0.50330  0.34717  Biso   1.000  Cu
  Cu3      1.0000 0.85978  0.99670  0.84717  Biso   1.000  Cu
  Cu4      1.0000 0.64022  0.49670  0.65283  Biso   1.000  Cu
  O1       1.0000 0.08360  0.85740  0.18070  Biso   1.000  O
  O2       1.0000 0.41640  0.35740  0.31930  Biso   1.000  O
  O3       1.0000 0.91640  0.14260  0.81930  Biso   1.000  O
  O4       1.0000 0.58360  0.64260  0.68070  Biso   1.000  O
  O5       1.0000 0.08900  0.04720  0.26150  Biso   1.000  O
  O6       1.0000 0.41100  0.54720  0.23850  Biso   1.000  O
  O7       1.0000 0.91100  0.95280  0.73850  Biso   1.000  O
  O8       1.0000 0.58900  0.45280  0.76150  Biso   1.000  O
  O9       1.0000 0.57900  0.06480  0.17450  Biso   1.000  O
  O10      1.0000 0.92100  0.56480  0.32550  Biso   1.000  O
  O11      1.0000 0.42100  0.93520  0.82550  Biso   1.000  O
  O12      1.0000 0.07900  0.43520  0.67450  Biso   1.000  O
  O13      1.0000 0.13980  0.43830  0.30050  Biso   1.000  O
  O14      1.0000 0.36020  0.93830  0.19950  Biso   1.000  O
  O15      1.0000 0.86020  0.56170  0.69950  Biso   1.000  O
  O16      1.0000 0.63980  0.06170  0.80050  Biso   1.000  O
  O17      1.0000 0.06810  0.62250  0.93450  Biso   1.000  O
  O18      1.0000 0.43190  0.12250  0.56550  Biso   1.000  O
  O19      1.0000 0.93190  0.37750  0.06550  Biso   1.000  O
  O20      1.0000 0.56810  0.87750  0.43450  Biso   1.000  O
  O21      1.0000 0.06680  0.19580  0.68000  Biso   1.000  O
  O22      1.0000 0.43320  0.69580  0.82000  Biso   1.000  O
  O23      1.0000 0.93320  0.80420  0.32000  Biso   1.000  O
  O24      1.0000 0.56680  0.30420  0.18000  Biso   1.000  O
  O25      1.0000 0.29230  0.08770  0.70610  Biso   1.000  O
  O26      1.0000 0.20770  0.58770  0.79390  Biso   1.000  O
  O27      1.0000 0.70770  0.91230  0.29390  Biso   1.000  O
  O28      1.0000 0.79230  0.41230  0.20610  Biso   1.000  O
  N1       1.0000 0.15710  0.96380  0.03190  Biso   1.000  N
  N2       1.0000 0.34290  0.46380  0.46810  Biso   1.000  N
  N3       1.0000 0.84290  0.03620  0.96810  Biso   1.000  N
  N4       1.0000 0.65710  0.53620  0.53190  Biso   1.000  N
  N5       1.0000 0.18940  0.15370  0.12550  Biso   1.000  N
  N6       1.0000 0.31060  0.65370  0.37450  Biso   1.000  N
  N7       1.0000 0.81060  0.84630  0.87450  Biso   1.000  N
  N8       1.0000 0.68940  0.34630  0.62550  Biso   1.000  N
  N9       1.0000 0.07000  0.29540  0.37840  Biso   1.000  N
  N10      1.0000 0.43000  0.79540  0.12160  Biso   1.000  N
  N11      1.0000 0.93000  0.70460  0.62160  Biso   1.000  N
  N12      1.0000 0.57000  0.20460  0.87840  Biso   1.000  N
  N13      1.0000 0.03090  0.60120  0.07450  Biso   1.000  N
  N14      1.0000 0.46910  0.10120  0.42550  Biso   1.000  N
  N15      1.0000 0.96910  0.39880  0.92550  Biso   1.000  N
  N16      1.0000 0.53090  0.89880  0.57450  Biso   1.000  N
  C1       1.0000 0.04250  0.17580  0.37100  Biso   1.000  C
  C2       1.0000 0.45750  0.67580  0.12900  Biso   1.000  C
  C3       1.0000 0.95750  0.82420  0.62900  Biso   1.000  C
  C4       1.0000 0.54250  0.32420  0.87100  Biso   1.000  C
  C5       1.0000 0.03410  0.66590  0.15240  Biso   1.000  C
  C6       1.0000 0.46590  0.16590  0.34760  Biso   1.000  C
  C7       1.0000 0.96590  0.33410  0.84760  Biso   1.000  C
  C8       1.0000 0.53410  0.83410  0.65240  Biso   1.000  C
  C9       1.0000 0.07460  0.77740  0.12660  Biso   1.000  C
  C10      1.0000 0.42540  0.27740  0.37340  Biso   1.000  C
  C11      1.0000 0.92540  0.22260  0.87340  Biso   1.000  C
  C12      1.0000 0.57460  0.72260  0.62660  Biso   1.000  C
  C13      1.0000 0.09160  0.14820  0.28690  Biso   1.000  C
  C14      1.0000 0.40840  0.64820  0.21310  Biso   1.000  C
  C15      1.0000 0.90840  0.85180  0.71310  Biso   1.000  C
  C16      1.0000 0.59160  0.35180  0.78690  Biso   1.000  C
  C17      1.0000 0.09540  0.77540  0.04040  Biso   1.000  C
  C18      1.0000 0.40460  0.27540  0.45960  Biso   1.000  C
  C19      1.0000 0.90460  0.22460  0.95960  Biso   1.000  C
  C20      1.0000 0.59540  0.72460  0.54040  Biso   1.000  C
  C21      1.0000 0.13280  0.24330  0.24990  Biso   1.000  C
  C22      1.0000 0.36720  0.74330  0.25010  Biso   1.000  C
  C23      1.0000 0.86720  0.75670  0.75010  Biso   1.000  C
  C24      1.0000 0.63280  0.25670  0.74990  Biso   1.000  C
  C25      1.0000 0.06550  0.66180  0.00800  Biso   1.000  C
  C26      1.0000 0.43450  0.16180  0.49200  Biso   1.000  C
  C27      1.0000 0.93450  0.33820  0.99200  Biso   1.000  C
  C28      1.0000 0.56550  0.83820  0.50800  Biso   1.000  C
  C29      1.0000 0.11660  0.33720  0.30830  Biso   1.000  C
  C30      1.0000 0.38340  0.83720  0.19170  Biso   1.000  C
  C31      1.0000 0.88340  0.66280  0.69170  Biso   1.000  C
  C32      1.0000 0.61660  0.16280  0.80830  Biso   1.000  C
  C33      1.0000 0.18370  0.24590  0.16830  Biso   1.000  C
  C34      1.0000 0.31630  0.74590  0.33170  Biso   1.000  C
  C35      1.0000 0.81630  0.75410  0.83170  Biso   1.000  C
  C36      1.0000 0.68370  0.25410  0.66830  Biso   1.000  C
  C37      1.0000 0.13360  0.86880  0.99270  Biso   1.000  C
  C38      1.0000 0.36640  0.36880  0.50730  Biso   1.000  C
  C39      1.0000 0.86640  0.13120  0.00730  Biso   1.000  C
  C40      1.0000 0.63360  0.63120  0.49270  Biso   1.000  C
  C41      1.0000 0.19000  0.06220  0.98390  Biso   1.000  C
  C42      1.0000 0.31000  0.56220  0.51610  Biso   1.000  C
  C43      1.0000 0.81000  0.93780  0.01610  Biso   1.000  C
  C44      1.0000 0.69000  0.43780  0.48390  Biso   1.000  C
  C45      1.0000 0.24960  0.14950  0.04590  Biso   1.000  C
  C46      1.0000 0.25040  0.64950  0.45410  Biso   1.000  C
  C47      1.0000 0.75040  0.85050  0.95410  Biso   1.000  C
  C48      1.0000 0.74960  0.35050  0.54590  Biso   1.000  C
  C49      1.0000 0.10640  0.10810  0.44590  Biso   1.000  C
  C50      1.0000 0.39360  0.60810  0.05410  Biso   1.000  C
  C51      1.0000 0.89360  0.89190  0.55410  Biso   1.000  C
  C52      1.0000 0.60640  0.39190  0.94590  Biso   1.000  C
  C53      1.0000 0.90620  0.15560  0.36080  Biso   1.000  C
  C54      1.0000 0.59380  0.65560  0.13920  Biso   1.000  C
  C55      1.0000 0.09380  0.84440  0.63920  Biso   1.000  C
  C56      1.0000 0.40620  0.34440  0.86080  Biso   1.000  C
  C57      1.0000 0.03980  0.36160  0.44970  Biso   1.000  C
  C58      1.0000 0.46020  0.86160  0.05030  Biso   1.000  C
  C59      1.0000 0.96020  0.63840  0.55030  Biso   1.000  C
  C60      1.0000 0.53980  0.13840  0.94970  Biso   1.000  C
  C61      1.0000 0.14600  0.85420  0.89820  Biso   1.000  C
  C62      1.0000 0.35400  0.35420  0.60180  Biso   1.000  C
  C63      1.0000 0.85400  0.14580  0.10180  Biso   1.000  C
  C64      1.0000 0.64600  0.64580  0.39820  Biso   1.000  C
  C65      1.0000 0.22870  0.35400  0.13720  Biso   1.000  C
  C66      1.0000 0.27130  0.85400  0.36280  Biso   1.000  C
  C67      1.0000 0.77130  0.64600  0.86280  Biso   1.000  C
  C68      1.0000 0.72870  0.14600  0.63720  Biso   1.000  C
  H1       1.0000 0.00200  0.53400  0.07500  Biso   1.000  H
  H2       1.0000 0.49800  0.03400  0.42500  Biso   1.000  H
  H3       1.0000 0.99800  0.46600  0.92500  Biso   1.000  H
  H4       1.0000 0.50200  0.96600  0.57500  Biso   1.000  H
  H5       1.0000 0.09000  0.63200  0.19100  Biso   1.000  H
  H6       1.0000 0.41000  0.13200  0.30900  Biso   1.000  H
  H7       1.0000 0.91000  0.36800  0.80900  Biso   1.000  H
  H8       1.0000 0.59000  0.86800  0.69100  Biso   1.000  H
  H9       1.0000 0.52900  0.04600  0.17700  Biso   1.000  H
  H10      1.0000 0.97100  0.54600  0.32300  Biso   1.000  H
  H11      1.0000 0.47100  0.95400  0.82300  Biso   1.000  H
  H12      1.0000 0.02900  0.45400  0.67700  Biso   1.000  H
  H13      1.0000 0.96700  0.67400  0.16600  Biso   1.000  H
  H14      1.0000 0.53300  0.17400  0.33400  Biso   1.000  H
  H15      1.0000 0.03300  0.32600  0.83400  Biso   1.000  H
  H16      1.0000 0.46700  0.82600  0.66600  Biso   1.000  H
  H17      1.0000 0.57800  0.13200  0.17900  Biso   1.000  H
  H18      1.0000 0.92200  0.63200  0.32100  Biso   1.000  H
  H19      1.0000 0.42200  0.86800  0.82100  Biso   1.000  H
  H20      1.0000 0.07800  0.36800  0.67900  Biso   1.000  H
  H21      1.0000 0.12000  0.20500  0.72500  Biso   1.000  H
  H22      1.0000 0.38000  0.70500  0.77500  Biso   1.000  H
  H23      1.0000 0.88000  0.79500  0.27500  Biso   1.000  H
  H24      1.0000 0.62000  0.29500  0.22500  Biso   1.000  H
  H25      1.0000 0.09200  0.14800  0.68700  Biso   1.000  H
  H26      1.0000 0.40800  0.64800  0.81300  Biso   1.000  H
  H27      1.0000 0.90800  0.85200  0.31300  Biso   1.000  H
  H28      1.0000 0.59200  0.35200  0.18700  Biso   1.000  H
  H29      1.0000 0.31200  0.08500  0.67700  Biso   1.000  H
  H30      1.0000 0.18800  0.58500  0.82300  Biso   1.000  H
  H31      1.0000 0.68800  0.91500  0.32300  Biso   1.000  H
  H32      1.0000 0.81200  0.41500  0.17700  Biso   1.000  H
  H33      1.0000 0.34400  0.03100  0.75800  Biso   1.000  H
  H34      1.0000 0.15600  0.53100  0.74200  Biso   1.000  H
  H35      1.0000 0.65600  0.96900  0.24200  Biso   1.000  H
  H36      1.0000 0.84400  0.46900  0.25800  Biso   1.000  H
  H37      1.0000 0.24600  0.04500  0.94400  Biso   1.000  H
  H38      1.0000 0.25400  0.54500  0.55600  Biso   1.000  H
  H39      1.0000 0.75400  0.95500  0.05600  Biso   1.000  H
  H40      1.0000 0.74600  0.45500  0.44400  Biso   1.000  H
  H41      1.0000 0.25300  0.22200  0.01800  Biso   1.000  H
  H42      1.0000 0.24700  0.72200  0.48200  Biso   1.000  H
  H43      1.0000 0.74700  0.77800  0.98200  Biso   1.000  H
  H44      1.0000 0.75300  0.27800  0.51800  Biso   1.000  H
  H45      1.0000 0.33500  0.12700  0.06200  Biso   1.000  H
  H46      1.0000 0.16500  0.62700  0.43800  Biso   1.000  H
  H47      1.0000 0.66500  0.87300  0.93800  Biso   1.000  H
  H48      1.0000 0.83500  0.37300  0.56200  Biso   1.000  H
  H49      1.0000 0.12000  0.09500  0.95000  Biso   1.000  H
  H50      1.0000 0.38000  0.59500  0.55000  Biso   1.000  H
  H51      1.0000 0.88000  0.90500  0.05000  Biso   1.000  H
  H52      1.0000 0.62000  0.40500  0.45000  Biso   1.000  H
  H53      1.0000 0.08900  0.02500  0.43400  Biso   1.000  H
  H54      1.0000 0.41100  0.52500  0.06600  Biso   1.000  H
  H55      1.0000 0.91100  0.97500  0.56600  Biso   1.000  H
  H56      1.0000 0.58900  0.47500  0.93400  Biso   1.000  H
  H57      1.0000 0.18700  0.12200  0.45200  Biso   1.000  H
  H58      1.0000 0.31300  0.62200  0.04800  Biso   1.000  H
  H59      1.0000 0.81300  0.87800  0.54800  Biso   1.000  H
  H60      1.0000 0.68700  0.37800  0.95200  Biso   1.000  H
  H61      1.0000 0.08500  0.12600  0.49800  Biso   1.000  H
  H62      1.0000 0.41500  0.62600  0.00200  Biso   1.000  H
  H63      1.0000 0.91500  0.87400  0.50200  Biso   1.000  H
  H64      1.0000 0.58500  0.37400  0.99800  Biso   1.000  H
  H65      1.0000 0.86600  0.20800  0.31700  Biso   1.000  H
  H66      1.0000 0.63400  0.70800  0.18300  Biso   1.000  H
  H67      1.0000 0.13400  0.79200  0.68300  Biso   1.000  H
  H68      1.0000 0.36600  0.29200  0.81700  Biso   1.000  H
  H69      1.0000 0.87600  0.17500  0.41400  Biso   1.000  H
  H70      1.0000 0.62400  0.67500  0.08600  Biso   1.000  H
  H71      1.0000 0.12400  0.82500  0.58600  Biso   1.000  H
  H72      1.0000 0.37600  0.32500  0.91400  Biso   1.000  H
  H73      1.0000 0.89300  0.07800  0.34400  Biso   1.000  H
  H74      1.0000 0.60700  0.57800  0.15600  Biso   1.000  H
  H75      1.0000 0.10700  0.92200  0.65600  Biso   1.000  H
  H76      1.0000 0.39300  0.42200  0.84400  Biso   1.000  H
  H77      1.0000 0.08300  0.42200  0.45200  Biso   1.000  H
  H78      1.0000 0.41700  0.92200  0.04800  Biso   1.000  H
  H79      1.0000 0.91700  0.57800  0.54800  Biso   1.000  H
  H80      1.0000 0.58300  0.07800  0.95200  Biso   1.000  H
  H81      1.0000 0.05100  0.32600  0.49900  Biso   1.000  H
  H82      1.0000 0.44900  0.82600  0.00100  Biso   1.000  H
  H83      1.0000 0.94900  0.67400  0.50100  Biso   1.000  H
  H84      1.0000 0.55100  0.17400  0.99900  Biso   1.000  H
  H85      1.0000 0.95300  0.38400  0.43200  Biso   1.000  H
  H86      1.0000 0.54700  0.88400  0.06800  Biso   1.000  H
  H87      1.0000 0.04700  0.61600  0.56800  Biso   1.000  H
  H88      1.0000 0.45300  0.11600  0.93200  Biso   1.000  H
  H89      1.0000 0.19800  0.37200  0.08000  Biso   1.000  H
  H90      1.0000 0.30200  0.87200  0.42000  Biso   1.000  H
  H91      1.0000 0.80200  0.62800  0.92000  Biso   1.000  H
  H92      1.0000 0.69800  0.12800  0.58000  Biso   1.000  H
  H93      1.0000 0.12800  0.91900  0.86800  Biso   1.000  H
  H94      1.0000 0.37200  0.41900  0.63200  Biso   1.000  H
  H95      1.0000 0.87200  0.08100  0.13200  Biso   1.000  H
  H96      1.0000 0.62800  0.58100  0.36800  Biso   1.000  H
  H97      1.0000 0.09200  0.78900  0.87700  Biso   1.000  H
  H98      1.0000 0.40800  0.28900  0.62300  Biso   1.000  H
  H99      1.0000 0.90800  0.21100  0.12300  Biso   1.000  H
  H100     1.0000 0.59200  0.71100  0.37700  Biso   1.000  H
  H101     1.0000 0.30700  0.35100  0.13400  Biso   1.000  H
  H102     1.0000 0.19300  0.85100  0.36600  Biso   1.000  H
  H103     1.0000 0.69300  0.64900  0.86600  Biso   1.000  H
  H104     1.0000 0.80700  0.14900  0.63400  Biso   1.000  H
  H105     1.0000 0.22800  0.84700  0.88800  Biso   1.000  H
  H106     1.0000 0.27200  0.34700  0.61200  Biso   1.000  H
  H107     1.0000 0.77200  0.15300  0.11200  Biso   1.000  H
  H108     1.0000 0.72800  0.65300  0.38800  Biso   1.000  H
  H109     1.0000 0.21600  0.41800  0.17100  Biso   1.000  H
  H110     1.0000 0.28400  0.91800  0.32900  Biso   1.000  H
  H111     1.0000 0.78400  0.58200  0.82900  Biso   1.000  H
  H112     1.0000 0.71600  0.08200  0.67100  Biso   1.000  H
