data_image0
_cell_length_a       8.365
_cell_length_b       15.0406
_cell_length_c       17.8481
_cell_angle_alpha    90
_cell_angle_beta     90
_cell_angle_gamma    90

_symmetry_space_group_name_H-M    "P 1"
_symmetry_int_tables_number       1

loop_
  _symmetry_equiv_pos_as_xyz
  'x, y, z'

loop_
  _atom_site_label
  _atom_site_occupancy
  _atom_site_fract_x
  _atom_site_fract_y
  _atom_site_fract_z
  _atom_site_thermal_displace_type
  _atom_site_B_iso_or_equiv
  _atom_site_type_symbol
  Cu1      1.0000 0.58434  0.22596  0.53728  Biso   1.000  Cu
  Cu2      1.0000 0.91566  0.77404  0.03728  Biso   1.000  Cu
  Cu3      1.0000 0.08434  0.27404  0.46272  Biso   1.000  Cu
  Cu4      1.0000 0.41566  0.72596  0.96272  Biso   1.000  Cu
  O1       1.0000 0.62470  0.29870  0.44850  Biso   1.000  O
  O2       1.0000 0.87530  0.70130  0.94850  Biso   1.000  O
  O3       1.0000 0.12470  0.20130  0.55150  Biso   1.000  O
  O4       1.0000 0.37530  0.79870  0.05150  Biso   1.000  O
  O5       1.0000 0.36130  0.28960  0.43510  Biso   1.000  O
  O6       1.0000 0.13870  0.71040  0.93510  Biso   1.000  O
  O7       1.0000 0.86130  0.21040  0.56490  Biso   1.000  O
  O8       1.0000 0.63870  0.78960  0.06490  Biso   1.000  O
  O9       1.0000 0.56310  0.33460  0.59740  Biso   1.000  O
  O10      1.0000 0.93690  0.66540  0.09740  Biso   1.000  O
  O11      1.0000 0.06310  0.16540  0.40260  Biso   1.000  O
  O12      1.0000 0.43690  0.83460  0.90260  Biso   1.000  O
  O13      1.0000 0.51170  0.16650  0.62880  Biso   1.000  O
  O14      1.0000 0.98830  0.83350  0.12880  Biso   1.000  O
  O15      1.0000 0.01170  0.33350  0.37120  Biso   1.000  O
  O16      1.0000 0.48830  0.66650  0.87120  Biso   1.000  O
  O17      1.0000 0.45580  0.19980  0.74710  Biso   1.000  O
  O18      1.0000 0.04420  0.80020  0.24710  Biso   1.000  O
  O19      1.0000 0.95580  0.30020  0.25290  Biso   1.000  O
  O20      1.0000 0.54420  0.69980  0.75290  Biso   1.000  O
  O21      1.0000 0.49420  0.37540  0.71180  Biso   1.000  O
  O22      1.0000 0.00580  0.62460  0.21180  Biso   1.000  O
  O23      1.0000 0.99420  0.12460  0.28820  Biso   1.000  O
  O24      1.0000 0.50580  0.87540  0.78820  Biso   1.000  O
  N1       1.0000 0.52660  0.71650  0.27260  Biso   1.000  N
  N2       1.0000 0.97340  0.28350  0.77260  Biso   1.000  N
  N3       1.0000 0.02660  0.78350  0.72740  Biso   1.000  N
  N4       1.0000 0.47340  0.21650  0.22740  Biso   1.000  N
  N5       1.0000 0.57090  0.11200  0.48150  Biso   1.000  N
  N6       1.0000 0.92910  0.88800  0.98150  Biso   1.000  N
  N7       1.0000 0.07090  0.38800  0.51850  Biso   1.000  N
  N8       1.0000 0.42910  0.61200  0.01850  Biso   1.000  N
  C1       1.0000 0.50300  0.40260  0.36680  Biso   1.000  C
  C2       1.0000 0.99700  0.59740  0.86680  Biso   1.000  C
  C3       1.0000 0.00300  0.09740  0.63320  Biso   1.000  C
  C4       1.0000 0.49700  0.90260  0.13320  Biso   1.000  C
  C5       1.0000 0.64860  0.43870  0.34730  Biso   1.000  C
  C6       1.0000 0.85140  0.56130  0.84730  Biso   1.000  C
  C7       1.0000 0.14860  0.06130  0.65270  Biso   1.000  C
  C8       1.0000 0.35140  0.93870  0.15270  Biso   1.000  C
  H1       1.0000 0.74253  0.41368  0.36551  Biso   1.000  H
  H2       1.0000 0.75747  0.58632  0.86551  Biso   1.000  H
  H3       1.0000 0.24253  0.08632  0.63449  Biso   1.000  H
  H4       1.0000 0.25747  0.91368  0.13449  Biso   1.000  H
  C9       1.0000 0.65540  0.51260  0.30040  Biso   1.000  C
  C10      1.0000 0.84460  0.48740  0.80040  Biso   1.000  C
  C11      1.0000 0.15540  0.98740  0.69960  Biso   1.000  C
  C12      1.0000 0.34460  0.01260  0.19960  Biso   1.000  C
  H5       1.0000 0.75406  0.53581  0.28641  Biso   1.000  H
  H6       1.0000 0.74594  0.46419  0.78641  Biso   1.000  H
  H7       1.0000 0.25406  0.96419  0.71359  Biso   1.000  H
  H8       1.0000 0.24594  0.03581  0.21359  Biso   1.000  H
  C13      1.0000 0.51740  0.55140  0.27470  Biso   1.000  C
  C14      1.0000 0.98260  0.44860  0.77470  Biso   1.000  C
  C15      1.0000 0.01740  0.94860  0.72530  Biso   1.000  C
  C16      1.0000 0.48260  0.05140  0.22530  Biso   1.000  C
  C17      1.0000 0.36870  0.51560  0.29350  Biso   1.000  C
  C18      1.0000 0.13130  0.48440  0.79350  Biso   1.000  C
  C19      1.0000 0.86870  0.98440  0.70650  Biso   1.000  C
  C20      1.0000 0.63130  0.01560  0.20650  Biso   1.000  C
  H9       1.0000 0.27531  0.54091  0.27496  Biso   1.000  H
  H10      1.0000 0.22469  0.45909  0.77496  Biso   1.000  H
  H11      1.0000 0.77531  0.95909  0.72504  Biso   1.000  H
  H12      1.0000 0.72469  0.04091  0.22504  Biso   1.000  H
  C21      1.0000 0.36180  0.44160  0.34030  Biso   1.000  C
  C22      1.0000 0.13820  0.55840  0.84030  Biso   1.000  C
  C23      1.0000 0.86180  0.05840  0.65970  Biso   1.000  C
  C24      1.0000 0.63820  0.94160  0.15970  Biso   1.000  C
  H13      1.0000 0.26329  0.41797  0.35404  Biso   1.000  H
  H14      1.0000 0.23671  0.58203  0.85404  Biso   1.000  H
  H15      1.0000 0.76329  0.08203  0.64596  Biso   1.000  H
  H16      1.0000 0.73671  0.91797  0.14596  Biso   1.000  H
  C25      1.0000 0.52230  0.63280  0.22550  Biso   1.000  C
  C26      1.0000 0.97770  0.36720  0.72550  Biso   1.000  C
  C27      1.0000 0.02230  0.86720  0.77450  Biso   1.000  C
  C28      1.0000 0.47770  0.13280  0.27450  Biso   1.000  C
  H17      1.0000 0.42866  0.63373  0.19344  Biso   1.000  H
  H18      1.0000 0.07134  0.36627  0.69344  Biso   1.000  H
  H19      1.0000 0.92866  0.86627  0.80656  Biso   1.000  H
  H20      1.0000 0.57134  0.13373  0.30656  Biso   1.000  H
  H21      1.0000 0.61629  0.63051  0.19375  Biso   1.000  H
  H22      1.0000 0.88371  0.36949  0.69375  Biso   1.000  H
  H23      1.0000 0.11629  0.86949  0.80625  Biso   1.000  H
  H24      1.0000 0.38371  0.13051  0.30625  Biso   1.000  H
  C29      1.0000 0.66780  0.74460  0.29880  Biso   1.000  C
  C30      1.0000 0.83220  0.25540  0.79880  Biso   1.000  C
  C31      1.0000 0.16780  0.75540  0.70120  Biso   1.000  C
  C32      1.0000 0.33220  0.24460  0.20120  Biso   1.000  C
  H25      1.0000 0.75951  0.71175  0.28858  Biso   1.000  H
  H26      1.0000 0.74049  0.28825  0.78858  Biso   1.000  H
  H27      1.0000 0.25951  0.78825  0.71142  Biso   1.000  H
  H28      1.0000 0.24049  0.21175  0.21142  Biso   1.000  H
  C33      1.0000 0.67950  0.82180  0.34080  Biso   1.000  C
  C34      1.0000 0.82050  0.17820  0.84080  Biso   1.000  C
  C35      1.0000 0.17950  0.67820  0.65920  Biso   1.000  C
  C36      1.0000 0.32050  0.32180  0.15920  Biso   1.000  C
  H29      1.0000 0.77842  0.84189  0.35750  Biso   1.000  H
  H30      1.0000 0.72158  0.15811  0.85750  Biso   1.000  H
  H31      1.0000 0.27842  0.65811  0.64250  Biso   1.000  H
  H32      1.0000 0.22158  0.34189  0.14250  Biso   1.000  H
  C37      1.0000 0.54040  0.86880  0.35760  Biso   1.000  C
  C38      1.0000 0.95960  0.13120  0.85760  Biso   1.000  C
  C39      1.0000 0.04040  0.63120  0.64240  Biso   1.000  C
  C40      1.0000 0.45960  0.36880  0.14240  Biso   1.000  C
  C41      1.0000 0.39910  0.83610  0.33100  Biso   1.000  C
  C42      1.0000 0.10090  0.16390  0.83100  Biso   1.000  C
  C43      1.0000 0.89910  0.66390  0.66900  Biso   1.000  C
  C44      1.0000 0.60090  0.33610  0.16900  Biso   1.000  C
  H33      1.0000 0.30368  0.86545  0.34100  Biso   1.000  H
  H34      1.0000 0.19632  0.13455  0.84100  Biso   1.000  H
  H35      1.0000 0.80368  0.63455  0.65900  Biso   1.000  H
  H36      1.0000 0.69632  0.36545  0.15900  Biso   1.000  H
  C45      1.0000 0.39940  0.75890  0.28900  Biso   1.000  C
  C46      1.0000 0.10060  0.24110  0.78900  Biso   1.000  C
  C47      1.0000 0.89940  0.74110  0.71100  Biso   1.000  C
  C48      1.0000 0.60060  0.25890  0.21100  Biso   1.000  C
  H37      1.0000 0.30210  0.73686  0.27197  Biso   1.000  H
  H38      1.0000 0.19790  0.26314  0.77197  Biso   1.000  H
  H39      1.0000 0.80210  0.76314  0.72803  Biso   1.000  H
  H40      1.0000 0.69790  0.23686  0.22803  Biso   1.000  H
  C49      1.0000 0.55030  0.95260  0.40230  Biso   1.000  C
  C50      1.0000 0.94970  0.04740  0.90230  Biso   1.000  C
  C51      1.0000 0.05030  0.54740  0.59770  Biso   1.000  C
  C52      1.0000 0.44970  0.45260  0.09770  Biso   1.000  C
  C53      1.0000 0.69720  0.99480  0.41290  Biso   1.000  C
  C54      1.0000 0.80280  0.00520  0.91290  Biso   1.000  C
  C55      1.0000 0.19720  0.50520  0.58710  Biso   1.000  C
  C56      1.0000 0.30280  0.49480  0.08710  Biso   1.000  C
  H41      1.0000 0.79056  0.97054  0.39325  Biso   1.000  H
  H42      1.0000 0.70944  0.02946  0.89325  Biso   1.000  H
  H43      1.0000 0.29056  0.52946  0.60675  Biso   1.000  H
  H44      1.0000 0.20944  0.47054  0.10675  Biso   1.000  H
  C57      1.0000 0.70110  0.07390  0.45330  Biso   1.000  C
  C58      1.0000 0.79890  0.92610  0.95330  Biso   1.000  C
  C59      1.0000 0.20110  0.42610  0.54670  Biso   1.000  C
  C60      1.0000 0.29890  0.57390  0.04670  Biso   1.000  C
  H45      1.0000 0.79935  0.10133  0.46105  Biso   1.000  H
  H46      1.0000 0.70065  0.89867  0.96105  Biso   1.000  H
  H47      1.0000 0.29935  0.39867  0.53895  Biso   1.000  H
  H48      1.0000 0.20065  0.60133  0.03895  Biso   1.000  H
  C61      1.0000 0.43060  0.07110  0.47060  Biso   1.000  C
  C62      1.0000 0.06940  0.92890  0.97060  Biso   1.000  C
  C63      1.0000 0.93060  0.42890  0.52940  Biso   1.000  C
  C64      1.0000 0.56940  0.57110  0.02940  Biso   1.000  C
  H49      1.0000 0.33872  0.09694  0.49026  Biso   1.000  H
  H50      1.0000 0.16128  0.90306  0.99026  Biso   1.000  H
  H51      1.0000 0.83872  0.40306  0.50974  Biso   1.000  H
  H52      1.0000 0.66128  0.59694  0.00974  Biso   1.000  H
  C65      1.0000 0.41650  0.99310  0.43180  Biso   1.000  C
  C66      1.0000 0.08350  0.00690  0.93180  Biso   1.000  C
  C67      1.0000 0.91650  0.50690  0.56820  Biso   1.000  C
  C68      1.0000 0.58350  0.49310  0.06820  Biso   1.000  C
  H53      1.0000 0.31644  0.96728  0.42526  Biso   1.000  H
  H54      1.0000 0.18356  0.03272  0.92526  Biso   1.000  H
  H55      1.0000 0.81644  0.53272  0.57474  Biso   1.000  H
  H56      1.0000 0.68356  0.46728  0.07474  Biso   1.000  H
  C69      1.0000 0.49180  0.32290  0.41970  Biso   1.000  C
  C70      1.0000 0.00820  0.67710  0.91970  Biso   1.000  C
  C71      1.0000 0.99180  0.17710  0.58030  Biso   1.000  C
  C72      1.0000 0.50820  0.82290  0.08030  Biso   1.000  C
  C73      1.0000 0.51800  0.32060  0.66260  Biso   1.000  C
  C74      1.0000 0.98200  0.67940  0.16260  Biso   1.000  C
  C75      1.0000 0.01800  0.17940  0.33740  Biso   1.000  C
  C76      1.0000 0.48200  0.82060  0.83740  Biso   1.000  C
  C77      1.0000 0.49080  0.21940  0.68330  Biso   1.000  C
  C78      1.0000 0.00920  0.78060  0.18330  Biso   1.000  C
  C79      1.0000 0.99080  0.28060  0.31670  Biso   1.000  C
  C80      1.0000 0.50920  0.71940  0.81670  Biso   1.000  C
  O25      1.0000 0.45120  0.05100  0.83750  Biso   1.000  O
  O26      1.0000 0.04880  0.94900  0.33750  Biso   1.000  O
  O27      1.0000 0.95120  0.44900  0.16250  Biso   1.000  O
  O28      1.0000 0.54880  0.55100  0.66250  Biso   1.000  O
  O29      1.0000 0.45600  0.34500  0.87490  Biso   1.000  O
  O30      1.0000 0.04400  0.65500  0.37490  Biso   1.000  O
  O31      1.0000 0.95600  0.15500  0.12510  Biso   1.000  O
  O32      1.0000 0.54400  0.84500  0.62510  Biso   1.000  O
