data_image0
_cell_length_a       6.6888
_cell_length_b       18.6673
_cell_length_c       15.3582
_cell_angle_alpha    90
_cell_angle_beta     95.256
_cell_angle_gamma    90

_symmetry_space_group_name_H-M    "P 1"
_symmetry_int_tables_number       1

loop_
  _symmetry_equiv_pos_as_xyz
  'x, y, z'

loop_
  _atom_site_label
  _atom_site_occupancy
  _atom_site_fract_x
  _atom_site_fract_y
  _atom_site_fract_z
  _atom_site_thermal_displace_type
  _atom_site_B_iso_or_equiv
  _atom_site_type_symbol
  Cu1      1.0000 0.50301  0.72388  0.79910  Biso   1.000  Cu
  Cu2      1.0000 0.49699  0.22388  0.70090  Biso   1.000  Cu
  Cu3      1.0000 0.49699  0.27612  0.20090  Biso   1.000  Cu
  Cu4      1.0000 0.50301  0.77612  0.29910  Biso   1.000  Cu
  O1       1.0000 0.80840  0.67657  0.75494  Biso   1.000  O
  O2       1.0000 0.19160  0.17657  0.74506  Biso   1.000  O
  O3       1.0000 0.19160  0.32343  0.24506  Biso   1.000  O
  O4       1.0000 0.80840  0.82343  0.25494  Biso   1.000  O
  O5       1.0000 0.52840  0.81550  0.73894  Biso   1.000  O
  O6       1.0000 0.47160  0.31550  0.76106  Biso   1.000  O
  O7       1.0000 0.47160  0.18450  0.26106  Biso   1.000  O
  O8       1.0000 0.52840  0.68450  0.23894  Biso   1.000  O
  O9       1.0000 0.60960  0.77728  0.90177  Biso   1.000  O
  O10      1.0000 0.39040  0.27728  0.59823  Biso   1.000  O
  O11      1.0000 0.39040  0.22272  0.09823  Biso   1.000  O
  O12      1.0000 0.60960  0.72272  0.40177  Biso   1.000  O
  O13      1.0000 0.68850  0.88832  0.94260  Biso   1.000  O
  O14      1.0000 0.31150  0.38832  0.55740  Biso   1.000  O
  O15      1.0000 0.31150  0.11168  0.05740  Biso   1.000  O
  O16      1.0000 0.68850  0.61168  0.44260  Biso   1.000  O
  O17      1.0000 0.61360  0.92895  0.76819  Biso   1.000  O
  O18      1.0000 0.38640  0.42895  0.73181  Biso   1.000  O
  O19      1.0000 0.38640  0.07105  0.23181  Biso   1.000  O
  O20      1.0000 0.61360  0.57105  0.26819  Biso   1.000  O
  O21      1.0000 0.43930  0.64422  0.87638  Biso   1.000  O
  O22      1.0000 0.56070  0.14422  0.62362  Biso   1.000  O
  O23      1.0000 0.56070  0.35578  0.12362  Biso   1.000  O
  O24      1.0000 0.43930  0.85578  0.37638  Biso   1.000  O
  O25      1.0000 0.15210  0.70399  0.86401  Biso   1.000  O
  O26      1.0000 0.84790  0.20399  0.63599  Biso   1.000  O
  O27      1.0000 0.84790  0.29601  0.13599  Biso   1.000  O
  O28      1.0000 0.15210  0.79601  0.36401  Biso   1.000  O
  N1       1.0000 0.37130  0.67694  0.69067  Biso   1.000  N
  N2       1.0000 0.62870  0.17694  0.80933  Biso   1.000  N
  N3       1.0000 0.62870  0.32306  0.30933  Biso   1.000  N
  N4       1.0000 0.37130  0.82306  0.19067  Biso   1.000  N
  N5       1.0000 0.07910  0.52690  0.27818  Biso   1.000  N
  N6       1.0000 0.92090  0.02690  0.22182  Biso   1.000  N
  N7       1.0000 0.92090  0.47310  0.72182  Biso   1.000  N
  N8       1.0000 0.07910  0.97310  0.77818  Biso   1.000  N
  C1       1.0000 0.39180  0.60648  0.67706  Biso   1.000  C
  C2       1.0000 0.60820  0.10648  0.82294  Biso   1.000  C
  C3       1.0000 0.60820  0.39352  0.32294  Biso   1.000  C
  C4       1.0000 0.39180  0.89352  0.17706  Biso   1.000  C
  H1       1.0000 0.45073  0.57848  0.72249  Biso   1.000  H
  H2       1.0000 0.54927  0.07848  0.77751  Biso   1.000  H
  H3       1.0000 0.54927  0.42152  0.27751  Biso   1.000  H
  H4       1.0000 0.45073  0.92152  0.22249  Biso   1.000  H
  C5       1.0000 0.32980  0.57361  0.59888  Biso   1.000  C
  C6       1.0000 0.67020  0.07361  0.90112  Biso   1.000  C
  C7       1.0000 0.67020  0.42639  0.40112  Biso   1.000  C
  C8       1.0000 0.32980  0.92639  0.09888  Biso   1.000  C
  H5       1.0000 0.34681  0.52454  0.59216  Biso   1.000  H
  H6       1.0000 0.65319  0.02454  0.90784  Biso   1.000  H
  H7       1.0000 0.65319  0.47546  0.40784  Biso   1.000  H
  H8       1.0000 0.34681  0.97546  0.09216  Biso   1.000  H
  C9       1.0000 0.24140  0.61451  0.53020  Biso   1.000  C
  C10      1.0000 0.75860  0.11451  0.96980  Biso   1.000  C
  C11      1.0000 0.75860  0.38549  0.46980  Biso   1.000  C
  C12      1.0000 0.24140  0.88549  0.03020  Biso   1.000  C
  C13      1.0000 0.20890  0.68674  0.54667  Biso   1.000  C
  C14      1.0000 0.79110  0.18674  0.95333  Biso   1.000  C
  C15      1.0000 0.79110  0.31326  0.45333  Biso   1.000  C
  C16      1.0000 0.20890  0.81326  0.04667  Biso   1.000  C
  H9       1.0000 0.14194  0.71537  0.50385  Biso   1.000  H
  H10      1.0000 0.85806  0.21537  0.99615  Biso   1.000  H
  H11      1.0000 0.85806  0.28463  0.49615  Biso   1.000  H
  H12      1.0000 0.14194  0.78463  0.00385  Biso   1.000  H
  C17      1.0000 0.27580  0.71550  0.62600  Biso   1.000  C
  C18      1.0000 0.72420  0.21550  0.87400  Biso   1.000  C
  C19      1.0000 0.72420  0.28450  0.37400  Biso   1.000  C
  C20      1.0000 0.27580  0.78450  0.12600  Biso   1.000  C
  H13      1.0000 0.25408  0.76397  0.63547  Biso   1.000  H
  H14      1.0000 0.74592  0.26397  0.86453  Biso   1.000  H
  H15      1.0000 0.74592  0.23603  0.36453  Biso   1.000  H
  H16      1.0000 0.25408  0.73603  0.13547  Biso   1.000  H
  C21      1.0000 0.18440  0.58351  0.44241  Biso   1.000  C
  C22      1.0000 0.81560  0.08351  0.05759  Biso   1.000  C
  C23      1.0000 0.81560  0.41649  0.55759  Biso   1.000  C
  C24      1.0000 0.18440  0.91649  0.94241  Biso   1.000  C
  C25      1.0000 0.18480  0.50999  0.42756  Biso   1.000  C
  C26      1.0000 0.81520  0.00999  0.07244  Biso   1.000  C
  C27      1.0000 0.81520  0.49001  0.57244  Biso   1.000  C
  C28      1.0000 0.18480  0.99001  0.92756  Biso   1.000  C
  H17      1.0000 0.22125  0.47876  0.47346  Biso   1.000  H
  H18      1.0000 0.77875  0.97876  0.02654  Biso   1.000  H
  H19      1.0000 0.77875  0.52124  0.52654  Biso   1.000  H
  H20      1.0000 0.22125  0.02124  0.97346  Biso   1.000  H
  C29      1.0000 0.13160  0.48344  0.34542  Biso   1.000  C
  C30      1.0000 0.86840  0.98344  0.15458  Biso   1.000  C
  C31      1.0000 0.86840  0.51656  0.65458  Biso   1.000  C
  C32      1.0000 0.13160  0.01656  0.84542  Biso   1.000  C
  H21      1.0000 0.13217  0.43418  0.33641  Biso   1.000  H
  H22      1.0000 0.86783  0.93418  0.16359  Biso   1.000  H
  H23      1.0000 0.86783  0.56582  0.66359  Biso   1.000  H
  H24      1.0000 0.13217  0.06582  0.83641  Biso   1.000  H
  C33      1.0000 0.08030  0.59829  0.29021  Biso   1.000  C
  C34      1.0000 0.91970  0.09829  0.20979  Biso   1.000  C
  C35      1.0000 0.91970  0.40171  0.70979  Biso   1.000  C
  C36      1.0000 0.08030  0.90171  0.79021  Biso   1.000  C
  H25      1.0000 0.04520  0.62832  0.24295  Biso   1.000  H
  H26      1.0000 0.95480  0.12832  0.25705  Biso   1.000  H
  H27      1.0000 0.95480  0.37168  0.75705  Biso   1.000  H
  H28      1.0000 0.04520  0.87168  0.74295  Biso   1.000  H
  C37      1.0000 0.13230  0.62741  0.37080  Biso   1.000  C
  C38      1.0000 0.86770  0.12741  0.12920  Biso   1.000  C
  C39      1.0000 0.86770  0.37259  0.62920  Biso   1.000  C
  C40      1.0000 0.13230  0.87259  0.87080  Biso   1.000  C
  H29      1.0000 0.13290  0.67691  0.37775  Biso   1.000  H
  H30      1.0000 0.86710  0.17691  0.12225  Biso   1.000  H
  H31      1.0000 0.86710  0.32309  0.62225  Biso   1.000  H
  H32      1.0000 0.13290  0.82309  0.87775  Biso   1.000  H
  C41      1.0000 0.00690  0.49553  0.19107  Biso   1.000  C
  C42      1.0000 0.99310  0.99553  0.30893  Biso   1.000  C
  C43      1.0000 0.99310  0.50447  0.80893  Biso   1.000  C
  C44      1.0000 0.00690  0.00447  0.69107  Biso   1.000  C
  H33      1.0000 0.86137  0.49373  0.18558  Biso   1.000  H
  H34      1.0000 0.13863  0.99373  0.31442  Biso   1.000  H
  H35      1.0000 0.13863  0.50627  0.81442  Biso   1.000  H
  H36      1.0000 0.86137  0.00627  0.68558  Biso   1.000  H
  H37      1.0000 0.05645  0.44686  0.18768  Biso   1.000  H
  H38      1.0000 0.94355  0.94686  0.31232  Biso   1.000  H
  H39      1.0000 0.94355  0.55314  0.81232  Biso   1.000  H
  H40      1.0000 0.05645  0.05314  0.68768  Biso   1.000  H
  C45      1.0000 0.07680  0.53892  0.11632  Biso   1.000  C
  C46      1.0000 0.92320  0.03892  0.38368  Biso   1.000  C
  C47      1.0000 0.92320  0.46108  0.88368  Biso   1.000  C
  C48      1.0000 0.07680  0.96108  0.61632  Biso   1.000  C
  C49      1.0000 0.27310  0.53324  0.09461  Biso   1.000  C
  C50      1.0000 0.72690  0.03324  0.40539  Biso   1.000  C
  C51      1.0000 0.72690  0.46676  0.90539  Biso   1.000  C
  C52      1.0000 0.27310  0.96676  0.59461  Biso   1.000  C
  H41      1.0000 0.36365  0.50355  0.12691  Biso   1.000  H
  H42      1.0000 0.63635  0.00355  0.37309  Biso   1.000  H
  H43      1.0000 0.63635  0.49645  0.87309  Biso   1.000  H
  H44      1.0000 0.36365  0.99645  0.62691  Biso   1.000  H
  C53      1.0000 0.94350  0.58305  0.06836  Biso   1.000  C
  C54      1.0000 0.05650  0.08305  0.43164  Biso   1.000  C
  C55      1.0000 0.05650  0.41695  0.93164  Biso   1.000  C
  C56      1.0000 0.94350  0.91695  0.56836  Biso   1.000  C
  H45      1.0000 0.81200  0.58692  0.08295  Biso   1.000  H
  H46      1.0000 0.18800  0.08692  0.41705  Biso   1.000  H
  H47      1.0000 0.18800  0.41308  0.91705  Biso   1.000  H
  H48      1.0000 0.81200  0.91308  0.58295  Biso   1.000  H
  C57      1.0000 0.33380  0.57195  0.02463  Biso   1.000  C
  C58      1.0000 0.66620  0.07195  0.47537  Biso   1.000  C
  C59      1.0000 0.66620  0.42805  0.97537  Biso   1.000  C
  C60      1.0000 0.33380  0.92805  0.52463  Biso   1.000  C
  H49      1.0000 0.46557  0.56830  0.01036  Biso   1.000  H
  H50      1.0000 0.53443  0.06830  0.48964  Biso   1.000  H
  H51      1.0000 0.53443  0.43170  0.98964  Biso   1.000  H
  H52      1.0000 0.46557  0.93170  0.51036  Biso   1.000  H
  C61      1.0000 0.00460  0.62187  0.99818  Biso   1.000  C
  C62      1.0000 0.99540  0.12187  0.50182  Biso   1.000  C
  C63      1.0000 0.99540  0.37813  0.00182  Biso   1.000  C
  C64      1.0000 0.00460  0.87813  0.49818  Biso   1.000  C
  H53      1.0000 0.91414  0.65183  0.96626  Biso   1.000  H
  H54      1.0000 0.08586  0.15183  0.53374  Biso   1.000  H
  H55      1.0000 0.08586  0.34817  0.03374  Biso   1.000  H
  H56      1.0000 0.91414  0.84817  0.46626  Biso   1.000  H
  C65      1.0000 0.19970  0.61605  0.97572  Biso   1.000  C
  C66      1.0000 0.80030  0.11605  0.52428  Biso   1.000  C
  C67      1.0000 0.80030  0.38395  0.02428  Biso   1.000  C
  C68      1.0000 0.19970  0.88395  0.47572  Biso   1.000  C
  C69      1.0000 0.26650  0.65776  0.89951  Biso   1.000  C
  C70      1.0000 0.73350  0.15776  0.60049  Biso   1.000  C
  C71      1.0000 0.73350  0.34224  0.10049  Biso   1.000  C
  C72      1.0000 0.26650  0.84224  0.39951  Biso   1.000  C
  C73      1.0000 0.63390  0.84430  0.88690  Biso   1.000  C
  C74      1.0000 0.36610  0.34430  0.61310  Biso   1.000  C
  C75      1.0000 0.36610  0.15570  0.11310  Biso   1.000  C
  C76      1.0000 0.63390  0.65570  0.38690  Biso   1.000  C
  C77      1.0000 0.58910  0.86665  0.78980  Biso   1.000  C
  C78      1.0000 0.41090  0.36665  0.71020  Biso   1.000  C
  C79      1.0000 0.41090  0.13335  0.21020  Biso   1.000  C
  C80      1.0000 0.58910  0.63335  0.28980  Biso   1.000  C
  H57      1.0000 0.81600  0.69670  0.70780  Biso   1.000  H
  H58      1.0000 0.18400  0.19670  0.79220  Biso   1.000  H
  H59      1.0000 0.18400  0.30330  0.29220  Biso   1.000  H
  H60      1.0000 0.81600  0.80330  0.20780  Biso   1.000  H
  H61      1.0000 0.90700  0.69300  0.78400  Biso   1.000  H
  H62      1.0000 0.09300  0.19300  0.71600  Biso   1.000  H
  H63      1.0000 0.09300  0.30700  0.21600  Biso   1.000  H
  H64      1.0000 0.90700  0.80700  0.28400  Biso   1.000  H
  O29      1.0000 0.74940  0.75430  0.09250  Biso   1.000  O
  O30      1.0000 0.25060  0.25430  0.40750  Biso   1.000  O
  O31      1.0000 0.25060  0.24570  0.90750  Biso   1.000  O
  O32      1.0000 0.74940  0.74570  0.59250  Biso   1.000  O
  H65      1.0000 0.77100  0.79850  0.08400  Biso   1.000  H
  H66      1.0000 0.22900  0.29850  0.41600  Biso   1.000  H
  H67      1.0000 0.22900  0.20150  0.91600  Biso   1.000  H
  H68      1.0000 0.77100  0.70150  0.58400  Biso   1.000  H
  H69      1.0000 0.70600  0.75200  0.04110  Biso   1.000  H
  H70      1.0000 0.29400  0.25200  0.45890  Biso   1.000  H
  H71      1.0000 0.29400  0.24800  0.95890  Biso   1.000  H
  H72      1.0000 0.70600  0.74800  0.54110  Biso   1.000  H
