data_image0
_cell_length_a       5.039
_cell_length_b       27.642
_cell_length_c       23.662
_cell_angle_alpha    90
_cell_angle_beta     94.95
_cell_angle_gamma    90

_symmetry_space_group_name_H-M    "P 1"
_symmetry_int_tables_number       1

loop_
  _symmetry_equiv_pos_as_xyz
  'x, y, z'

loop_
  _atom_site_label
  _atom_site_occupancy
  _atom_site_fract_x
  _atom_site_fract_y
  _atom_site_fract_z
  _atom_site_thermal_displace_type
  _atom_site_B_iso_or_equiv
  _atom_site_type_symbol
  Cu1      1.0000 0.81700  0.53477  0.45391  Biso   1.000  Cu
  Cu2      1.0000 0.68300  0.03477  0.04609  Biso   1.000  Cu
  Cu3      1.0000 0.18300  0.46523  0.54609  Biso   1.000  Cu
  Cu4      1.0000 0.31700  0.96523  0.95391  Biso   1.000  Cu
  Cu5      1.0000 0.50000  0.50000  0.00000  Biso   1.000  Cu
  Cu6      1.0000 0.00000  0.00000  0.50000  Biso   1.000  Cu
  P1       1.0000 0.96910  0.55350  0.94715  Biso   1.000  P
  P2       1.0000 0.53090  0.05350  0.55285  Biso   1.000  P
  P3       1.0000 0.03090  0.44650  0.05285  Biso   1.000  P
  P4       1.0000 0.46910  0.94650  0.44715  Biso   1.000  P
  P5       1.0000 0.30620  0.61047  0.44972  Biso   1.000  P
  P6       1.0000 0.19380  0.11047  0.05028  Biso   1.000  P
  P7       1.0000 0.69380  0.38953  0.55028  Biso   1.000  P
  P8       1.0000 0.80620  0.88953  0.94972  Biso   1.000  P
  P9       1.0000 0.20760  0.97941  0.09584  Biso   1.000  P
  P10      1.0000 0.29240  0.47941  0.40416  Biso   1.000  P
  P11      1.0000 0.79240  0.02059  0.90416  Biso   1.000  P
  P12      1.0000 0.70760  0.52059  0.59584  Biso   1.000  P
  O1       1.0000 0.90800  0.57780  0.88690  Biso   1.000  O
  O2       1.0000 0.59200  0.07780  0.61310  Biso   1.000  O
  O3       1.0000 0.09200  0.42220  0.11310  Biso   1.000  O
  O4       1.0000 0.40800  0.92220  0.38690  Biso   1.000  O
  O5       1.0000 0.25930  0.54086  0.95460  Biso   1.000  O
  O6       1.0000 0.24070  0.04086  0.54540  Biso   1.000  O
  O7       1.0000 0.74070  0.45914  0.04540  Biso   1.000  O
  O8       1.0000 0.75930  0.95914  0.45460  Biso   1.000  O
  O9       1.0000 0.77230  0.51269  0.94919  Biso   1.000  O
  O10      1.0000 0.72770  0.01269  0.55081  Biso   1.000  O
  O11      1.0000 0.22770  0.48731  0.05081  Biso   1.000  O
  O12      1.0000 0.27230  0.98731  0.44919  Biso   1.000  O
  O13      1.0000 0.32900  0.65723  0.48922  Biso   1.000  O
  O14      1.0000 0.17100  0.15723  0.01078  Biso   1.000  O
  O15      1.0000 0.67100  0.34277  0.51078  Biso   1.000  O
  O16      1.0000 0.82900  0.84277  0.98922  Biso   1.000  O
  O17      1.0000 0.02620  0.59401  0.45226  Biso   1.000  O
  O18      1.0000 0.47380  0.09401  0.04774  Biso   1.000  O
  O19      1.0000 0.97380  0.40599  0.54774  Biso   1.000  O
  O20      1.0000 0.52620  0.90599  0.95226  Biso   1.000  O
  O21      1.0000 0.52060  0.57515  0.46775  Biso   1.000  O
  O22      1.0000 0.97940  0.07515  0.03225  Biso   1.000  O
  O23      1.0000 0.47940  0.42485  0.53225  Biso   1.000  O
  O24      1.0000 0.02060  0.92485  0.96775  Biso   1.000  O
  O25      1.0000 0.32810  0.01180  0.14735  Biso   1.000  O
  O26      1.0000 0.17190  0.51180  0.35265  Biso   1.000  O
  O27      1.0000 0.67190  0.98820  0.85265  Biso   1.000  O
  O28      1.0000 0.82810  0.48820  0.64735  Biso   1.000  O
  O29      1.0000 0.37520  0.99195  0.04792  Biso   1.000  O
  O30      1.0000 0.12480  0.49195  0.45208  Biso   1.000  O
  O31      1.0000 0.62480  0.00805  0.95208  Biso   1.000  O
  O32      1.0000 0.87520  0.50805  0.54792  Biso   1.000  O
  O33      1.0000 0.91280  0.98627  0.08620  Biso   1.000  O
  O34      1.0000 0.58720  0.48627  0.41380  Biso   1.000  O
  O35      1.0000 0.08720  0.01373  0.91380  Biso   1.000  O
  O36      1.0000 0.41280  0.51373  0.58620  Biso   1.000  O
  C1       1.0000 0.89050  0.59900  0.99730  Biso   1.000  C
  C2       1.0000 0.60950  0.09900  0.50270  Biso   1.000  C
  C3       1.0000 0.10950  0.40100  0.00270  Biso   1.000  C
  C4       1.0000 0.39050  0.90100  0.49730  Biso   1.000  C
  C5       1.0000 0.68750  0.63240  0.98360  Biso   1.000  C
  C6       1.0000 0.81250  0.13240  0.51640  Biso   1.000  C
  C7       1.0000 0.31250  0.36760  0.01640  Biso   1.000  C
  C8       1.0000 0.18750  0.86760  0.48360  Biso   1.000  C
  H1       1.0000 0.60882  0.63424  0.94660  Biso   1.000  H
  H2       1.0000 0.89118  0.13424  0.55340  Biso   1.000  H
  H3       1.0000 0.39118  0.36576  0.05340  Biso   1.000  H
  H4       1.0000 0.10882  0.86576  0.44660  Biso   1.000  H
  C9       1.0000 0.60350  0.66270  0.02470  Biso   1.000  C
  C10      1.0000 0.89650  0.16270  0.47530  Biso   1.000  C
  C11      1.0000 0.39650  0.33730  0.97530  Biso   1.000  C
  C12      1.0000 0.10350  0.83730  0.52470  Biso   1.000  C
  H5       1.0000 0.46887  0.68490  0.01482  Biso   1.000  H
  H6       1.0000 0.03113  0.18490  0.48518  Biso   1.000  H
  H7       1.0000 0.53113  0.31510  0.98518  Biso   1.000  H
  H8       1.0000 0.96887  0.81510  0.51482  Biso   1.000  H
  C13      1.0000 0.71300  0.66100  0.08020  Biso   1.000  C
  C14      1.0000 0.78700  0.16100  0.41980  Biso   1.000  C
  C15      1.0000 0.28700  0.33900  0.91980  Biso   1.000  C
  C16      1.0000 0.21300  0.83900  0.58020  Biso   1.000  C
  C17      1.0000 0.91730  0.62850  0.09300  Biso   1.000  C
  C18      1.0000 0.58270  0.12850  0.40700  Biso   1.000  C
  C19      1.0000 0.08270  0.37150  0.90700  Biso   1.000  C
  C20      1.0000 0.41730  0.87150  0.59300  Biso   1.000  C
  H9       1.0000 0.99615  0.62703  0.12997  Biso   1.000  H
  H10      1.0000 0.50385  0.12703  0.37003  Biso   1.000  H
  H11      1.0000 0.00385  0.37297  0.87003  Biso   1.000  H
  H12      1.0000 0.49615  0.87297  0.62997  Biso   1.000  H
  C21      1.0000 0.00840  0.59790  0.05250  Biso   1.000  C
  C22      1.0000 0.49160  0.09790  0.44750  Biso   1.000  C
  C23      1.0000 0.99160  0.40210  0.94750  Biso   1.000  C
  C24      1.0000 0.50840  0.90210  0.55250  Biso   1.000  C
  H13      1.0000 0.14820  0.57675  0.06228  Biso   1.000  H
  H14      1.0000 0.35180  0.07675  0.43772  Biso   1.000  H
  H15      1.0000 0.85180  0.42325  0.93772  Biso   1.000  H
  H16      1.0000 0.64820  0.92325  0.56228  Biso   1.000  H
  C25      1.0000 0.27480  0.91801  0.11650  Biso   1.000  C
  C26      1.0000 0.22520  0.41801  0.38350  Biso   1.000  C
  C27      1.0000 0.72520  0.08199  0.88350  Biso   1.000  C
  C28      1.0000 0.77480  0.58199  0.61650  Biso   1.000  C
  C29      1.0000 0.12220  0.89260  0.15300  Biso   1.000  C
  C30      1.0000 0.37780  0.39260  0.34700  Biso   1.000  C
  C31      1.0000 0.87780  0.10740  0.84700  Biso   1.000  C
  C32      1.0000 0.62220  0.60740  0.65300  Biso   1.000  C
  H17      1.0000 0.97968  0.90787  0.16805  Biso   1.000  H
  H18      1.0000 0.52032  0.40787  0.33195  Biso   1.000  H
  H19      1.0000 0.02032  0.09213  0.83195  Biso   1.000  H
  H20      1.0000 0.47968  0.59213  0.66805  Biso   1.000  H
  C33      1.0000 0.17940  0.84520  0.16720  Biso   1.000  C
  C34      1.0000 0.32060  0.34520  0.33280  Biso   1.000  C
  C35      1.0000 0.82060  0.15480  0.83280  Biso   1.000  C
  C36      1.0000 0.67940  0.65480  0.66720  Biso   1.000  C
  H21      1.0000 0.07611  0.82901  0.19192  Biso   1.000  H
  H22      1.0000 0.42389  0.32901  0.30808  Biso   1.000  H
  H23      1.0000 0.92389  0.17099  0.80808  Biso   1.000  H
  H24      1.0000 0.57611  0.67099  0.69192  Biso   1.000  H
  C37      1.0000 0.39070  0.82101  0.14490  Biso   1.000  C
  C38      1.0000 0.10930  0.32101  0.35510  Biso   1.000  C
  C39      1.0000 0.60930  0.17899  0.85510  Biso   1.000  C
  C40      1.0000 0.89070  0.67899  0.64490  Biso   1.000  C
  C41      1.0000 0.54210  0.84670  0.10890  Biso   1.000  C
  C42      1.0000 0.95790  0.34670  0.39110  Biso   1.000  C
  C43      1.0000 0.45790  0.15330  0.89110  Biso   1.000  C
  C44      1.0000 0.04210  0.65330  0.60890  Biso   1.000  C
  H25      1.0000 0.68347  0.83117  0.09370  Biso   1.000  H
  H26      1.0000 0.81653  0.33117  0.40630  Biso   1.000  H
  H27      1.0000 0.31653  0.16883  0.90630  Biso   1.000  H
  H28      1.0000 0.18347  0.66883  0.59370  Biso   1.000  H
  C45      1.0000 0.49050  0.89441  0.09470  Biso   1.000  C
  C46      1.0000 0.00950  0.39441  0.40530  Biso   1.000  C
  C47      1.0000 0.50950  0.10559  0.90530  Biso   1.000  C
  C48      1.0000 0.99050  0.60559  0.59470  Biso   1.000  C
  H29      1.0000 0.59776  0.91077  0.07096  Biso   1.000  H
  H30      1.0000 0.90224  0.41077  0.42904  Biso   1.000  H
  H31      1.0000 0.40224  0.08923  0.92904  Biso   1.000  H
  H32      1.0000 0.09776  0.58923  0.57096  Biso   1.000  H
  C49      1.0000 0.34790  0.63410  0.37990  Biso   1.000  C
  C50      1.0000 0.15210  0.13410  0.12010  Biso   1.000  C
  C51      1.0000 0.65210  0.36590  0.62010  Biso   1.000  C
  C52      1.0000 0.84790  0.86590  0.87990  Biso   1.000  C
  C53      1.0000 0.54980  0.61920  0.34840  Biso   1.000  C
  C54      1.0000 0.95020  0.11920  0.15160  Biso   1.000  C
  C55      1.0000 0.45020  0.38080  0.65160  Biso   1.000  C
  C56      1.0000 0.04980  0.88080  0.84840  Biso   1.000  C
  H33      1.0000 0.66634  0.59508  0.36229  Biso   1.000  H
  H34      1.0000 0.83366  0.09508  0.13771  Biso   1.000  H
  H35      1.0000 0.33366  0.40492  0.63771  Biso   1.000  H
  H36      1.0000 0.16634  0.90492  0.86229  Biso   1.000  H
  C57      1.0000 0.58030  0.63990  0.29630  Biso   1.000  C
  C58      1.0000 0.91970  0.13990  0.20370  Biso   1.000  C
  C59      1.0000 0.41970  0.36010  0.70370  Biso   1.000  C
  C60      1.0000 0.08030  0.86010  0.79630  Biso   1.000  C
  H37      1.0000 0.71622  0.62905  0.27527  Biso   1.000  H
  H38      1.0000 0.78378  0.12905  0.22473  Biso   1.000  H
  H39      1.0000 0.28378  0.37095  0.72473  Biso   1.000  H
  H40      1.0000 0.21622  0.87095  0.77527  Biso   1.000  H
  C61      1.0000 0.41500  0.67620  0.27450  Biso   1.000  C
  C62      1.0000 0.08500  0.17620  0.22550  Biso   1.000  C
  C63      1.0000 0.58500  0.32380  0.72550  Biso   1.000  C
  C64      1.0000 0.91500  0.82380  0.77450  Biso   1.000  C
  C65      1.0000 0.21080  0.69120  0.30590  Biso   1.000  C
  C66      1.0000 0.28920  0.19120  0.19410  Biso   1.000  C
  C67      1.0000 0.78920  0.30880  0.69410  Biso   1.000  C
  C68      1.0000 0.71080  0.80880  0.80590  Biso   1.000  C
  H41      1.0000 0.09483  0.71547  0.29201  Biso   1.000  H
  H42      1.0000 0.40517  0.21547  0.20799  Biso   1.000  H
  H43      1.0000 0.90517  0.28453  0.70799  Biso   1.000  H
  H44      1.0000 0.59483  0.78453  0.79201  Biso   1.000  H
  C69      1.0000 0.17940  0.67020  0.35790  Biso   1.000  C
  C70      1.0000 0.32060  0.17020  0.14210  Biso   1.000  C
  C71      1.0000 0.82060  0.32980  0.64210  Biso   1.000  C
  C72      1.0000 0.67940  0.82980  0.85790  Biso   1.000  C
  H45      1.0000 0.04121  0.68053  0.37857  Biso   1.000  H
  H46      1.0000 0.45879  0.18053  0.12143  Biso   1.000  H
  H47      1.0000 0.95879  0.31947  0.62143  Biso   1.000  H
  H48      1.0000 0.54121  0.81947  0.87857  Biso   1.000  H
  C73      1.0000 0.60800  0.69160  0.12440  Biso   1.000  C
  C74      1.0000 0.89200  0.19160  0.37560  Biso   1.000  C
  C75      1.0000 0.39200  0.30840  0.87560  Biso   1.000  C
  C76      1.0000 0.10800  0.80840  0.62440  Biso   1.000  C
  C77      1.0000 0.54670  0.74010  0.11490  Biso   1.000  C
  C78      1.0000 0.95330  0.24010  0.38510  Biso   1.000  C
  C79      1.0000 0.45330  0.25990  0.88510  Biso   1.000  C
  C80      1.0000 0.04670  0.75990  0.61490  Biso   1.000  C
  H49      1.0000 0.57452  0.75363  0.07988  Biso   1.000  H
  H50      1.0000 0.92548  0.25363  0.42012  Biso   1.000  H
  H51      1.0000 0.42548  0.24637  0.92012  Biso   1.000  H
  H52      1.0000 0.07452  0.74637  0.57988  Biso   1.000  H
  C81      1.0000 0.44520  0.76887  0.15580  Biso   1.000  C
  C82      1.0000 0.05480  0.26887  0.34420  Biso   1.000  C
  C83      1.0000 0.55480  0.23113  0.84420  Biso   1.000  C
  C84      1.0000 0.94520  0.73113  0.65580  Biso   1.000  C
  C85      1.0000 0.40130  0.74770  0.20790  Biso   1.000  C
  C86      1.0000 0.09870  0.24770  0.29210  Biso   1.000  C
  C87      1.0000 0.59870  0.25230  0.79210  Biso   1.000  C
  C88      1.0000 0.90130  0.75230  0.70790  Biso   1.000  C
  H53      1.0000 0.33189  0.76632  0.23582  Biso   1.000  H
  H54      1.0000 0.16811  0.26632  0.26418  Biso   1.000  H
  H55      1.0000 0.66811  0.23368  0.76418  Biso   1.000  H
  H56      1.0000 0.83189  0.73368  0.73582  Biso   1.000  H
  C89      1.0000 0.45960  0.69910  0.21860  Biso   1.000  C
  C90      1.0000 0.04040  0.19910  0.28140  Biso   1.000  C
  C91      1.0000 0.54040  0.30090  0.78140  Biso   1.000  C
  C92      1.0000 0.95960  0.80090  0.71860  Biso   1.000  C
  C93      1.0000 0.56280  0.67170  0.17670  Biso   1.000  C
  C94      1.0000 0.93720  0.17170  0.32330  Biso   1.000  C
  C95      1.0000 0.43720  0.32830  0.82330  Biso   1.000  C
  C96      1.0000 0.06280  0.82830  0.67670  Biso   1.000  C
  H57      1.0000 0.60270  0.63923  0.18365  Biso   1.000  H
  H58      1.0000 0.89730  0.13923  0.31635  Biso   1.000  H
  H59      1.0000 0.39730  0.36077  0.81635  Biso   1.000  H
  H60      1.0000 0.10270  0.86077  0.68365  Biso   1.000  H
  C97      1.0000 0.09600  0.60960  0.86460  Biso   1.000  C
  C98      1.0000 0.40400  0.10960  0.63540  Biso   1.000  C
  C99      1.0000 0.90400  0.39040  0.13540  Biso   1.000  C
  C100     1.0000 0.59600  0.89040  0.36460  Biso   1.000  C
  H61      1.0000 0.25837  0.59211  0.85888  Biso   1.000  H
  H62      1.0000 0.24163  0.09211  0.64112  Biso   1.000  H
  H63      1.0000 0.74163  0.40789  0.14112  Biso   1.000  H
  H64      1.0000 0.75837  0.90789  0.35888  Biso   1.000  H
  H65      1.0000 0.13968  0.63570  0.89119  Biso   1.000  H
  H66      1.0000 0.36032  0.13570  0.60881  Biso   1.000  H
  H67      1.0000 0.86032  0.36430  0.10881  Biso   1.000  H
  H68      1.0000 0.63968  0.86430  0.39119  Biso   1.000  H
  C101     1.0000 0.23400  0.01020  0.20110  Biso   1.000  C
  C102     1.0000 0.26600  0.51020  0.29890  Biso   1.000  C
  C103     1.0000 0.76600  0.98980  0.79890  Biso   1.000  C
  C104     1.0000 0.73400  0.48980  0.70110  Biso   1.000  C
  H69      1.0000 0.23478  0.97710  0.21466  Biso   1.000  H
  H70      1.0000 0.26522  0.47710  0.28534  Biso   1.000  H
  H71      1.0000 0.76522  0.02290  0.78534  Biso   1.000  H
  H72      1.0000 0.73478  0.52290  0.71466  Biso   1.000  H
  H73      1.0000 0.05206  0.02207  0.19908  Biso   1.000  H
  H74      1.0000 0.44794  0.52207  0.30092  Biso   1.000  H
  H75      1.0000 0.94794  0.97793  0.80092  Biso   1.000  H
  H76      1.0000 0.55206  0.47793  0.69908  Biso   1.000  H
  C105     1.0000 0.40900  0.04120  0.24160  Biso   1.000  C
  C106     1.0000 0.09100  0.54120  0.25840  Biso   1.000  C
  C107     1.0000 0.59100  0.95880  0.75840  Biso   1.000  C
  C108     1.0000 0.90900  0.45880  0.74160  Biso   1.000  C
  H77      1.0000 0.40864  0.07387  0.22792  Biso   1.000  H
  H78      1.0000 0.09136  0.57387  0.27208  Biso   1.000  H
  H79      1.0000 0.59136  0.92613  0.77208  Biso   1.000  H
  H80      1.0000 0.90864  0.42613  0.72792  Biso   1.000  H
  H81      1.0000 0.58807  0.02881  0.24424  Biso   1.000  H
  H82      1.0000 0.91193  0.52881  0.25576  Biso   1.000  H
  H83      1.0000 0.41193  0.97119  0.75576  Biso   1.000  H
  H84      1.0000 0.08807  0.47119  0.74424  Biso   1.000  H
  H85      1.0000 0.34296  0.04050  0.27844  Biso   1.000  H
  H86      1.0000 0.15704  0.54050  0.22156  Biso   1.000  H
  H87      1.0000 0.65704  0.95950  0.72156  Biso   1.000  H
  H88      1.0000 0.84296  0.45950  0.77844  Biso   1.000  H
  C109     1.0000 0.58240  0.68210  0.49710  Biso   1.000  C
  C110     1.0000 0.91760  0.18210  0.00290  Biso   1.000  C
  C111     1.0000 0.41760  0.31790  0.50290  Biso   1.000  C
  C112     1.0000 0.08240  0.81790  0.99710  Biso   1.000  C
  H89      1.0000 0.71826  0.66261  0.48146  Biso   1.000  H
  H90      1.0000 0.78174  0.16261  0.01854  Biso   1.000  H
  H91      1.0000 0.28174  0.33739  0.51854  Biso   1.000  H
  H92      1.0000 0.21826  0.83739  0.98146  Biso   1.000  H
  H93      1.0000 0.63197  0.68607  0.53740  Biso   1.000  H
  H94      1.0000 0.86803  0.18607  0.96260  Biso   1.000  H
  H95      1.0000 0.36803  0.31393  0.46260  Biso   1.000  H
  H96      1.0000 0.13197  0.81393  0.03740  Biso   1.000  H
  C113     1.0000 0.57200  0.73040  0.46940  Biso   1.000  C
  C114     1.0000 0.92800  0.23040  0.03060  Biso   1.000  C
  C115     1.0000 0.42800  0.26960  0.53060  Biso   1.000  C
  C116     1.0000 0.07200  0.76960  0.96940  Biso   1.000  C
  H97      1.0000 0.53734  0.72641  0.42910  Biso   1.000  H
  H98      1.0000 0.96266  0.22641  0.07090  Biso   1.000  H
  H99      1.0000 0.46266  0.27359  0.57090  Biso   1.000  H
  H100     1.0000 0.03734  0.77359  0.92910  Biso   1.000  H
  H101     1.0000 0.73917  0.74660  0.47753  Biso   1.000  H
  H102     1.0000 0.76083  0.24660  0.02247  Biso   1.000  H
  H103     1.0000 0.26083  0.25340  0.52247  Biso   1.000  H
  H104     1.0000 0.23917  0.75340  0.97753  Biso   1.000  H
  H105     1.0000 0.43212  0.74926  0.48355  Biso   1.000  H
  H106     1.0000 0.06788  0.24926  0.01645  Biso   1.000  H
  H107     1.0000 0.56788  0.25074  0.51645  Biso   1.000  H
  H108     1.0000 0.93212  0.75074  0.98355  Biso   1.000  H
  C117     1.0000 0.97800  0.62960  0.80970  Biso   1.000  C
  C118     1.0000 0.52200  0.12960  0.69030  Biso   1.000  C
  C119     1.0000 0.02200  0.37040  0.19030  Biso   1.000  C
  C120     1.0000 0.47800  0.87040  0.30970  Biso   1.000  C
  H109     1.0000 0.94277  0.60366  0.78305  Biso   1.000  H
  H110     1.0000 0.55723  0.10366  0.71695  Biso   1.000  H
  H111     1.0000 0.05723  0.39634  0.21695  Biso   1.000  H
  H112     1.0000 0.44277  0.89634  0.28305  Biso   1.000  H
  H113     1.0000 0.10003  0.65203  0.79509  Biso   1.000  H
  H114     1.0000 0.39997  0.15203  0.70491  Biso   1.000  H
  H115     1.0000 0.89997  0.34797  0.20491  Biso   1.000  H
  H116     1.0000 0.60003  0.84797  0.29509  Biso   1.000  H
  H117     1.0000 0.81411  0.64589  0.81548  Biso   1.000  H
  H118     1.0000 0.68589  0.14589  0.68452  Biso   1.000  H
  H119     1.0000 0.18589  0.35411  0.18452  Biso   1.000  H
  H120     1.0000 0.31411  0.85411  0.31548  Biso   1.000  H
  H121     1.0000 0.26462  0.60727  0.88756  Biso   1.000  H
  H122     1.0000 0.23538  0.10727  0.61244  Biso   1.000  H
  H123     1.0000 0.73538  0.39273  0.11244  Biso   1.000  H
  H124     1.0000 0.76462  0.89273  0.38756  Biso   1.000  H
  H125     1.0000 0.03291  0.64263  0.86671  Biso   1.000  H
  H126     1.0000 0.46709  0.14263  0.63329  Biso   1.000  H
  H127     1.0000 0.96709  0.35737  0.13329  Biso   1.000  H
  H128     1.0000 0.53291  0.85737  0.36671  Biso   1.000  H
  C121     1.0000 0.13600  0.59770  0.80530  Biso   1.000  C
  C122     1.0000 0.36400  0.09770  0.69470  Biso   1.000  C
  C123     1.0000 0.86400  0.40230  0.19470  Biso   1.000  C
  C124     1.0000 0.63600  0.90230  0.30530  Biso   1.000  C
  H129     1.0000 0.96843  0.58971  0.78523  Biso   1.000  H
  H130     1.0000 0.53157  0.08971  0.71477  Biso   1.000  H
  H131     1.0000 0.03157  0.41029  0.21477  Biso   1.000  H
  H132     1.0000 0.46843  0.91029  0.28523  Biso   1.000  H
  H133     1.0000 0.25498  0.57055  0.80437  Biso   1.000  H
  H134     1.0000 0.24502  0.07055  0.69563  Biso   1.000  H
  H135     1.0000 0.74502  0.42945  0.19563  Biso   1.000  H
  H136     1.0000 0.75498  0.92945  0.30437  Biso   1.000  H
  H137     1.0000 0.21249  0.62504  0.78759  Biso   1.000  H
  H138     1.0000 0.28751  0.12504  0.71241  Biso   1.000  H
  H139     1.0000 0.78751  0.37496  0.21241  Biso   1.000  H
  H140     1.0000 0.71249  0.87496  0.28759  Biso   1.000  H
