data_image0
_cell_length_a       15.49
_cell_length_b       11.021
_cell_length_c       6.8124
_cell_angle_alpha    90
_cell_angle_beta     90
_cell_angle_gamma    90

_symmetry_space_group_name_H-M    "P 1"
_symmetry_int_tables_number       1

loop_
  _symmetry_equiv_pos_as_xyz
  'x, y, z'

loop_
  _atom_site_label
  _atom_site_occupancy
  _atom_site_fract_x
  _atom_site_fract_y
  _atom_site_fract_z
  _atom_site_thermal_displace_type
  _atom_site_B_iso_or_equiv
  _atom_site_type_symbol
  Cu1      1.0000 0.46482  0.19941  0.33192  Biso   1.000  Cu
  Cu2      1.0000 0.53518  0.80059  0.83192  Biso   1.000  Cu
  Cu3      1.0000 0.96482  0.80059  0.33192  Biso   1.000  Cu
  Cu4      1.0000 0.03518  0.19941  0.83192  Biso   1.000  Cu
  C1       1.0000 0.28790  0.15090  0.34270  Biso   1.000  C
  C2       1.0000 0.71210  0.84910  0.84270  Biso   1.000  C
  C3       1.0000 0.78790  0.84910  0.34270  Biso   1.000  C
  C4       1.0000 0.21210  0.15090  0.84270  Biso   1.000  C
  N1       1.0000 0.56100  0.30690  0.27600  Biso   1.000  N
  N2       1.0000 0.43900  0.69310  0.77600  Biso   1.000  N
  N3       1.0000 0.06100  0.69310  0.27600  Biso   1.000  N
  N4       1.0000 0.93900  0.30690  0.77600  Biso   1.000  N
  O1       1.0000 0.37460  0.32200  0.40740  Biso   1.000  O
  O2       1.0000 0.62540  0.67800  0.90740  Biso   1.000  O
  O3       1.0000 0.87460  0.67800  0.40740  Biso   1.000  O
  O4       1.0000 0.12540  0.32200  0.90740  Biso   1.000  O
  N5       1.0000 0.36480  0.10080  0.31110  Biso   1.000  N
  N6       1.0000 0.63520  0.89920  0.81110  Biso   1.000  N
  N7       1.0000 0.86480  0.89920  0.31110  Biso   1.000  N
  N8       1.0000 0.13520  0.10080  0.81110  Biso   1.000  N
  C5       1.0000 0.46700  0.95570  0.20210  Biso   1.000  C
  C6       1.0000 0.53300  0.04430  0.70210  Biso   1.000  C
  C7       1.0000 0.96700  0.04430  0.20210  Biso   1.000  C
  C8       1.0000 0.03300  0.95570  0.70210  Biso   1.000  C
  O5       1.0000 0.51800  0.04530  0.21430  Biso   1.000  O
  O6       1.0000 0.48200  0.95470  0.71430  Biso   1.000  O
  O7       1.0000 0.01800  0.95470  0.21430  Biso   1.000  O
  O8       1.0000 0.98200  0.04530  0.71430  Biso   1.000  O
  C9       1.0000 0.29730  0.28270  0.40350  Biso   1.000  C
  C10      1.0000 0.70270  0.71730  0.90350  Biso   1.000  C
  C11      1.0000 0.79730  0.71730  0.40350  Biso   1.000  C
  C12      1.0000 0.20270  0.28270  0.90350  Biso   1.000  C
  O9       1.0000 0.23140  0.34120  0.44270  Biso   1.000  O
  O10      1.0000 0.76860  0.65880  0.94270  Biso   1.000  O
  O11      1.0000 0.73140  0.65880  0.44270  Biso   1.000  O
  O12      1.0000 0.26860  0.34120  0.94270  Biso   1.000  O
  C13      1.0000 0.37330  0.98590  0.25060  Biso   1.000  C
  C14      1.0000 0.62670  0.01410  0.75060  Biso   1.000  C
  C15      1.0000 0.87330  0.01410  0.25060  Biso   1.000  C
  C16      1.0000 0.12670  0.98590  0.75060  Biso   1.000  C
  C17      1.0000 0.30090  0.91300  0.23060  Biso   1.000  C
  C18      1.0000 0.69910  0.08700  0.73060  Biso   1.000  C
  C19      1.0000 0.80090  0.08700  0.23060  Biso   1.000  C
  C20      1.0000 0.19910  0.91300  0.73060  Biso   1.000  C
  H1       1.0000 0.30620  0.83170  0.19580  Biso   1.000  H
  H2       1.0000 0.69380  0.16830  0.69580  Biso   1.000  H
  H3       1.0000 0.80620  0.16830  0.19580  Biso   1.000  H
  H4       1.0000 0.19380  0.83170  0.69580  Biso   1.000  H
  C21      1.0000 0.22050  0.96410  0.26380  Biso   1.000  C
  C22      1.0000 0.77950  0.03590  0.76380  Biso   1.000  C
  C23      1.0000 0.72050  0.03590  0.26380  Biso   1.000  C
  C24      1.0000 0.27950  0.96410  0.76380  Biso   1.000  C
  H5       1.0000 0.17100  0.91680  0.25080  Biso   1.000  H
  H6       1.0000 0.82900  0.08320  0.75080  Biso   1.000  H
  H7       1.0000 0.67100  0.08320  0.25080  Biso   1.000  H
  H8       1.0000 0.32900  0.91680  0.75080  Biso   1.000  H
  C25      1.0000 0.21320  0.08550  0.31650  Biso   1.000  C
  C26      1.0000 0.78680  0.91450  0.81650  Biso   1.000  C
  C27      1.0000 0.71320  0.91450  0.31650  Biso   1.000  C
  C28      1.0000 0.28680  0.08550  0.81650  Biso   1.000  C
  H9       1.0000 0.15940  0.12150  0.33340  Biso   1.000  H
  H10      1.0000 0.84060  0.87850  0.83340  Biso   1.000  H
  H11      1.0000 0.65940  0.87850  0.33340  Biso   1.000  H
  H12      1.0000 0.34060  0.12150  0.83340  Biso   1.000  H
  O13      1.0000 0.48480  0.85310  0.14480  Biso   1.000  O
  O14      1.0000 0.51520  0.14690  0.64480  Biso   1.000  O
  O15      1.0000 0.98480  0.14690  0.14480  Biso   1.000  O
  O16      1.0000 0.01520  0.85310  0.64480  Biso   1.000  O
  N9       1.0000 0.65000  0.45720  0.26620  Biso   1.000  N
  N10      1.0000 0.35000  0.54280  0.76620  Biso   1.000  N
  N11      1.0000 0.15000  0.54280  0.26620  Biso   1.000  N
  N12      1.0000 0.85000  0.45720  0.76620  Biso   1.000  N
  H13      1.0000 0.67770  0.52150  0.30000  Biso   1.000  H
  H14      1.0000 0.32230  0.47850  0.80000  Biso   1.000  H
  H15      1.0000 0.17770  0.47850  0.30000  Biso   1.000  H
  H16      1.0000 0.82230  0.52150  0.80000  Biso   1.000  H
  C29      1.0000 0.58920  0.40080  0.37640  Biso   1.000  C
  C30      1.0000 0.41080  0.59920  0.87640  Biso   1.000  C
  C31      1.0000 0.08920  0.59920  0.37640  Biso   1.000  C
  C32      1.0000 0.91080  0.40080  0.87640  Biso   1.000  C
  C33      1.0000 0.60420  0.30460  0.10010  Biso   1.000  C
  C34      1.0000 0.39580  0.69540  0.60010  Biso   1.000  C
  C35      1.0000 0.10420  0.69540  0.10010  Biso   1.000  C
  C36      1.0000 0.89580  0.30460  0.60010  Biso   1.000  C
  H17      1.0000 0.59610  0.24810  0.00030  Biso   1.000  H
  H18      1.0000 0.40390  0.75190  0.50030  Biso   1.000  H
  H19      1.0000 0.09610  0.75190  0.00030  Biso   1.000  H
  H20      1.0000 0.90390  0.24810  0.50030  Biso   1.000  H
  C37      1.0000 0.66010  0.39750  0.09630  Biso   1.000  C
  C38      1.0000 0.33990  0.60250  0.59630  Biso   1.000  C
  C39      1.0000 0.16010  0.60250  0.09630  Biso   1.000  C
  C40      1.0000 0.83990  0.39750  0.59630  Biso   1.000  C
  H21      1.0000 0.69840  0.41670  0.99570  Biso   1.000  H
  H22      1.0000 0.30160  0.58330  0.49570  Biso   1.000  H
  H23      1.0000 0.19840  0.58330  0.99570  Biso   1.000  H
  H24      1.0000 0.80160  0.41670  0.49570  Biso   1.000  H
  C41      1.0000 0.56080  0.43880  0.56960  Biso   1.000  C
  C42      1.0000 0.43920  0.56120  0.06960  Biso   1.000  C
  C43      1.0000 0.06080  0.56120  0.56960  Biso   1.000  C
  C44      1.0000 0.93920  0.43880  0.06960  Biso   1.000  C
  H25      1.0000 0.52660  0.51120  0.55810  Biso   1.000  H
  H26      1.0000 0.47340  0.48880  0.05810  Biso   1.000  H
  H27      1.0000 0.02660  0.48880  0.55810  Biso   1.000  H
  H28      1.0000 0.97340  0.51120  0.05810  Biso   1.000  H
  H29      1.0000 0.61010  0.45480  0.65070  Biso   1.000  H
  H30      1.0000 0.38990  0.54520  0.15070  Biso   1.000  H
  H31      1.0000 0.11010  0.54520  0.65070  Biso   1.000  H
  H32      1.0000 0.88990  0.45480  0.15070  Biso   1.000  H
  H33      1.0000 0.52660  0.37570  0.62790  Biso   1.000  H
  H34      1.0000 0.47340  0.62430  0.12790  Biso   1.000  H
  H35      1.0000 0.02660  0.62430  0.62790  Biso   1.000  H
  H36      1.0000 0.97340  0.37570  0.12790  Biso   1.000  H
