data_image0
_cell_length_a       9.745
_cell_length_b       3.932
_cell_length_c       19.035
_cell_angle_alpha    90
_cell_angle_beta     111.8
_cell_angle_gamma    90

_symmetry_space_group_name_H-M    "P 1"
_symmetry_int_tables_number       1

loop_
  _symmetry_equiv_pos_as_xyz
  'x, y, z'

loop_
  _atom_site_label
  _atom_site_occupancy
  _atom_site_fract_x
  _atom_site_fract_y
  _atom_site_fract_z
  _atom_site_thermal_displace_type
  _atom_site_B_iso_or_equiv
  _atom_site_type_symbol
  Cu1      1.0000 0.00000  0.00000  0.00000  Biso   1.000  Cu
  Cu2      1.0000 0.00000  0.50000  0.50000  Biso   1.000  Cu
  Cl1      1.0000 0.82400  0.35000  0.91140  Biso   1.000  Cl
  Cl2      1.0000 0.17600  0.85000  0.58860  Biso   1.000  Cl
  Cl3      1.0000 0.17600  0.65000  0.08860  Biso   1.000  Cl
  Cl4      1.0000 0.82400  0.15000  0.41140  Biso   1.000  Cl
  N1       1.0000 0.12900  0.99600  0.93400  Biso   1.000  N
  N2       1.0000 0.87100  0.49600  0.56600  Biso   1.000  N
  N3       1.0000 0.87100  0.00400  0.06600  Biso   1.000  N
  N4       1.0000 0.12900  0.50400  0.43400  Biso   1.000  N
  C1       1.0000 0.27900  0.13500  0.96900  Biso   1.000  C
  C2       1.0000 0.72100  0.63500  0.53100  Biso   1.000  C
  C3       1.0000 0.72100  0.86500  0.03100  Biso   1.000  C
  C4       1.0000 0.27900  0.36500  0.46900  Biso   1.000  C
  C5       1.0000 0.36600  0.14400  0.92200  Biso   1.000  C
  C6       1.0000 0.63400  0.64400  0.57800  Biso   1.000  C
  C7       1.0000 0.63400  0.85600  0.07800  Biso   1.000  C
  C8       1.0000 0.36600  0.35600  0.42200  Biso   1.000  C
  C9       1.0000 0.30600  0.02800  0.84600  Biso   1.000  C
  C10      1.0000 0.69400  0.52800  0.65400  Biso   1.000  C
  C11      1.0000 0.69400  0.97200  0.15400  Biso   1.000  C
  C12      1.0000 0.30600  0.47200  0.34600  Biso   1.000  C
  C13      1.0000 0.16100  0.88700  0.81800  Biso   1.000  C
  C14      1.0000 0.83900  0.38700  0.68200  Biso   1.000  C
  C15      1.0000 0.83900  0.11300  0.18200  Biso   1.000  C
  C16      1.0000 0.16100  0.61300  0.31800  Biso   1.000  C
  C17      1.0000 0.07000  0.87900  0.85900  Biso   1.000  C
  C18      1.0000 0.93000  0.37900  0.64100  Biso   1.000  C
  C19      1.0000 0.93000  0.12100  0.14100  Biso   1.000  C
  C20      1.0000 0.07000  0.62100  0.35900  Biso   1.000  C
  C21      1.0000 0.40400  0.07700  0.79600  Biso   1.000  C
  C22      1.0000 0.59600  0.57700  0.70400  Biso   1.000  C
  C23      1.0000 0.59600  0.92300  0.20400  Biso   1.000  C
  C24      1.0000 0.40400  0.42300  0.29600  Biso   1.000  C
