data_image0
_cell_length_a       16.191
_cell_length_b       15.418
_cell_length_c       12.769
_cell_angle_alpha    90
_cell_angle_beta     122.547
_cell_angle_gamma    90

_symmetry_space_group_name_H-M    "P 1"
_symmetry_int_tables_number       1

loop_
  _symmetry_equiv_pos_as_xyz
  'x, y, z'

loop_
  _atom_site_label
  _atom_site_occupancy
  _atom_site_fract_x
  _atom_site_fract_y
  _atom_site_fract_z
  _atom_site_thermal_displace_type
  _atom_site_B_iso_or_equiv
  _atom_site_type_symbol
  C1       1.0000 0.08830  0.17030  0.44430  Biso   1.000  C
  C2       1.0000 0.91170  0.17030  0.05570  Biso   1.000  C
  C3       1.0000 0.58830  0.67030  0.44430  Biso   1.000  C
  C4       1.0000 0.41170  0.67030  0.05570  Biso   1.000  C
  C5       1.0000 0.91170  0.82970  0.55570  Biso   1.000  C
  C6       1.0000 0.08830  0.82970  0.94430  Biso   1.000  C
  C7       1.0000 0.41170  0.32970  0.55570  Biso   1.000  C
  C8       1.0000 0.58830  0.32970  0.94430  Biso   1.000  C
  C9       1.0000 0.00000  0.10920  0.38540  Biso   1.000  C
  C10      1.0000 0.00000  0.10920  0.11460  Biso   1.000  C
  C11      1.0000 0.50000  0.60920  0.38540  Biso   1.000  C
  C12      1.0000 0.50000  0.60920  0.11460  Biso   1.000  C
  C13      1.0000 0.00000  0.89080  0.61460  Biso   1.000  C
  C14      1.0000 0.00000  0.89080  0.88540  Biso   1.000  C
  C15      1.0000 0.50000  0.39080  0.61460  Biso   1.000  C
  C16      1.0000 0.50000  0.39080  0.88540  Biso   1.000  C
  C17      1.0000 0.94580  0.10580  0.44230  Biso   1.000  C
  C18      1.0000 0.05420  0.10580  0.05770  Biso   1.000  C
  C19      1.0000 0.44580  0.60580  0.44230  Biso   1.000  C
  C20      1.0000 0.55420  0.60580  0.05770  Biso   1.000  C
  C21      1.0000 0.05420  0.89420  0.55770  Biso   1.000  C
  C22      1.0000 0.94580  0.89420  0.94230  Biso   1.000  C
  C23      1.0000 0.55420  0.39420  0.55770  Biso   1.000  C
  C24      1.0000 0.44580  0.39420  0.94230  Biso   1.000  C
  H1       1.0000 0.96180  0.14000  0.51080  Biso   1.000  H
  H2       1.0000 0.03820  0.14000  0.98920  Biso   1.000  H
  H3       1.0000 0.46180  0.64000  0.51080  Biso   1.000  H
  H4       1.0000 0.53820  0.64000  0.98920  Biso   1.000  H
  H5       1.0000 0.03820  0.86000  0.48920  Biso   1.000  H
  H6       1.0000 0.96180  0.86000  0.01080  Biso   1.000  H
  H7       1.0000 0.53820  0.36000  0.48920  Biso   1.000  H
  H8       1.0000 0.46180  0.36000  0.01080  Biso   1.000  H
  C25      1.0000 0.86590  0.04780  0.38960  Biso   1.000  C
  C26      1.0000 0.13410  0.04780  0.11040  Biso   1.000  C
  C27      1.0000 0.36590  0.54780  0.38960  Biso   1.000  C
  C28      1.0000 0.63410  0.54780  0.11040  Biso   1.000  C
  C29      1.0000 0.13410  0.95220  0.61040  Biso   1.000  C
  C30      1.0000 0.86590  0.95220  0.88960  Biso   1.000  C
  C31      1.0000 0.63410  0.45220  0.61040  Biso   1.000  C
  C32      1.0000 0.36590  0.45220  0.88960  Biso   1.000  C
  H9       1.0000 0.82650  0.04450  0.42200  Biso   1.000  H
  H10      1.0000 0.17350  0.04450  0.07800  Biso   1.000  H
  H11      1.0000 0.32650  0.54450  0.42200  Biso   1.000  H
  H12      1.0000 0.67350  0.54450  0.07800  Biso   1.000  H
  H13      1.0000 0.17350  0.95550  0.57800  Biso   1.000  H
  H14      1.0000 0.82650  0.95550  0.92200  Biso   1.000  H
  H15      1.0000 0.67350  0.45550  0.57800  Biso   1.000  H
  H16      1.0000 0.32650  0.45550  0.92200  Biso   1.000  H
  C33      1.0000 0.84590  0.99640  0.29140  Biso   1.000  C
  C34      1.0000 0.15410  0.99640  0.20860  Biso   1.000  C
  C35      1.0000 0.34590  0.49640  0.29140  Biso   1.000  C
  C36      1.0000 0.65410  0.49640  0.20860  Biso   1.000  C
  C37      1.0000 0.15410  0.00360  0.70860  Biso   1.000  C
  C38      1.0000 0.84590  0.00360  0.79140  Biso   1.000  C
  C39      1.0000 0.65410  0.50360  0.70860  Biso   1.000  C
  C40      1.0000 0.34590  0.50360  0.79140  Biso   1.000  C
  H17      1.0000 0.79380  0.95760  0.25910  Biso   1.000  H
  H18      1.0000 0.20620  0.95760  0.24090  Biso   1.000  H
  H19      1.0000 0.29380  0.45760  0.25910  Biso   1.000  H
  H20      1.0000 0.70620  0.45760  0.24090  Biso   1.000  H
  H21      1.0000 0.20620  0.04240  0.74090  Biso   1.000  H
  H22      1.0000 0.79380  0.04240  0.75910  Biso   1.000  H
  H23      1.0000 0.70620  0.54240  0.74090  Biso   1.000  H
  H24      1.0000 0.29380  0.54240  0.75910  Biso   1.000  H
  C41      1.0000 0.97460  0.05710  0.28210  Biso   1.000  C
  C42      1.0000 0.02540  0.05710  0.21790  Biso   1.000  C
  C43      1.0000 0.47460  0.55710  0.28210  Biso   1.000  C
  C44      1.0000 0.52540  0.55710  0.21790  Biso   1.000  C
  C45      1.0000 0.02540  0.94290  0.71790  Biso   1.000  C
  C46      1.0000 0.97460  0.94290  0.78210  Biso   1.000  C
  C47      1.0000 0.52540  0.44290  0.71790  Biso   1.000  C
  C48      1.0000 0.47460  0.44290  0.78210  Biso   1.000  C
  C49      1.0000 0.33120  0.08200  0.61900  Biso   1.000  C
  C50      1.0000 0.66880  0.08200  0.88100  Biso   1.000  C
  C51      1.0000 0.83120  0.58200  0.61900  Biso   1.000  C
  C52      1.0000 0.16880  0.58200  0.88100  Biso   1.000  C
  C53      1.0000 0.66880  0.91800  0.38100  Biso   1.000  C
  C54      1.0000 0.33120  0.91800  0.11900  Biso   1.000  C
  C55      1.0000 0.16880  0.41800  0.38100  Biso   1.000  C
  C56      1.0000 0.83120  0.41800  0.11900  Biso   1.000  C
  H25      1.0000 0.30370  0.06260  0.53780  Biso   1.000  H
  H26      1.0000 0.69630  0.06260  0.96220  Biso   1.000  H
  H27      1.0000 0.80370  0.56260  0.53780  Biso   1.000  H
  H28      1.0000 0.19630  0.56260  0.96220  Biso   1.000  H
  H29      1.0000 0.69630  0.93740  0.46220  Biso   1.000  H
  H30      1.0000 0.30370  0.93740  0.03780  Biso   1.000  H
  H31      1.0000 0.19630  0.43740  0.46220  Biso   1.000  H
  H32      1.0000 0.80370  0.43740  0.03780  Biso   1.000  H
  C57      1.0000 0.38040  0.02440  0.71540  Biso   1.000  C
  C58      1.0000 0.61960  0.02440  0.78460  Biso   1.000  C
  C59      1.0000 0.88040  0.52440  0.71540  Biso   1.000  C
  C60      1.0000 0.11960  0.52440  0.78460  Biso   1.000  C
  C61      1.0000 0.61960  0.97560  0.28460  Biso   1.000  C
  C62      1.0000 0.38040  0.97560  0.21540  Biso   1.000  C
  C63      1.0000 0.11960  0.47560  0.28460  Biso   1.000  C
  C64      1.0000 0.88040  0.47560  0.21540  Biso   1.000  C
  H33      1.0000 0.38470  0.96650  0.69860  Biso   1.000  H
  H34      1.0000 0.61530  0.96650  0.80140  Biso   1.000  H
  H35      1.0000 0.88470  0.46650  0.69860  Biso   1.000  H
  H36      1.0000 0.11530  0.46650  0.80140  Biso   1.000  H
  H37      1.0000 0.61530  0.03350  0.30140  Biso   1.000  H
  H38      1.0000 0.38470  0.03350  0.19860  Biso   1.000  H
  H39      1.0000 0.11530  0.53350  0.30140  Biso   1.000  H
  H40      1.0000 0.88470  0.53350  0.19860  Biso   1.000  H
  C65      1.0000 0.42390  0.05180  0.83780  Biso   1.000  C
  C66      1.0000 0.57610  0.05180  0.66220  Biso   1.000  C
  C67      1.0000 0.92390  0.55180  0.83780  Biso   1.000  C
  C68      1.0000 0.07610  0.55180  0.66220  Biso   1.000  C
  C69      1.0000 0.57610  0.94820  0.16220  Biso   1.000  C
  C70      1.0000 0.42390  0.94820  0.33780  Biso   1.000  C
  C71      1.0000 0.07610  0.44820  0.16220  Biso   1.000  C
  C72      1.0000 0.92390  0.44820  0.33780  Biso   1.000  C
  C73      1.0000 0.41010  0.13870  0.85650  Biso   1.000  C
  C74      1.0000 0.58990  0.13870  0.64350  Biso   1.000  C
  C75      1.0000 0.91010  0.63870  0.85650  Biso   1.000  C
  C76      1.0000 0.08990  0.63870  0.64350  Biso   1.000  C
  C77      1.0000 0.58990  0.86130  0.14350  Biso   1.000  C
  C78      1.0000 0.41010  0.86130  0.35650  Biso   1.000  C
  C79      1.0000 0.08990  0.36130  0.14350  Biso   1.000  C
  C80      1.0000 0.91010  0.36130  0.35650  Biso   1.000  C
  H41      1.0000 0.43330  0.15990  0.93590  Biso   1.000  H
  H42      1.0000 0.56670  0.15990  0.56410  Biso   1.000  H
  H43      1.0000 0.93330  0.65990  0.93590  Biso   1.000  H
  H44      1.0000 0.06670  0.65990  0.56410  Biso   1.000  H
  H45      1.0000 0.56670  0.84010  0.06410  Biso   1.000  H
  H46      1.0000 0.43330  0.84010  0.43590  Biso   1.000  H
  H47      1.0000 0.06670  0.34010  0.06410  Biso   1.000  H
  H48      1.0000 0.93330  0.34010  0.43590  Biso   1.000  H
  C81      1.0000 0.36030  0.19300  0.75250  Biso   1.000  C
  C82      1.0000 0.63970  0.19300  0.74750  Biso   1.000  C
  C83      1.0000 0.86030  0.69300  0.75250  Biso   1.000  C
  C84      1.0000 0.13970  0.69300  0.74750  Biso   1.000  C
  C85      1.0000 0.63970  0.80700  0.24750  Biso   1.000  C
  C86      1.0000 0.36030  0.80700  0.25250  Biso   1.000  C
  C87      1.0000 0.13970  0.30700  0.24750  Biso   1.000  C
  C88      1.0000 0.86030  0.30700  0.25250  Biso   1.000  C
  H49      1.0000 0.35470  0.25150  0.76540  Biso   1.000  H
  H50      1.0000 0.64530  0.25150  0.73460  Biso   1.000  H
  H51      1.0000 0.85470  0.75150  0.76540  Biso   1.000  H
  H52      1.0000 0.14530  0.75150  0.73460  Biso   1.000  H
  H53      1.0000 0.64530  0.74850  0.23460  Biso   1.000  H
  H54      1.0000 0.35470  0.74850  0.26540  Biso   1.000  H
  H55      1.0000 0.14530  0.24850  0.23460  Biso   1.000  H
  H56      1.0000 0.85470  0.24850  0.26540  Biso   1.000  H
  C89      1.0000 0.47690  0.99150  0.94270  Biso   1.000  C
  C90      1.0000 0.52310  0.99150  0.55730  Biso   1.000  C
  C91      1.0000 0.97690  0.49150  0.94270  Biso   1.000  C
  C92      1.0000 0.02310  0.49150  0.55730  Biso   1.000  C
  C93      1.0000 0.52310  0.00850  0.05730  Biso   1.000  C
  C94      1.0000 0.47690  0.00850  0.44270  Biso   1.000  C
  C95      1.0000 0.02310  0.50850  0.05730  Biso   1.000  C
  C96      1.0000 0.97690  0.50850  0.44270  Biso   1.000  C
  H57      1.0000 0.47630  0.93360  0.92200  Biso   1.000  H
  H58      1.0000 0.52370  0.93360  0.57800  Biso   1.000  H
  H59      1.0000 0.97630  0.43360  0.92200  Biso   1.000  H
  H60      1.0000 0.02370  0.43360  0.57800  Biso   1.000  H
  H61      1.0000 0.52370  0.06640  0.07800  Biso   1.000  H
  H62      1.0000 0.47630  0.06640  0.42200  Biso   1.000  H
  H63      1.0000 0.02370  0.56640  0.07800  Biso   1.000  H
  H64      1.0000 0.97630  0.56640  0.42200  Biso   1.000  H
  Cu1      1.0000 0.25000  0.25000  0.50000  Biso   1.000  Cu
  Cu2      1.0000 0.75000  0.25000  0.00000  Biso   1.000  Cu
  Cu3      1.0000 0.75000  0.75000  0.50000  Biso   1.000  Cu
  Cu4      1.0000 0.25000  0.75000  0.00000  Biso   1.000  Cu
  N1       1.0000 0.89910  0.00070  0.24130  Biso   1.000  N
  N2       1.0000 0.10090  0.00070  0.25870  Biso   1.000  N
  N3       1.0000 0.39910  0.50070  0.24130  Biso   1.000  N
  N4       1.0000 0.60090  0.50070  0.25870  Biso   1.000  N
  N5       1.0000 0.10090  0.99930  0.75870  Biso   1.000  N
  N6       1.0000 0.89910  0.99930  0.74130  Biso   1.000  N
  N7       1.0000 0.60090  0.49930  0.75870  Biso   1.000  N
  N8       1.0000 0.39910  0.49930  0.74130  Biso   1.000  N
  N9       1.0000 0.32180  0.16630  0.63980  Biso   1.000  N
  N10      1.0000 0.67820  0.16630  0.86020  Biso   1.000  N
  N11      1.0000 0.82180  0.66630  0.63980  Biso   1.000  N
  N12      1.0000 0.17820  0.66630  0.86020  Biso   1.000  N
  N13      1.0000 0.67820  0.83370  0.36020  Biso   1.000  N
  N14      1.0000 0.32180  0.83370  0.13980  Biso   1.000  N
  N15      1.0000 0.17820  0.33370  0.36020  Biso   1.000  N
  N16      1.0000 0.82180  0.33370  0.13980  Biso   1.000  N
  O1       1.0000 0.14480  0.16460  0.40410  Biso   1.000  O
  O2       1.0000 0.85520  0.16460  0.09590  Biso   1.000  O
  O3       1.0000 0.64480  0.66460  0.40410  Biso   1.000  O
  O4       1.0000 0.35520  0.66460  0.09590  Biso   1.000  O
  O5       1.0000 0.85520  0.83540  0.59590  Biso   1.000  O
  O6       1.0000 0.14480  0.83540  0.90410  Biso   1.000  O
  O7       1.0000 0.35520  0.33540  0.59590  Biso   1.000  O
  O8       1.0000 0.64480  0.33540  0.90410  Biso   1.000  O
  O9       1.0000 0.09910  0.22370  0.52320  Biso   1.000  O
  O10      1.0000 0.90090  0.22370  0.97680  Biso   1.000  O
  O11      1.0000 0.59910  0.72370  0.52320  Biso   1.000  O
  O12      1.0000 0.40090  0.72370  0.97680  Biso   1.000  O
  O13      1.0000 0.90090  0.77630  0.47680  Biso   1.000  O
  O14      1.0000 0.09910  0.77630  0.02320  Biso   1.000  O
  O15      1.0000 0.40090  0.27630  0.47680  Biso   1.000  O
  O16      1.0000 0.59910  0.27630  0.02320  Biso   1.000  O
  O17      1.0000 0.87500  0.95240  0.14730  Biso   1.000  O
  O18      1.0000 0.12500  0.95240  0.35270  Biso   1.000  O
  O19      1.0000 0.37500  0.45240  0.14730  Biso   1.000  O
  O20      1.0000 0.62500  0.45240  0.35270  Biso   1.000  O
  O21      1.0000 0.12500  0.04760  0.85270  Biso   1.000  O
  O22      1.0000 0.87500  0.04760  0.64730  Biso   1.000  O
  O23      1.0000 0.62500  0.54760  0.85270  Biso   1.000  O
  O24      1.0000 0.37500  0.54760  0.64730  Biso   1.000  O
