data_image0
_cell_length_a       15.97
_cell_length_b       14.93
_cell_length_c       12.417
_cell_angle_alpha    90
_cell_angle_beta     120.185
_cell_angle_gamma    90

_symmetry_space_group_name_H-M    "P 1"
_symmetry_int_tables_number       1

loop_
  _symmetry_equiv_pos_as_xyz
  'x, y, z'

loop_
  _atom_site_label
  _atom_site_occupancy
  _atom_site_fract_x
  _atom_site_fract_y
  _atom_site_fract_z
  _atom_site_thermal_displace_type
  _atom_site_B_iso_or_equiv
  _atom_site_type_symbol
  Cu1      1.0000 0.25000  0.25000  0.00000  Biso   1.000  Cu
  Cu2      1.0000 0.75000  0.25000  0.50000  Biso   1.000  Cu
  Cu3      1.0000 0.75000  0.75000  0.00000  Biso   1.000  Cu
  Cu4      1.0000 0.25000  0.75000  0.50000  Biso   1.000  Cu
  O1       1.0000 0.14590  0.16260  0.90580  Biso   1.000  O
  O2       1.0000 0.85410  0.16260  0.59420  Biso   1.000  O
  O3       1.0000 0.64590  0.66260  0.90580  Biso   1.000  O
  O4       1.0000 0.35410  0.66260  0.59420  Biso   1.000  O
  O5       1.0000 0.85410  0.83740  0.09420  Biso   1.000  O
  O6       1.0000 0.14590  0.83740  0.40580  Biso   1.000  O
  O7       1.0000 0.35410  0.33740  0.09420  Biso   1.000  O
  O8       1.0000 0.64590  0.33740  0.40580  Biso   1.000  O
  O9       1.0000 0.09870  0.22760  0.02590  Biso   1.000  O
  O10      1.0000 0.90130  0.22760  0.47410  Biso   1.000  O
  O11      1.0000 0.59870  0.72760  0.02590  Biso   1.000  O
  O12      1.0000 0.40130  0.72760  0.47410  Biso   1.000  O
  O13      1.0000 0.90130  0.77240  0.97410  Biso   1.000  O
  O14      1.0000 0.09870  0.77240  0.52590  Biso   1.000  O
  O15      1.0000 0.40130  0.27240  0.97410  Biso   1.000  O
  O16      1.0000 0.59870  0.27240  0.52590  Biso   1.000  O
  O17      1.0000 0.87860  0.94880  0.65980  Biso   1.000  O
  O18      1.0000 0.12140  0.94880  0.84020  Biso   1.000  O
  O19      1.0000 0.37860  0.44880  0.65980  Biso   1.000  O
  O20      1.0000 0.62140  0.44880  0.84020  Biso   1.000  O
  O21      1.0000 0.12140  0.05120  0.34020  Biso   1.000  O
  O22      1.0000 0.87860  0.05120  0.15980  Biso   1.000  O
  O23      1.0000 0.62140  0.55120  0.34020  Biso   1.000  O
  O24      1.0000 0.37860  0.55120  0.15980  Biso   1.000  O
  N1       1.0000 0.90030  0.00010  0.74720  Biso   1.000  N
  N2       1.0000 0.09970  0.00010  0.75280  Biso   1.000  N
  N3       1.0000 0.40030  0.50010  0.74720  Biso   1.000  N
  N4       1.0000 0.59970  0.50010  0.75280  Biso   1.000  N
  N5       1.0000 0.09970  0.99990  0.25280  Biso   1.000  N
  N6       1.0000 0.90030  0.99990  0.24720  Biso   1.000  N
  N7       1.0000 0.59970  0.49990  0.25280  Biso   1.000  N
  N8       1.0000 0.40030  0.49990  0.24720  Biso   1.000  N
  N9       1.0000 0.31760  0.16400  0.13860  Biso   1.000  N
  N10      1.0000 0.68240  0.16400  0.36140  Biso   1.000  N
  N11      1.0000 0.81760  0.66400  0.13860  Biso   1.000  N
  N12      1.0000 0.18240  0.66400  0.36140  Biso   1.000  N
  N13      1.0000 0.68240  0.83600  0.86140  Biso   1.000  N
  N14      1.0000 0.31760  0.83600  0.63860  Biso   1.000  N
  N15      1.0000 0.18240  0.33600  0.86140  Biso   1.000  N
  N16      1.0000 0.81760  0.33600  0.63860  Biso   1.000  N
  C1       1.0000 0.08520  0.17280  0.94200  Biso   1.000  C
  C2       1.0000 0.91480  0.17280  0.55800  Biso   1.000  C
  C3       1.0000 0.58520  0.67280  0.94200  Biso   1.000  C
  C4       1.0000 0.41480  0.67280  0.55800  Biso   1.000  C
  C5       1.0000 0.91480  0.82720  0.05800  Biso   1.000  C
  C6       1.0000 0.08520  0.82720  0.44200  Biso   1.000  C
  C7       1.0000 0.41480  0.32720  0.05800  Biso   1.000  C
  C8       1.0000 0.58520  0.32720  0.44200  Biso   1.000  C
  C9       1.0000 0.97620  0.05820  0.78800  Biso   1.000  C
  C10      1.0000 0.02380  0.05820  0.71200  Biso   1.000  C
  C11      1.0000 0.47620  0.55820  0.78800  Biso   1.000  C
  C12      1.0000 0.52380  0.55820  0.71200  Biso   1.000  C
  C13      1.0000 0.02380  0.94180  0.21200  Biso   1.000  C
  C14      1.0000 0.97620  0.94180  0.28800  Biso   1.000  C
  C15      1.0000 0.52380  0.44180  0.21200  Biso   1.000  C
  C16      1.0000 0.47620  0.44180  0.28800  Biso   1.000  C
  C17      1.0000 0.00000  0.11160  0.88770  Biso   1.000  C
  C18      1.0000 0.00000  0.11160  0.61230  Biso   1.000  C
  C19      1.0000 0.50000  0.61160  0.88770  Biso   1.000  C
  C20      1.0000 0.50000  0.61160  0.61230  Biso   1.000  C
  C21      1.0000 0.00000  0.88840  0.11230  Biso   1.000  C
  C22      1.0000 0.00000  0.88840  0.38770  Biso   1.000  C
  C23      1.0000 0.50000  0.38840  0.11230  Biso   1.000  C
  C24      1.0000 0.50000  0.38840  0.38770  Biso   1.000  C
  C25      1.0000 0.94500  0.10810  0.94560  Biso   1.000  C
  C26      1.0000 0.05500  0.10810  0.55440  Biso   1.000  C
  C27      1.0000 0.44500  0.60810  0.94560  Biso   1.000  C
  C28      1.0000 0.55500  0.60810  0.55440  Biso   1.000  C
  C29      1.0000 0.05500  0.89190  0.05440  Biso   1.000  C
  C30      1.0000 0.94500  0.89190  0.44560  Biso   1.000  C
  C31      1.0000 0.55500  0.39190  0.05440  Biso   1.000  C
  C32      1.0000 0.44500  0.39190  0.44560  Biso   1.000  C
  H1       1.0000 0.95940  0.14410  0.01390  Biso   1.000  H
  H2       1.0000 0.04060  0.14410  0.48610  Biso   1.000  H
  H3       1.0000 0.45940  0.64410  0.01390  Biso   1.000  H
  H4       1.0000 0.54060  0.64410  0.48610  Biso   1.000  H
  H5       1.0000 0.04060  0.85590  0.98610  Biso   1.000  H
  H6       1.0000 0.95940  0.85590  0.51390  Biso   1.000  H
  H7       1.0000 0.54060  0.35590  0.98610  Biso   1.000  H
  H8       1.0000 0.45940  0.35590  0.51390  Biso   1.000  H
  C33      1.0000 0.86630  0.04780  0.89680  Biso   1.000  C
  C34      1.0000 0.13370  0.04780  0.60320  Biso   1.000  C
  C35      1.0000 0.36630  0.54780  0.89680  Biso   1.000  C
  C36      1.0000 0.63370  0.54780  0.60320  Biso   1.000  C
  C37      1.0000 0.13370  0.95220  0.10320  Biso   1.000  C
  C38      1.0000 0.86630  0.95220  0.39680  Biso   1.000  C
  C39      1.0000 0.63370  0.45220  0.10320  Biso   1.000  C
  C40      1.0000 0.36630  0.45220  0.39680  Biso   1.000  C
  H9       1.0000 0.82680  0.04540  0.93180  Biso   1.000  H
  H10      1.0000 0.17320  0.04540  0.56820  Biso   1.000  H
  H11      1.0000 0.32680  0.54540  0.93180  Biso   1.000  H
  H12      1.0000 0.67320  0.54540  0.56820  Biso   1.000  H
  H13      1.0000 0.17320  0.95460  0.06820  Biso   1.000  H
  H14      1.0000 0.82680  0.95460  0.43180  Biso   1.000  H
  H15      1.0000 0.67320  0.45460  0.06820  Biso   1.000  H
  H16      1.0000 0.32680  0.45460  0.43180  Biso   1.000  H
  C41      1.0000 0.84860  0.99700  0.80620  Biso   1.000  C
  C42      1.0000 0.15140  0.99700  0.69380  Biso   1.000  C
  C43      1.0000 0.34860  0.49700  0.80620  Biso   1.000  C
  C44      1.0000 0.65140  0.49700  0.69380  Biso   1.000  C
  C45      1.0000 0.15140  0.00300  0.19380  Biso   1.000  C
  C46      1.0000 0.84860  0.00300  0.30620  Biso   1.000  C
  C47      1.0000 0.65140  0.50300  0.19380  Biso   1.000  C
  C48      1.0000 0.34860  0.50300  0.30620  Biso   1.000  C
  H17      1.0000 0.79810  0.95600  0.77910  Biso   1.000  H
  H18      1.0000 0.20190  0.95600  0.72090  Biso   1.000  H
  H19      1.0000 0.29810  0.45600  0.77910  Biso   1.000  H
  H20      1.0000 0.70190  0.45600  0.72090  Biso   1.000  H
  H21      1.0000 0.20190  0.04400  0.22090  Biso   1.000  H
  H22      1.0000 0.79810  0.04400  0.27910  Biso   1.000  H
  H23      1.0000 0.70190  0.54400  0.22090  Biso   1.000  H
  H24      1.0000 0.29810  0.54400  0.27910  Biso   1.000  H
  C49      1.0000 0.33200  0.07690  0.11970  Biso   1.000  C
  C50      1.0000 0.66800  0.07690  0.38030  Biso   1.000  C
  C51      1.0000 0.83200  0.57690  0.11970  Biso   1.000  C
  C52      1.0000 0.16800  0.57690  0.38030  Biso   1.000  C
  C53      1.0000 0.66800  0.92310  0.88030  Biso   1.000  C
  C54      1.0000 0.33200  0.92310  0.61970  Biso   1.000  C
  C55      1.0000 0.16800  0.42310  0.88030  Biso   1.000  C
  C56      1.0000 0.83200  0.42310  0.61970  Biso   1.000  C
  H25      1.0000 0.30820  0.05680  0.03860  Biso   1.000  H
  H26      1.0000 0.69180  0.05680  0.46140  Biso   1.000  H
  H27      1.0000 0.80820  0.55680  0.03860  Biso   1.000  H
  H28      1.0000 0.19180  0.55680  0.46140  Biso   1.000  H
  H29      1.0000 0.69180  0.94320  0.96140  Biso   1.000  H
  H30      1.0000 0.30820  0.94320  0.53860  Biso   1.000  H
  H31      1.0000 0.19180  0.44320  0.96140  Biso   1.000  H
  H32      1.0000 0.80820  0.44320  0.53860  Biso   1.000  H
  C57      1.0000 0.37910  0.01910  0.21370  Biso   1.000  C
  C58      1.0000 0.62090  0.01910  0.28630  Biso   1.000  C
  C59      1.0000 0.87910  0.51910  0.21370  Biso   1.000  C
  C60      1.0000 0.12090  0.51910  0.28630  Biso   1.000  C
  C61      1.0000 0.62090  0.98090  0.78630  Biso   1.000  C
  C62      1.0000 0.37910  0.98090  0.71370  Biso   1.000  C
  C63      1.0000 0.12090  0.48090  0.78630  Biso   1.000  C
  C64      1.0000 0.87910  0.48090  0.71370  Biso   1.000  C
  H33      1.0000 0.38500  0.95930  0.19760  Biso   1.000  H
  H34      1.0000 0.61500  0.95930  0.30240  Biso   1.000  H
  H35      1.0000 0.88500  0.45930  0.19760  Biso   1.000  H
  H36      1.0000 0.11500  0.45930  0.30240  Biso   1.000  H
  H37      1.0000 0.61500  0.04070  0.80240  Biso   1.000  H
  H38      1.0000 0.38500  0.04070  0.69760  Biso   1.000  H
  H39      1.0000 0.11500  0.54070  0.80240  Biso   1.000  H
  H40      1.0000 0.88500  0.54070  0.69760  Biso   1.000  H
  C65      1.0000 0.41970  0.04980  0.33750  Biso   1.000  C
  C66      1.0000 0.58030  0.04980  0.16250  Biso   1.000  C
  C67      1.0000 0.91970  0.54980  0.33750  Biso   1.000  C
  C68      1.0000 0.08030  0.54980  0.16250  Biso   1.000  C
  C69      1.0000 0.58030  0.95020  0.66250  Biso   1.000  C
  C70      1.0000 0.41970  0.95020  0.83750  Biso   1.000  C
  C71      1.0000 0.08030  0.45020  0.66250  Biso   1.000  C
  C72      1.0000 0.91970  0.45020  0.83750  Biso   1.000  C
  C73      1.0000 0.40110  0.13690  0.35470  Biso   1.000  C
  C74      1.0000 0.59890  0.13690  0.14530  Biso   1.000  C
  C75      1.0000 0.90110  0.63690  0.35470  Biso   1.000  C
  C76      1.0000 0.09890  0.63690  0.14530  Biso   1.000  C
  C77      1.0000 0.59890  0.86310  0.64530  Biso   1.000  C
  C78      1.0000 0.40110  0.86310  0.85470  Biso   1.000  C
  C79      1.0000 0.09890  0.36310  0.64530  Biso   1.000  C
  C80      1.0000 0.90110  0.36310  0.85470  Biso   1.000  C
  H41      1.0000 0.42170  0.15860  0.43430  Biso   1.000  H
  H42      1.0000 0.57830  0.15860  0.06570  Biso   1.000  H
  H43      1.0000 0.92170  0.65860  0.43430  Biso   1.000  H
  H44      1.0000 0.07830  0.65860  0.06570  Biso   1.000  H
  H45      1.0000 0.57830  0.84140  0.56570  Biso   1.000  H
  H46      1.0000 0.42170  0.84140  0.93430  Biso   1.000  H
  H47      1.0000 0.07830  0.34140  0.56570  Biso   1.000  H
  H48      1.0000 0.92170  0.34140  0.93430  Biso   1.000  H
  C81      1.0000 0.35190  0.19110  0.25300  Biso   1.000  C
  C82      1.0000 0.64810  0.19110  0.24700  Biso   1.000  C
  C83      1.0000 0.85190  0.69110  0.25300  Biso   1.000  C
  C84      1.0000 0.14810  0.69110  0.24700  Biso   1.000  C
  C85      1.0000 0.64810  0.80890  0.74700  Biso   1.000  C
  C86      1.0000 0.35190  0.80890  0.75300  Biso   1.000  C
  C87      1.0000 0.14810  0.30890  0.74700  Biso   1.000  C
  C88      1.0000 0.85190  0.30890  0.75300  Biso   1.000  C
  H49      1.0000 0.34240  0.25060  0.26620  Biso   1.000  H
  H50      1.0000 0.65760  0.25060  0.23380  Biso   1.000  H
  H51      1.0000 0.84240  0.75060  0.26620  Biso   1.000  H
  H52      1.0000 0.15760  0.75060  0.23380  Biso   1.000  H
  H53      1.0000 0.65760  0.74940  0.73380  Biso   1.000  H
  H54      1.0000 0.34240  0.74940  0.76620  Biso   1.000  H
  H55      1.0000 0.15760  0.24940  0.73380  Biso   1.000  H
  H56      1.0000 0.84240  0.24940  0.76620  Biso   1.000  H
  C89      1.0000 0.47270  0.98780  0.43780  Biso   1.000  C
  C90      1.0000 0.52730  0.98780  0.06220  Biso   1.000  C
  C91      1.0000 0.97270  0.48780  0.43780  Biso   1.000  C
  C92      1.0000 0.02730  0.48780  0.06220  Biso   1.000  C
  C93      1.0000 0.52730  0.01220  0.56220  Biso   1.000  C
  C94      1.0000 0.47270  0.01220  0.93780  Biso   1.000  C
  C95      1.0000 0.02730  0.51220  0.56220  Biso   1.000  C
  C96      1.0000 0.97270  0.51220  0.93780  Biso   1.000  C
  H57      1.0000 0.42590  0.94410  0.43280  Biso   1.000  H
  H58      1.0000 0.57410  0.94410  0.06720  Biso   1.000  H
  H59      1.0000 0.92590  0.44410  0.43280  Biso   1.000  H
  H60      1.0000 0.07410  0.44410  0.06720  Biso   1.000  H
  H61      1.0000 0.57410  0.05590  0.56720  Biso   1.000  H
  H62      1.0000 0.42590  0.05590  0.93280  Biso   1.000  H
  H63      1.0000 0.07410  0.55590  0.56720  Biso   1.000  H
  H64      1.0000 0.92590  0.55590  0.93280  Biso   1.000  H
  H65      1.0000 0.51620  0.95610  0.41800  Biso   1.000  H
  H66      1.0000 0.48380  0.95610  0.08200  Biso   1.000  H
  H67      1.0000 0.01620  0.45610  0.41800  Biso   1.000  H
  H68      1.0000 0.98380  0.45610  0.08200  Biso   1.000  H
  H69      1.0000 0.48380  0.04390  0.58200  Biso   1.000  H
  H70      1.0000 0.51620  0.04390  0.91800  Biso   1.000  H
  H71      1.0000 0.98380  0.54390  0.58200  Biso   1.000  H
  H72      1.0000 0.01620  0.54390  0.91800  Biso   1.000  H
