data_image0
_cell_length_a       7.3523
_cell_length_b       14.697
_cell_length_c       14.8462
_cell_angle_alpha    78.423
_cell_angle_beta     77.953
_cell_angle_gamma    76.328

_symmetry_space_group_name_H-M    "P 1"
_symmetry_int_tables_number       1

loop_
  _symmetry_equiv_pos_as_xyz
  'x, y, z'

loop_
  _atom_site_label
  _atom_site_occupancy
  _atom_site_fract_x
  _atom_site_fract_y
  _atom_site_fract_z
  _atom_site_thermal_displace_type
  _atom_site_B_iso_or_equiv
  _atom_site_type_symbol
  Cu1      1.0000 0.50000  0.00000  0.00000  Biso   1.000  Cu
  Cu2      1.0000 0.67272  0.83680  0.69966  Biso   1.000  Cu
  Cu3      1.0000 0.32728  0.16320  0.30034  Biso   1.000  Cu
  N1       1.0000 0.65340  0.97130  0.64020  Biso   1.000  N
  N2       1.0000 0.34660  0.02870  0.35980  Biso   1.000  N
  N3       1.0000 0.62810  0.03020  0.70470  Biso   1.000  N
  N4       1.0000 0.37190  0.96980  0.29530  Biso   1.000  N
  N5       1.0000 0.61190  0.89650  0.81210  Biso   1.000  N
  N6       1.0000 0.38810  0.10350  0.18790  Biso   1.000  N
  N7       1.0000 0.60980  0.74590  0.88530  Biso   1.000  N
  N8       1.0000 0.39020  0.25410  0.11470  Biso   1.000  N
  N9       1.0000 0.66410  0.72320  0.79650  Biso   1.000  N
  N10      1.0000 0.33590  0.27680  0.20350  Biso   1.000  N
  N11      1.0000 0.56580  0.04110  0.86590  Biso   1.000  N
  N12      1.0000 0.43420  0.95890  0.13410  Biso   1.000  N
  H1       1.0000 0.54800  0.08600  0.85200  Biso   1.000  H
  H2       1.0000 0.45200  0.91400  0.14800  Biso   1.000  H
  N13      1.0000 0.54250  0.86980  0.97500  Biso   1.000  N
  N14      1.0000 0.45750  0.13020  0.02500  Biso   1.000  N
  H3       1.0000 0.54600  0.83700  0.00500  Biso   1.000  H
  H4       1.0000 0.45400  0.16300  0.99500  Biso   1.000  H
  N15      1.0000 0.74530  0.77450  0.58830  Biso   1.000  N
  N16      1.0000 0.25470  0.22550  0.41170  Biso   1.000  N
  N17      1.0000 0.64130  0.72150  0.56370  Biso   1.000  N
  N18      1.0000 0.35870  0.27850  0.43630  Biso   1.000  N
  H5       1.0000 0.52980  0.71180  0.59450  Biso   1.000  H
  H6       1.0000 0.47020  0.28820  0.40550  Biso   1.000  H
  C1       1.0000 0.67940  0.02650  0.55860  Biso   1.000  C
  C2       1.0000 0.32060  0.97350  0.44140  Biso   1.000  C
  H7       1.0000 0.69980  0.00510  0.50040  Biso   1.000  H
  H8       1.0000 0.30020  0.99490  0.49960  Biso   1.000  H
  C3       1.0000 0.67350  0.11910  0.56750  Biso   1.000  C
  C4       1.0000 0.32650  0.88090  0.43250  Biso   1.000  C
  H9       1.0000 0.69020  0.17100  0.51890  Biso   1.000  H
  H10      1.0000 0.30980  0.82900  0.48110  Biso   1.000  H
  C5       1.0000 0.63840  0.11980  0.66170  Biso   1.000  C
  C6       1.0000 0.36160  0.88020  0.33830  Biso   1.000  C
  H11      1.0000 0.62390  0.17320  0.69140  Biso   1.000  H
  H12      1.0000 0.37610  0.82680  0.30860  Biso   1.000  H
  C7       1.0000 0.59920  0.99040  0.79970  Biso   1.000  C
  C8       1.0000 0.40080  0.00960  0.20030  Biso   1.000  C
  C9       1.0000 0.58640  0.84240  0.89470  Biso   1.000  C
  C10      1.0000 0.41360  0.15760  0.10530  Biso   1.000  C
  C11      1.0000 0.58530  0.66740  0.94770  Biso   1.000  C
  C12      1.0000 0.41470  0.33260  0.05230  Biso   1.000  C
  H13      1.0000 0.54810  0.66470  0.01330  Biso   1.000  H
  H14      1.0000 0.45190  0.33530  0.98670  Biso   1.000  H
  C13      1.0000 0.62290  0.59300  0.90110  Biso   1.000  C
  C14      1.0000 0.37710  0.40700  0.09890  Biso   1.000  C
  H15      1.0000 0.61810  0.52870  0.92640  Biso   1.000  H
  H16      1.0000 0.38190  0.47130  0.07360  Biso   1.000  H
  C15      1.0000 0.66960  0.63130  0.80840  Biso   1.000  C
  C16      1.0000 0.33040  0.36870  0.19160  Biso   1.000  C
  H17      1.0000 0.70210  0.59540  0.75880  Biso   1.000  H
  H18      1.0000 0.29790  0.40460  0.24120  Biso   1.000  H
  C17      1.0000 0.90330  0.76820  0.52590  Biso   1.000  C
  C18      1.0000 0.09670  0.23180  0.47410  Biso   1.000  C
  H19      1.0000 0.00550  0.79750  0.52590  Biso   1.000  H
  H20      1.0000 0.99450  0.20250  0.47410  Biso   1.000  H
  C19      1.0000 0.90080  0.71380  0.46100  Biso   1.000  C
  C20      1.0000 0.09920  0.28620  0.53900  Biso   1.000  C
  H21      1.0000 0.99690  0.69890  0.40940  Biso   1.000  H
  H22      1.0000 0.00310  0.30110  0.59060  Biso   1.000  H
  C21      1.0000 0.73050  0.68600  0.48660  Biso   1.000  C
  C22      1.0000 0.26950  0.31400  0.51340  Biso   1.000  C
  H23      1.0000 0.68400  0.64820  0.45530  Biso   1.000  H
  H24      1.0000 0.31600  0.35180  0.54470  Biso   1.000  H
  O1       1.0000 0.32490  0.85760  0.70520  Biso   1.000  O
  O2       1.0000 0.67510  0.14240  0.29480  Biso   1.000  O
  O3       1.0000 0.00620  0.85580  0.68710  Biso   1.000  O
  O4       1.0000 0.99380  0.14420  0.31290  Biso   1.000  O
  O5       1.0000 0.26760  0.72960  0.64250  Biso   1.000  O
  O6       1.0000 0.73240  0.27040  0.35750  Biso   1.000  O
  S1       1.0000 0.18790  0.79981  0.70540  Biso   1.000  S
  S2       1.0000 0.81210  0.20019  0.29460  Biso   1.000  S
  C23      1.0000 0.14830  0.73430  0.81980  Biso   1.000  C
  C24      1.0000 0.85170  0.26570  0.18020  Biso   1.000  C
  C25      1.0000 0.09520  0.78320  0.89350  Biso   1.000  C
  C26      1.0000 0.90480  0.21680  0.10650  Biso   1.000  C
  H25      1.0000 0.08000  0.85020  0.88440  Biso   1.000  H
  H26      1.0000 0.92000  0.14980  0.11560  Biso   1.000  H
  C27      1.0000 0.06430  0.73060  0.98260  Biso   1.000  C
  C28      1.0000 0.93570  0.26940  0.01740  Biso   1.000  C
  H27      1.0000 0.02740  0.76260  0.03510  Biso   1.000  H
  H28      1.0000 0.97260  0.23740  0.96490  Biso   1.000  H
  C29      1.0000 0.08560  0.63460  0.99630  Biso   1.000  C
  C30      1.0000 0.91440  0.36540  0.00370  Biso   1.000  C
  H29      1.0000 0.06470  0.60080  0.05790  Biso   1.000  H
  H30      1.0000 0.93530  0.39920  0.94210  Biso   1.000  H
  C31      1.0000 0.13590  0.58660  0.92330  Biso   1.000  C
  C32      1.0000 0.86410  0.41340  0.07670  Biso   1.000  C
  H31      1.0000 0.14980  0.51960  0.93270  Biso   1.000  H
  H32      1.0000 0.85020  0.48040  0.06730  Biso   1.000  H
  C33      1.0000 0.16670  0.63760  0.83490  Biso   1.000  C
  C34      1.0000 0.83330  0.36240  0.16510  Biso   1.000  C
  H33      1.0000 0.20160  0.60480  0.78290  Biso   1.000  H
  H34      1.0000 0.79840  0.39520  0.21710  Biso   1.000  H
  O7       1.0000 0.49280  0.74740  0.15830  Biso   1.000  O
  O8       1.0000 0.50720  0.25260  0.84170  Biso   1.000  O
  O9       1.0000 0.38260  0.60300  0.16250  Biso   1.000  O
  O10      1.0000 0.61740  0.39700  0.83750  Biso   1.000  O
  O11      1.0000 0.26210  0.69620  0.28880  Biso   1.000  O
  O12      1.0000 0.73790  0.30380  0.71120  Biso   1.000  O
  S3       1.0000 0.41930  0.66630  0.21680  Biso   1.000  S
  S4       1.0000 0.58070  0.33370  0.78320  Biso   1.000  S
  C35      1.0000 0.60510  0.59900  0.27730  Biso   1.000  C
  C36      1.0000 0.39490  0.40100  0.72270  Biso   1.000  C
  C37      1.0000 0.56740  0.52960  0.35080  Biso   1.000  C
  C38      1.0000 0.43260  0.47040  0.64920  Biso   1.000  C
  H35      1.0000 0.44190  0.51890  0.37140  Biso   1.000  H
  H36      1.0000 0.55810  0.48110  0.62860  Biso   1.000  H
  C39      1.0000 0.71510  0.47510  0.39500  Biso   1.000  C
  C40      1.0000 0.28490  0.52490  0.60500  Biso   1.000  C
  H37      1.0000 0.68950  0.42680  0.44610  Biso   1.000  H
  H38      1.0000 0.31050  0.57320  0.55390  Biso   1.000  H
  C41      1.0000 0.89670  0.48960  0.36640  Biso   1.000  C
  C42      1.0000 0.10330  0.51040  0.63360  Biso   1.000  C
  H39      1.0000 0.99590  0.45100  0.39730  Biso   1.000  H
  H40      1.0000 0.00410  0.54900  0.60270  Biso   1.000  H
  C43      1.0000 0.93590  0.55950  0.29350  Biso   1.000  C
  C44      1.0000 0.06410  0.44050  0.70650  Biso   1.000  C
  H41      1.0000 0.06170  0.57010  0.27360  Biso   1.000  H
  H42      1.0000 0.93830  0.42990  0.72640  Biso   1.000  H
  C45      1.0000 0.78780  0.61500  0.24870  Biso   1.000  C
  C46      1.0000 0.21220  0.38500  0.75130  Biso   1.000  C
  H43      1.0000 0.81290  0.66400  0.19830  Biso   1.000  H
  H44      1.0000 0.18710  0.33600  0.80170  Biso   1.000  H
  O13      1.0000 0.18550  0.02470  0.77920  Biso   1.000  O
  O14      1.0000 0.81450  0.97530  0.22080  Biso   1.000  O
  O15      1.0000 0.10910  0.09690  0.72650  Biso   1.000  O
  O16      1.0000 0.89090  0.90310  0.27350  Biso   1.000  O
  O17      1.0000 0.17570  0.03120  0.96490  Biso   1.000  O
  O18      1.0000 0.82430  0.96880  0.03510  Biso   1.000  O
  O19      1.0000 0.00000  0.00000  0.00000  Biso   1.000  O
