data_image0
_cell_length_a       7.5384
_cell_length_b       7.9078
_cell_length_c       9.0804
_cell_angle_alpha    107.44
_cell_angle_beta     108.84
_cell_angle_gamma    98.89

_symmetry_space_group_name_H-M    "P 1"
_symmetry_int_tables_number       1

loop_
  _symmetry_equiv_pos_as_xyz
  'x, y, z'

loop_
  _atom_site_label
  _atom_site_occupancy
  _atom_site_fract_x
  _atom_site_fract_y
  _atom_site_fract_z
  _atom_site_thermal_displace_type
  _atom_site_B_iso_or_equiv
  _atom_site_type_symbol
  C1       1.0000 0.22740  0.59310  0.70800  Biso   1.000  C
  C2       1.0000 0.77260  0.40690  0.29200  Biso   1.000  C
  C3       1.0000 0.25160  0.58280  0.54790  Biso   1.000  C
  C4       1.0000 0.74840  0.41720  0.45210  Biso   1.000  C
  C5       1.0000 0.30550  0.69190  0.37560  Biso   1.000  C
  C6       1.0000 0.69450  0.30810  0.62440  Biso   1.000  C
  H1       1.0000 0.33020  0.76960  0.32100  Biso   1.000  H
  H2       1.0000 0.66980  0.23040  0.67900  Biso   1.000  H
  C7       1.0000 0.29070  0.39350  0.16410  Biso   1.000  C
  C8       1.0000 0.70930  0.60650  0.83590  Biso   1.000  C
  H3       1.0000 0.36940  0.31110  0.18700  Biso   1.000  H
  H4       1.0000 0.63060  0.68890  0.81300  Biso   1.000  H
  H5       1.0000 0.35110  0.47000  0.11780  Biso   1.000  H
  H6       1.0000 0.64890  0.53000  0.88220  Biso   1.000  H
  C9       1.0000 0.08870  0.28170  0.03800  Biso   1.000  C
  C10      1.0000 0.91130  0.71830  0.96200  Biso   1.000  C
  H7       1.0000 0.01600  0.36440  0.00500  Biso   1.000  H
  H8       1.0000 0.98400  0.63560  0.99500  Biso   1.000  H
  H9       1.0000 0.02250  0.21920  0.09060  Biso   1.000  H
  H10      1.0000 0.97750  0.78080  0.90940  Biso   1.000  H
  C11      1.0000 0.08770  0.14000  0.88310  Biso   1.000  C
  C12      1.0000 0.91230  0.86000  0.11690  Biso   1.000  C
  Cu1      1.0000 0.27838  0.95167  0.70099  Biso   1.000  Cu
  Cu2      1.0000 0.72162  0.04833  0.29901  Biso   1.000  Cu
  H11      1.0000 0.69700  0.04300  0.82000  Biso   1.000  H
  H12      1.0000 0.30300  0.95700  0.18000  Biso   1.000  H
  H13      1.0000 0.23000  0.21000  0.61300  Biso   1.000  H
  H14      1.0000 0.77000  0.79000  0.38700  Biso   1.000  H
  H15      1.0000 0.63400  0.11900  0.93100  Biso   1.000  H
  H16      1.0000 0.36600  0.88100  0.06900  Biso   1.000  H
  H17      1.0000 0.18100  0.07700  0.47700  Biso   1.000  H
  H18      1.0000 0.81900  0.92300  0.52300  Biso   1.000  H
  N1       1.0000 0.28480  0.74290  0.52050  Biso   1.000  N
  N2       1.0000 0.71520  0.25710  0.47950  Biso   1.000  N
  N3       1.0000 0.28510  0.51080  0.32060  Biso   1.000  N
  N4       1.0000 0.71490  0.48920  0.67940  Biso   1.000  N
  N5       1.0000 0.25030  0.43820  0.42950  Biso   1.000  N
  N6       1.0000 0.74970  0.56180  0.57050  Biso   1.000  N
  O1       1.0000 0.25210  0.12930  0.88270  Biso   1.000  O
  O2       1.0000 0.74790  0.87070  0.11730  Biso   1.000  O
  O3       1.0000 0.92690  0.04150  0.76890  Biso   1.000  O
  O4       1.0000 0.07310  0.95850  0.23110  Biso   1.000  O
  O5       1.0000 0.19810  0.45490  0.74090  Biso   1.000  O
  O6       1.0000 0.80190  0.54510  0.25910  Biso   1.000  O
  O7       1.0000 0.24650  0.75840  0.79960  Biso   1.000  O
  O8       1.0000 0.75350  0.24160  0.20040  Biso   1.000  O
  O9       1.0000 0.60060  0.07350  0.84290  Biso   1.000  O
  O10      1.0000 0.39940  0.92650  0.15710  Biso   1.000  O
  O11      1.0000 0.24450  0.11570  0.57380  Biso   1.000  O
  O12      1.0000 0.75550  0.88430  0.42620  Biso   1.000  O
