data_image0
_cell_length_a       30.3812
_cell_length_b       5.0478
_cell_length_c       16.3401
_cell_angle_alpha    90
_cell_angle_beta     108.268
_cell_angle_gamma    90

_symmetry_space_group_name_H-M    "P 1"
_symmetry_int_tables_number       1

loop_
  _symmetry_equiv_pos_as_xyz
  'x, y, z'

loop_
  _atom_site_label
  _atom_site_occupancy
  _atom_site_fract_x
  _atom_site_fract_y
  _atom_site_fract_z
  _atom_site_thermal_displace_type
  _atom_site_B_iso_or_equiv
  _atom_site_type_symbol
  Hg1      1.0000 0.00000  0.93486  0.25000  Biso   1.000  Hg
  Hg2      1.0000 0.50000  0.43486  0.25000  Biso   1.000  Hg
  Hg3      1.0000 0.00000  0.06514  0.75000  Biso   1.000  Hg
  Hg4      1.0000 0.50000  0.56514  0.75000  Biso   1.000  Hg
  I1       1.0000 0.05315  0.09397  0.40414  Biso   1.000  I
  I2       1.0000 0.55315  0.59397  0.40414  Biso   1.000  I
  I3       1.0000 0.94685  0.09397  0.09586  Biso   1.000  I
  I4       1.0000 0.44685  0.59397  0.09586  Biso   1.000  I
  I5       1.0000 0.94685  0.90603  0.59586  Biso   1.000  I
  I6       1.0000 0.44685  0.40603  0.59586  Biso   1.000  I
  I7       1.0000 0.05315  0.90603  0.90414  Biso   1.000  I
  I8       1.0000 0.55315  0.40603  0.90414  Biso   1.000  I
  Cu1      1.0000 0.25000  0.75000  0.00000  Biso   1.000  Cu
  Cu2      1.0000 0.75000  0.25000  0.00000  Biso   1.000  Cu
  Cu3      1.0000 0.75000  0.75000  0.50000  Biso   1.000  Cu
  Cu4      1.0000 0.25000  0.25000  0.50000  Biso   1.000  Cu
  C1       1.0000 0.18670  0.11650  0.01960  Biso   1.000  C
  C2       1.0000 0.68670  0.61650  0.01960  Biso   1.000  C
  C3       1.0000 0.81330  0.11650  0.48040  Biso   1.000  C
  C4       1.0000 0.31330  0.61650  0.48040  Biso   1.000  C
  C5       1.0000 0.81330  0.88350  0.98040  Biso   1.000  C
  C6       1.0000 0.31330  0.38350  0.98040  Biso   1.000  C
  C7       1.0000 0.18670  0.88350  0.51960  Biso   1.000  C
  C8       1.0000 0.68670  0.38350  0.51960  Biso   1.000  C
  C9       1.0000 0.15560  0.25420  0.04760  Biso   1.000  C
  C10      1.0000 0.65560  0.75420  0.04760  Biso   1.000  C
  C11      1.0000 0.84440  0.25420  0.45240  Biso   1.000  C
  C12      1.0000 0.34440  0.75420  0.45240  Biso   1.000  C
  C13      1.0000 0.84440  0.74580  0.95240  Biso   1.000  C
  C14      1.0000 0.34440  0.24580  0.95240  Biso   1.000  C
  C15      1.0000 0.15560  0.74580  0.54760  Biso   1.000  C
  C16      1.0000 0.65560  0.24580  0.54760  Biso   1.000  C
  H1       1.0000 0.13920  0.39930  0.01490  Biso   1.000  H
  H2       1.0000 0.63920  0.89930  0.01490  Biso   1.000  H
  H3       1.0000 0.86080  0.39930  0.48510  Biso   1.000  H
  H4       1.0000 0.36080  0.89930  0.48510  Biso   1.000  H
  H5       1.0000 0.86080  0.60070  0.98510  Biso   1.000  H
  H6       1.0000 0.36080  0.10070  0.98510  Biso   1.000  H
  H7       1.0000 0.13920  0.60070  0.51490  Biso   1.000  H
  H8       1.0000 0.63920  0.10070  0.51490  Biso   1.000  H
  C17      1.0000 0.14770  0.18220  0.12420  Biso   1.000  C
  C18      1.0000 0.64770  0.68220  0.12420  Biso   1.000  C
  C19      1.0000 0.85230  0.18220  0.37580  Biso   1.000  C
  C20      1.0000 0.35230  0.68220  0.37580  Biso   1.000  C
  C21      1.0000 0.85230  0.81780  0.87580  Biso   1.000  C
  C22      1.0000 0.35230  0.31780  0.87580  Biso   1.000  C
  C23      1.0000 0.14770  0.81780  0.62420  Biso   1.000  C
  C24      1.0000 0.64770  0.31780  0.62420  Biso   1.000  C
  C25      1.0000 0.17320  0.96930  0.16990  Biso   1.000  C
  C26      1.0000 0.67320  0.46930  0.16990  Biso   1.000  C
  C27      1.0000 0.82680  0.96930  0.33010  Biso   1.000  C
  C28      1.0000 0.32680  0.46930  0.33010  Biso   1.000  C
  C29      1.0000 0.82680  0.03070  0.83010  Biso   1.000  C
  C30      1.0000 0.32680  0.53070  0.83010  Biso   1.000  C
  C31      1.0000 0.17320  0.03070  0.66990  Biso   1.000  C
  C32      1.0000 0.67320  0.53070  0.66990  Biso   1.000  C
  H9       1.0000 0.16980  0.91670  0.22340  Biso   1.000  H
  H10      1.0000 0.66980  0.41670  0.22340  Biso   1.000  H
  H11      1.0000 0.83020  0.91670  0.27660  Biso   1.000  H
  H12      1.0000 0.33020  0.41670  0.27660  Biso   1.000  H
  H13      1.0000 0.83020  0.08330  0.77660  Biso   1.000  H
  H14      1.0000 0.33020  0.58330  0.77660  Biso   1.000  H
  H15      1.0000 0.16980  0.08330  0.72340  Biso   1.000  H
  H16      1.0000 0.66980  0.58330  0.72340  Biso   1.000  H
  C33      1.0000 0.20360  0.83520  0.13640  Biso   1.000  C
  C34      1.0000 0.70360  0.33520  0.13640  Biso   1.000  C
  C35      1.0000 0.79640  0.83520  0.36360  Biso   1.000  C
  C36      1.0000 0.29640  0.33520  0.36360  Biso   1.000  C
  C37      1.0000 0.79640  0.16480  0.86360  Biso   1.000  C
  C38      1.0000 0.29640  0.66480  0.86360  Biso   1.000  C
  C39      1.0000 0.20360  0.16480  0.63640  Biso   1.000  C
  C40      1.0000 0.70360  0.66480  0.63640  Biso   1.000  C
  H17      1.0000 0.22060  0.68940  0.16750  Biso   1.000  H
  H18      1.0000 0.72060  0.18940  0.16750  Biso   1.000  H
  H19      1.0000 0.77940  0.68940  0.33250  Biso   1.000  H
  H20      1.0000 0.27940  0.18940  0.33250  Biso   1.000  H
  H21      1.0000 0.77940  0.31060  0.83250  Biso   1.000  H
  H22      1.0000 0.27940  0.81060  0.83250  Biso   1.000  H
  H23      1.0000 0.22060  0.31060  0.66750  Biso   1.000  H
  H24      1.0000 0.72060  0.81060  0.66750  Biso   1.000  H
  C41      1.0000 0.19930  0.19590  0.94040  Biso   1.000  C
  C42      1.0000 0.69930  0.69590  0.94040  Biso   1.000  C
  C43      1.0000 0.80070  0.19590  0.55960  Biso   1.000  C
  C44      1.0000 0.30070  0.69590  0.55960  Biso   1.000  C
  C45      1.0000 0.80070  0.80410  0.05960  Biso   1.000  C
  C46      1.0000 0.30070  0.30410  0.05960  Biso   1.000  C
  C47      1.0000 0.19930  0.80410  0.44040  Biso   1.000  C
  C48      1.0000 0.69930  0.30410  0.44040  Biso   1.000  C
  C49      1.0000 0.04470  0.59430  0.12360  Biso   1.000  C
  C50      1.0000 0.54470  0.09430  0.12360  Biso   1.000  C
  C51      1.0000 0.95530  0.59430  0.37640  Biso   1.000  C
  C52      1.0000 0.45530  0.09430  0.37640  Biso   1.000  C
  C53      1.0000 0.95530  0.40570  0.87640  Biso   1.000  C
  C54      1.0000 0.45530  0.90570  0.87640  Biso   1.000  C
  C55      1.0000 0.04470  0.40570  0.62360  Biso   1.000  C
  C56      1.0000 0.54470  0.90570  0.62360  Biso   1.000  C
  H25      1.0000 0.01780  0.66550  0.08250  Biso   1.000  H
  H26      1.0000 0.51780  0.16550  0.08250  Biso   1.000  H
  H27      1.0000 0.98220  0.66550  0.41750  Biso   1.000  H
  H28      1.0000 0.48220  0.16550  0.41750  Biso   1.000  H
  H29      1.0000 0.98220  0.33450  0.91750  Biso   1.000  H
  H30      1.0000 0.48220  0.83450  0.91750  Biso   1.000  H
  H31      1.0000 0.01780  0.33450  0.58250  Biso   1.000  H
  H32      1.0000 0.51780  0.83450  0.58250  Biso   1.000  H
  C57      1.0000 0.07430  0.44030  0.09470  Biso   1.000  C
  C58      1.0000 0.57430  0.94030  0.09470  Biso   1.000  C
  C59      1.0000 0.92570  0.44030  0.40530  Biso   1.000  C
  C60      1.0000 0.42570  0.94030  0.40530  Biso   1.000  C
  C61      1.0000 0.92570  0.55970  0.90530  Biso   1.000  C
  C62      1.0000 0.42570  0.05970  0.90530  Biso   1.000  C
  C63      1.0000 0.07430  0.55970  0.59470  Biso   1.000  C
  C64      1.0000 0.57430  0.05970  0.59470  Biso   1.000  C
  H33      1.0000 0.06790  0.40820  0.03480  Biso   1.000  H
  H34      1.0000 0.56790  0.90820  0.03480  Biso   1.000  H
  H35      1.0000 0.93210  0.40820  0.46520  Biso   1.000  H
  H36      1.0000 0.43210  0.90820  0.46520  Biso   1.000  H
  H37      1.0000 0.93210  0.59180  0.96520  Biso   1.000  H
  H38      1.0000 0.43210  0.09180  0.96520  Biso   1.000  H
  H39      1.0000 0.06790  0.59180  0.53480  Biso   1.000  H
  H40      1.0000 0.56790  0.09180  0.53480  Biso   1.000  H
  C65      1.0000 0.11400  0.33120  0.15450  Biso   1.000  C
  C66      1.0000 0.61400  0.83120  0.15450  Biso   1.000  C
  C67      1.0000 0.88600  0.33120  0.34550  Biso   1.000  C
  C68      1.0000 0.38600  0.83120  0.34550  Biso   1.000  C
  C69      1.0000 0.88600  0.66880  0.84550  Biso   1.000  C
  C70      1.0000 0.38600  0.16880  0.84550  Biso   1.000  C
  C71      1.0000 0.11400  0.66880  0.65450  Biso   1.000  C
  C72      1.0000 0.61400  0.16880  0.65450  Biso   1.000  C
  C73      1.0000 0.12110  0.38230  0.24120  Biso   1.000  C
  C74      1.0000 0.62110  0.88230  0.24120  Biso   1.000  C
  C75      1.0000 0.87890  0.38230  0.25880  Biso   1.000  C
  C76      1.0000 0.37890  0.88230  0.25880  Biso   1.000  C
  C77      1.0000 0.87890  0.61770  0.75880  Biso   1.000  C
  C78      1.0000 0.37890  0.11770  0.75880  Biso   1.000  C
  C79      1.0000 0.12110  0.61770  0.74120  Biso   1.000  C
  C80      1.0000 0.62110  0.11770  0.74120  Biso   1.000  C
  H41      1.0000 0.14700  0.30830  0.28400  Biso   1.000  H
  H42      1.0000 0.64700  0.80830  0.28400  Biso   1.000  H
  H43      1.0000 0.85300  0.30830  0.21600  Biso   1.000  H
  H44      1.0000 0.35300  0.80830  0.21600  Biso   1.000  H
  H45      1.0000 0.85300  0.69170  0.71600  Biso   1.000  H
  H46      1.0000 0.35300  0.19170  0.71600  Biso   1.000  H
  H47      1.0000 0.14700  0.69170  0.78400  Biso   1.000  H
  H48      1.0000 0.64700  0.19170  0.78400  Biso   1.000  H
  C81      1.0000 0.08990  0.54300  0.26430  Biso   1.000  C
  C82      1.0000 0.58990  0.04300  0.26430  Biso   1.000  C
  C83      1.0000 0.91010  0.54300  0.23570  Biso   1.000  C
  C84      1.0000 0.41010  0.04300  0.23570  Biso   1.000  C
  C85      1.0000 0.91010  0.45700  0.73570  Biso   1.000  C
  C86      1.0000 0.41010  0.95700  0.73570  Biso   1.000  C
  C87      1.0000 0.08990  0.45700  0.76430  Biso   1.000  C
  C88      1.0000 0.58990  0.95700  0.76430  Biso   1.000  C
  H49      1.0000 0.09550  0.58040  0.32370  Biso   1.000  H
  H50      1.0000 0.59550  0.08040  0.32370  Biso   1.000  H
  H51      1.0000 0.90450  0.58040  0.17630  Biso   1.000  H
  H52      1.0000 0.40450  0.08040  0.17630  Biso   1.000  H
  H53      1.0000 0.90450  0.41960  0.67630  Biso   1.000  H
  H54      1.0000 0.40450  0.91960  0.67630  Biso   1.000  H
  H55      1.0000 0.09550  0.41960  0.82370  Biso   1.000  H
  H56      1.0000 0.59550  0.91960  0.82370  Biso   1.000  H
  N1       1.0000 0.20974  0.90430  0.06170  Biso   1.000  N
  N2       1.0000 0.70974  0.40430  0.06170  Biso   1.000  N
  N3       1.0000 0.79026  0.90430  0.43830  Biso   1.000  N
  N4       1.0000 0.29026  0.40430  0.43830  Biso   1.000  N
  N5       1.0000 0.79026  0.09570  0.93830  Biso   1.000  N
  N6       1.0000 0.29026  0.59570  0.93830  Biso   1.000  N
  N7       1.0000 0.20974  0.09570  0.56170  Biso   1.000  N
  N8       1.0000 0.70974  0.59570  0.56170  Biso   1.000  N
  N9       1.0000 0.05232  0.64760  0.20730  Biso   1.000  N
  N10      1.0000 0.55232  0.14760  0.20730  Biso   1.000  N
  N11      1.0000 0.94768  0.64760  0.29270  Biso   1.000  N
  N12      1.0000 0.44768  0.14760  0.29270  Biso   1.000  N
  N13      1.0000 0.94768  0.35240  0.79270  Biso   1.000  N
  N14      1.0000 0.44768  0.85240  0.79270  Biso   1.000  N
  N15      1.0000 0.05232  0.35240  0.70730  Biso   1.000  N
  N16      1.0000 0.55232  0.85240  0.70730  Biso   1.000  N
  O1       1.0000 0.22538  0.02850  0.91710  Biso   1.000  O
  O2       1.0000 0.72538  0.52850  0.91710  Biso   1.000  O
  O3       1.0000 0.77462  0.02850  0.58290  Biso   1.000  O
  O4       1.0000 0.27462  0.52850  0.58290  Biso   1.000  O
  O5       1.0000 0.77462  0.97150  0.08290  Biso   1.000  O
  O6       1.0000 0.27462  0.47150  0.08290  Biso   1.000  O
  O7       1.0000 0.22538  0.97150  0.41710  Biso   1.000  O
  O8       1.0000 0.72538  0.47150  0.41710  Biso   1.000  O
  O9       1.0000 0.18639  0.40960  0.90670  Biso   1.000  O
  O10      1.0000 0.68639  0.90960  0.90670  Biso   1.000  O
  O11      1.0000 0.81361  0.40960  0.59330  Biso   1.000  O
  O12      1.0000 0.31361  0.90960  0.59330  Biso   1.000  O
  O13      1.0000 0.81361  0.59040  0.09330  Biso   1.000  O
  O14      1.0000 0.31361  0.09040  0.09330  Biso   1.000  O
  O15      1.0000 0.18639  0.59040  0.40670  Biso   1.000  O
  O16      1.0000 0.68639  0.09040  0.40670  Biso   1.000  O
