data_image0
_cell_length_a       7.8409
_cell_length_b       21.4009
_cell_length_c       13.1791
_cell_angle_alpha    90
_cell_angle_beta     97.195
_cell_angle_gamma    90

_symmetry_space_group_name_H-M    "P 1"
_symmetry_int_tables_number       1

loop_
  _symmetry_equiv_pos_as_xyz
  'x, y, z'

loop_
  _atom_site_label
  _atom_site_occupancy
  _atom_site_fract_x
  _atom_site_fract_y
  _atom_site_fract_z
  _atom_site_thermal_displace_type
  _atom_site_B_iso_or_equiv
  _atom_site_type_symbol
  Cu1      1.0000 0.56712  0.09899  0.66860  Biso   1.000  Cu
  Cu2      1.0000 0.93288  0.59899  0.83140  Biso   1.000  Cu
  Cu3      1.0000 0.43288  0.90101  0.33140  Biso   1.000  Cu
  Cu4      1.0000 0.06712  0.40101  0.16860  Biso   1.000  Cu
  C1       1.0000 0.24110  0.21107  0.79690  Biso   1.000  C
  C2       1.0000 0.25890  0.71107  0.70310  Biso   1.000  C
  C3       1.0000 0.75890  0.78893  0.20310  Biso   1.000  C
  C4       1.0000 0.74110  0.28893  0.29690  Biso   1.000  C
  C5       1.0000 0.27500  0.25289  0.87780  Biso   1.000  C
  C6       1.0000 0.22500  0.75289  0.62220  Biso   1.000  C
  C7       1.0000 0.72500  0.74711  0.12220  Biso   1.000  C
  C8       1.0000 0.77500  0.24711  0.37780  Biso   1.000  C
  H1       1.0000 0.38780  0.25950  0.90690  Biso   1.000  H
  H2       1.0000 0.11220  0.75950  0.59310  Biso   1.000  H
  H3       1.0000 0.61220  0.74050  0.09310  Biso   1.000  H
  H4       1.0000 0.88780  0.24050  0.40690  Biso   1.000  H
  C9       1.0000 0.14380  0.28457  0.91510  Biso   1.000  C
  C10      1.0000 0.35620  0.78457  0.58490  Biso   1.000  C
  C11      1.0000 0.85620  0.71543  0.08490  Biso   1.000  C
  C12      1.0000 0.64380  0.21543  0.41510  Biso   1.000  C
  C13      1.0000 0.97520  0.27449  0.87240  Biso   1.000  C
  C14      1.0000 0.52480  0.77449  0.62760  Biso   1.000  C
  C15      1.0000 0.02480  0.72551  0.12760  Biso   1.000  C
  C16      1.0000 0.47520  0.22551  0.37240  Biso   1.000  C
  H5       1.0000 0.88580  0.29510  0.89870  Biso   1.000  H
  H6       1.0000 0.61420  0.79510  0.60130  Biso   1.000  H
  H7       1.0000 0.11420  0.70490  0.10130  Biso   1.000  H
  H8       1.0000 0.38580  0.20490  0.39870  Biso   1.000  H
  C17      1.0000 0.93950  0.23360  0.79030  Biso   1.000  C
  C18      1.0000 0.56050  0.73360  0.70970  Biso   1.000  C
  C19      1.0000 0.06050  0.76640  0.20970  Biso   1.000  C
  C20      1.0000 0.43950  0.26640  0.29030  Biso   1.000  C
  H9       1.0000 0.82670  0.22740  0.76080  Biso   1.000  H
  H10      1.0000 0.67330  0.72740  0.73920  Biso   1.000  H
  H11      1.0000 0.17330  0.77260  0.23920  Biso   1.000  H
  H12      1.0000 0.32670  0.27260  0.26080  Biso   1.000  H
  C21      1.0000 0.07200  0.20242  0.75310  Biso   1.000  C
  C22      1.0000 0.42800  0.70242  0.74690  Biso   1.000  C
  C23      1.0000 0.92800  0.79758  0.24690  Biso   1.000  C
  C24      1.0000 0.57200  0.29758  0.25310  Biso   1.000  C
  H13      1.0000 0.04830  0.17530  0.69810  Biso   1.000  H
  H14      1.0000 0.45170  0.67530  0.80190  Biso   1.000  H
  H15      1.0000 0.95170  0.82470  0.30190  Biso   1.000  H
  H16      1.0000 0.54830  0.32470  0.19810  Biso   1.000  H
  C25      1.0000 0.38380  0.17441  0.75990  Biso   1.000  C
  C26      1.0000 0.11620  0.67441  0.74010  Biso   1.000  C
  C27      1.0000 0.61620  0.82559  0.24010  Biso   1.000  C
  C28      1.0000 0.88380  0.32559  0.25990  Biso   1.000  C
  C29      1.0000 0.18540  0.32871  0.00330  Biso   1.000  C
  C30      1.0000 0.31460  0.82871  0.49670  Biso   1.000  C
  C31      1.0000 0.81460  0.67129  0.99670  Biso   1.000  C
  C32      1.0000 0.68540  0.17129  0.50330  Biso   1.000  C
  C33      1.0000 0.46640  0.97458  0.72900  Biso   1.000  C
  C34      1.0000 0.03360  0.47458  0.77100  Biso   1.000  C
  C35      1.0000 0.53360  0.02542  0.27100  Biso   1.000  C
  C36      1.0000 0.96640  0.52542  0.22900  Biso   1.000  C
  C37      1.0000 0.58740  0.92026  0.87810  Biso   1.000  C
  C38      1.0000 0.91260  0.42026  0.62190  Biso   1.000  C
  C39      1.0000 0.41260  0.07974  0.12190  Biso   1.000  C
  C40      1.0000 0.08740  0.57974  0.37810  Biso   1.000  C
  N1       1.0000 0.66160  0.97193  0.91540  Biso   1.000  N
  N2       1.0000 0.83840  0.47193  0.58460  Biso   1.000  N
  N3       1.0000 0.33840  0.02807  0.08460  Biso   1.000  N
  N4       1.0000 0.16160  0.52807  0.41540  Biso   1.000  N
  C41      1.0000 0.63750  0.02455  0.86070  Biso   1.000  C
  C42      1.0000 0.86250  0.52455  0.63930  Biso   1.000  C
  C43      1.0000 0.36250  0.97545  0.13930  Biso   1.000  C
  C44      1.0000 0.13750  0.47545  0.36070  Biso   1.000  C
  C45      1.0000 0.61670  0.86230  0.93900  Biso   1.000  C
  C46      1.0000 0.88330  0.36230  0.56100  Biso   1.000  C
  C47      1.0000 0.38330  0.13770  0.06100  Biso   1.000  C
  C48      1.0000 0.11670  0.63770  0.43900  Biso   1.000  C
  H17      1.0000 0.70220  0.86990  0.99650  Biso   1.000  H
  H18      1.0000 0.79780  0.36990  0.50350  Biso   1.000  H
  H19      1.0000 0.29780  0.13010  0.00350  Biso   1.000  H
  H20      1.0000 0.20220  0.63010  0.49650  Biso   1.000  H
  H21      1.0000 0.65570  0.82990  0.89710  Biso   1.000  H
  H22      1.0000 0.84430  0.32990  0.60290  Biso   1.000  H
  H23      1.0000 0.34430  0.17010  0.10290  Biso   1.000  H
  H24      1.0000 0.15570  0.67010  0.39710  Biso   1.000  H
  H25      1.0000 0.51130  0.84960  0.96290  Biso   1.000  H
  H26      1.0000 0.98870  0.34960  0.53710  Biso   1.000  H
  H27      1.0000 0.48870  0.15040  0.03710  Biso   1.000  H
  H28      1.0000 0.01130  0.65040  0.46290  Biso   1.000  H
  N5       1.0000 0.70860  0.07697  0.89940  Biso   1.000  N
  N6       1.0000 0.79140  0.57697  0.60060  Biso   1.000  N
  N7       1.0000 0.29140  0.92303  0.10060  Biso   1.000  N
  N8       1.0000 0.20860  0.42303  0.39940  Biso   1.000  N
  H29      1.0000 0.76890  0.07670  0.95860  Biso   1.000  H
  H30      1.0000 0.73110  0.57670  0.54140  Biso   1.000  H
  H31      1.0000 0.23110  0.92330  0.04140  Biso   1.000  H
  H32      1.0000 0.26890  0.42330  0.45860  Biso   1.000  H
  H33      1.0000 0.69450  0.11120  0.86530  Biso   1.000  H
  H34      1.0000 0.80550  0.61120  0.63470  Biso   1.000  H
  H35      1.0000 0.30550  0.88880  0.13470  Biso   1.000  H
  H36      1.0000 0.19450  0.38880  0.36530  Biso   1.000  H
  C49      1.0000 0.93600  0.02829  0.16790  Biso   1.000  C
  C50      1.0000 0.56400  0.52829  0.33210  Biso   1.000  C
  C51      1.0000 0.06400  0.97171  0.83210  Biso   1.000  C
  C52      1.0000 0.43600  0.47171  0.66790  Biso   1.000  C
  C53      1.0000 0.06950  0.08408  0.30430  Biso   1.000  C
  C54      1.0000 0.43050  0.58408  0.19570  Biso   1.000  C
  C55      1.0000 0.93050  0.91592  0.69570  Biso   1.000  C
  C56      1.0000 0.56950  0.41592  0.80430  Biso   1.000  C
  C57      1.0000 0.03080  0.13806  0.25190  Biso   1.000  C
  C58      1.0000 0.46920  0.63806  0.24810  Biso   1.000  C
  C59      1.0000 0.96920  0.86194  0.74810  Biso   1.000  C
  C60      1.0000 0.53080  0.36194  0.75190  Biso   1.000  C
  H37      1.0000 0.06120  0.17660  0.28130  Biso   1.000  H
  H38      1.0000 0.43880  0.67660  0.21870  Biso   1.000  H
  H39      1.0000 0.93880  0.82340  0.71870  Biso   1.000  H
  H40      1.0000 0.56120  0.32340  0.78130  Biso   1.000  H
  C61      1.0000 0.94450  0.13412  0.15330  Biso   1.000  C
  C62      1.0000 0.55550  0.63412  0.34670  Biso   1.000  C
  C63      1.0000 0.05550  0.86588  0.84670  Biso   1.000  C
  C64      1.0000 0.44450  0.36588  0.65330  Biso   1.000  C
  C65      1.0000 0.89900  0.19170  0.09060  Biso   1.000  C
  C66      1.0000 0.60100  0.69170  0.40940  Biso   1.000  C
  C67      1.0000 0.10100  0.80830  0.90940  Biso   1.000  C
  C68      1.0000 0.39900  0.30830  0.59060  Biso   1.000  C
  H41      1.0000 0.94370  0.18810  0.02620  Biso   1.000  H
  H42      1.0000 0.55630  0.68810  0.47380  Biso   1.000  H
  H43      1.0000 0.05630  0.81190  0.97380  Biso   1.000  H
  H44      1.0000 0.44370  0.31190  0.52620  Biso   1.000  H
  H45      1.0000 0.94810  0.22770  0.12660  Biso   1.000  H
  H46      1.0000 0.55190  0.72770  0.37340  Biso   1.000  H
  H47      1.0000 0.05190  0.77230  0.87340  Biso   1.000  H
  H48      1.0000 0.44810  0.27230  0.62660  Biso   1.000  H
  H49      1.0000 0.77630  0.19600  0.07870  Biso   1.000  H
  H50      1.0000 0.72370  0.69600  0.42130  Biso   1.000  H
  H51      1.0000 0.22370  0.80400  0.92130  Biso   1.000  H
  H52      1.0000 0.27630  0.30400  0.57870  Biso   1.000  H
  C69      1.0000 0.16050  0.08330  0.41160  Biso   1.000  C
  C70      1.0000 0.33950  0.58330  0.08840  Biso   1.000  C
  C71      1.0000 0.83950  0.91670  0.58840  Biso   1.000  C
  C72      1.0000 0.66050  0.41670  0.91160  Biso   1.000  C
  H53      1.0000 0.11470  0.05040  0.44950  Biso   1.000  H
  H54      1.0000 0.38530  0.55040  0.05050  Biso   1.000  H
  H55      1.0000 0.88530  0.94960  0.55050  Biso   1.000  H
  H56      1.0000 0.61470  0.44960  0.94950  Biso   1.000  H
  H57      1.0000 0.14390  0.12270  0.44390  Biso   1.000  H
  H58      1.0000 0.35610  0.62270  0.05610  Biso   1.000  H
  H59      1.0000 0.85610  0.87730  0.55610  Biso   1.000  H
  H60      1.0000 0.64390  0.37730  0.94390  Biso   1.000  H
  H61      1.0000 0.28110  0.07640  0.40990  Biso   1.000  H
  H62      1.0000 0.21890  0.57640  0.09010  Biso   1.000  H
  H63      1.0000 0.71890  0.92360  0.59010  Biso   1.000  H
  H64      1.0000 0.78110  0.42360  0.90990  Biso   1.000  H
  N9       1.0000 0.54850  0.02706  0.76478  Biso   1.000  N
  N10      1.0000 0.95150  0.52706  0.73522  Biso   1.000  N
  N11      1.0000 0.45150  0.97294  0.23522  Biso   1.000  N
  N12      1.0000 0.04850  0.47294  0.26478  Biso   1.000  N
  C73      1.0000 0.48130  0.92061  0.78390  Biso   1.000  C
  C74      1.0000 0.01870  0.42061  0.71610  Biso   1.000  C
  C75      1.0000 0.51870  0.07939  0.21610  Biso   1.000  C
  C76      1.0000 0.98130  0.57939  0.28390  Biso   1.000  C
  H65      1.0000 0.42270  0.88480  0.75970  Biso   1.000  H
  H66      1.0000 0.07730  0.38480  0.74030  Biso   1.000  H
  H67      1.0000 0.57730  0.11520  0.24030  Biso   1.000  H
  H68      1.0000 0.92270  0.61520  0.25970  Biso   1.000  H
  C77      1.0000 0.36090  0.97980  0.62670  Biso   1.000  C
  C78      1.0000 0.13910  0.47980  0.87330  Biso   1.000  C
  C79      1.0000 0.63910  0.02020  0.37330  Biso   1.000  C
  C80      1.0000 0.86090  0.52020  0.12670  Biso   1.000  C
  H69      1.0000 0.27870  0.01290  0.62810  Biso   1.000  H
  H70      1.0000 0.22130  0.51290  0.87190  Biso   1.000  H
  H71      1.0000 0.72130  0.98710  0.37190  Biso   1.000  H
  H72      1.0000 0.77870  0.48710  0.12810  Biso   1.000  H
  H73      1.0000 0.30150  0.94110  0.61060  Biso   1.000  H
  H74      1.0000 0.19850  0.44110  0.88940  Biso   1.000  H
  H75      1.0000 0.69850  0.05890  0.38940  Biso   1.000  H
  H76      1.0000 0.80150  0.55890  0.11060  Biso   1.000  H
  H77      1.0000 0.43470  0.98860  0.57560  Biso   1.000  H
  H78      1.0000 0.06530  0.48860  0.92440  Biso   1.000  H
  H79      1.0000 0.56530  0.01140  0.42440  Biso   1.000  H
  H80      1.0000 0.93470  0.51140  0.07560  Biso   1.000  H
  N13      1.0000 0.89730  0.07929  0.11140  Biso   1.000  N
  N14      1.0000 0.60270  0.57929  0.38860  Biso   1.000  N
  N15      1.0000 0.10270  0.92071  0.88860  Biso   1.000  N
  N16      1.0000 0.39730  0.42071  0.61140  Biso   1.000  N
  N17      1.0000 0.02540  0.02806  0.26350  Biso   1.000  N
  N18      1.0000 0.47460  0.52806  0.23650  Biso   1.000  N
  N19      1.0000 0.97460  0.97194  0.73650  Biso   1.000  N
  N20      1.0000 0.52540  0.47194  0.76350  Biso   1.000  N
  N21      1.0000 0.88440  0.97305  0.12790  Biso   1.000  N
  N22      1.0000 0.61560  0.47305  0.37210  Biso   1.000  N
  N23      1.0000 0.11560  0.02695  0.87210  Biso   1.000  N
  N24      1.0000 0.38440  0.52695  0.62790  Biso   1.000  N
  H81      1.0000 0.82820  0.97120  0.06760  Biso   1.000  H
  H82      1.0000 0.67180  0.47120  0.43240  Biso   1.000  H
  H83      1.0000 0.17180  0.02880  0.93240  Biso   1.000  H
  H84      1.0000 0.32820  0.52880  0.56760  Biso   1.000  H
  H85      1.0000 0.90740  0.93940  0.16240  Biso   1.000  H
  H86      1.0000 0.59260  0.43940  0.33760  Biso   1.000  H
  H87      1.0000 0.09260  0.06060  0.83760  Biso   1.000  H
  H88      1.0000 0.40740  0.56060  0.66240  Biso   1.000  H
  O1       1.0000 0.34480  0.13265  0.69321  Biso   1.000  O
  O2       1.0000 0.15520  0.63265  0.80679  Biso   1.000  O
  O3       1.0000 0.65520  0.86735  0.30679  Biso   1.000  O
  O4       1.0000 0.84480  0.36735  0.19321  Biso   1.000  O
  O5       1.0000 0.53720  0.18595  0.79530  Biso   1.000  O
  O6       1.0000 0.96280  0.68595  0.70470  Biso   1.000  O
  O7       1.0000 0.46280  0.81405  0.20470  Biso   1.000  O
  O8       1.0000 0.03720  0.31405  0.29530  Biso   1.000  O
  O9       1.0000 0.33900  0.34437  0.02660  Biso   1.000  O
  O10      1.0000 0.16100  0.84437  0.47340  Biso   1.000  O
  O11      1.0000 0.66100  0.65563  0.97340  Biso   1.000  O
  O12      1.0000 0.83900  0.15563  0.52660  Biso   1.000  O
  O13      1.0000 0.05990  0.34829  0.04698  Biso   1.000  O
  O14      1.0000 0.44010  0.84829  0.45302  Biso   1.000  O
  O15      1.0000 0.94010  0.65171  0.95302  Biso   1.000  O
  O16      1.0000 0.55990  0.15171  0.54698  Biso   1.000  O
  O17      1.0000 0.80040  0.07415  0.65850  Biso   1.000  O
  O18      1.0000 0.69960  0.57415  0.84150  Biso   1.000  O
  O19      1.0000 0.19960  0.92585  0.34150  Biso   1.000  O
  O20      1.0000 0.30040  0.42585  0.15850  Biso   1.000  O
  H89      1.0000 0.88000  0.04800  0.66200  Biso   1.000  H
  H90      1.0000 0.62000  0.54800  0.83800  Biso   1.000  H
  H91      1.0000 0.12000  0.95200  0.33800  Biso   1.000  H
  H92      1.0000 0.38000  0.45200  0.16200  Biso   1.000  H
  H93      1.0000 0.84700  0.09100  0.61100  Biso   1.000  H
  H94      1.0000 0.65300  0.59100  0.88900  Biso   1.000  H
  H95      1.0000 0.15300  0.90900  0.38900  Biso   1.000  H
  H96      1.0000 0.34700  0.40900  0.11100  Biso   1.000  H
