data_image0
_cell_length_a       13.914
_cell_length_b       7.834
_cell_length_c       14.805
_cell_angle_alpha    90
_cell_angle_beta     96.61
_cell_angle_gamma    90

_symmetry_space_group_name_H-M    "P 1"
_symmetry_int_tables_number       1

loop_
  _symmetry_equiv_pos_as_xyz
  'x, y, z'

loop_
  _atom_site_label
  _atom_site_occupancy
  _atom_site_fract_x
  _atom_site_fract_y
  _atom_site_fract_z
  _atom_site_thermal_displace_type
  _atom_site_B_iso_or_equiv
  _atom_site_type_symbol
  Cu1      1.0000 0.50000  0.50000  0.00000  Biso   1.000  Cu
  Cu2      1.0000 0.00000  0.50000  0.50000  Biso   1.000  Cu
  O1       1.0000 0.36210  0.55020  0.98380  Biso   1.000  O
  O2       1.0000 0.86210  0.44980  0.48380  Biso   1.000  O
  O3       1.0000 0.63790  0.44980  0.01620  Biso   1.000  O
  O4       1.0000 0.13790  0.55020  0.51620  Biso   1.000  O
  S1       1.0000 0.31623  0.67646  0.91404  Biso   1.000  S
  S2       1.0000 0.81623  0.32354  0.41404  Biso   1.000  S
  S3       1.0000 0.68377  0.32354  0.08596  Biso   1.000  S
  S4       1.0000 0.18377  0.67646  0.58596  Biso   1.000  S
  C1       1.0000 0.20370  0.57810  0.87350  Biso   1.000  C
  C2       1.0000 0.70370  0.42190  0.37350  Biso   1.000  C
  C3       1.0000 0.79630  0.42190  0.12650  Biso   1.000  C
  C4       1.0000 0.29630  0.57810  0.62650  Biso   1.000  C
  H1       1.0000 0.16530  0.65930  0.83520  Biso   1.000  H
  H2       1.0000 0.66530  0.34070  0.33520  Biso   1.000  H
  H3       1.0000 0.83470  0.34070  0.16480  Biso   1.000  H
  H4       1.0000 0.33470  0.65930  0.66480  Biso   1.000  H
  H5       1.0000 0.21670  0.48170  0.83560  Biso   1.000  H
  H6       1.0000 0.71670  0.51830  0.33560  Biso   1.000  H
  H7       1.0000 0.78330  0.51830  0.16440  Biso   1.000  H
  H8       1.0000 0.28330  0.48170  0.66440  Biso   1.000  H
  C5       1.0000 0.31220  0.10890  0.06730  Biso   1.000  C
  C6       1.0000 0.81220  0.89110  0.56730  Biso   1.000  C
  C7       1.0000 0.68780  0.89110  0.93270  Biso   1.000  C
  C8       1.0000 0.18780  0.10890  0.43270  Biso   1.000  C
  H9       1.0000 0.27770  0.06310  0.11530  Biso   1.000  H
  H10      1.0000 0.77770  0.93690  0.61530  Biso   1.000  H
  H11      1.0000 0.72230  0.93690  0.88470  Biso   1.000  H
  H12      1.0000 0.22230  0.06310  0.38470  Biso   1.000  H
  H13      1.0000 0.26530  0.16730  0.02450  Biso   1.000  H
  H14      1.0000 0.76530  0.83270  0.52450  Biso   1.000  H
  H15      1.0000 0.73470  0.83270  0.97550  Biso   1.000  H
  H16      1.0000 0.23470  0.16730  0.47550  Biso   1.000  H
  C9       1.0000 0.35400  0.96160  0.01870  Biso   1.000  C
  C10      1.0000 0.85400  0.03840  0.51870  Biso   1.000  C
  C11      1.0000 0.64600  0.03840  0.98130  Biso   1.000  C
  C12      1.0000 0.14600  0.96160  0.48130  Biso   1.000  C
  H17      1.0000 0.38890  0.00440  0.97040  Biso   1.000  H
  H18      1.0000 0.88890  0.99560  0.47040  Biso   1.000  H
  H19      1.0000 0.61110  0.99560  0.02960  Biso   1.000  H
  H20      1.0000 0.11110  0.00440  0.52960  Biso   1.000  H
  H21      1.0000 0.39900  0.89810  0.06100  Biso   1.000  H
  H22      1.0000 0.89900  0.10190  0.56100  Biso   1.000  H
  H23      1.0000 0.60100  0.10190  0.93900  Biso   1.000  H
  H24      1.0000 0.10100  0.89810  0.43900  Biso   1.000  H
  C13      1.0000 0.14380  0.51600  0.94630  Biso   1.000  C
  C14      1.0000 0.64380  0.48400  0.44630  Biso   1.000  C
  C15      1.0000 0.85620  0.48400  0.05370  Biso   1.000  C
  C16      1.0000 0.35620  0.51600  0.55370  Biso   1.000  C
  H25      1.0000 0.18490  0.45360  0.99230  Biso   1.000  H
  H26      1.0000 0.68490  0.54640  0.49230  Biso   1.000  H
  H27      1.0000 0.81510  0.54640  0.00770  Biso   1.000  H
  H28      1.0000 0.31510  0.45360  0.50770  Biso   1.000  H
  H29      1.0000 0.11710  0.61330  0.97540  Biso   1.000  H
  H30      1.0000 0.61710  0.38670  0.47540  Biso   1.000  H
  H31      1.0000 0.88290  0.38670  0.02460  Biso   1.000  H
  H32      1.0000 0.38290  0.61330  0.52460  Biso   1.000  H
  C17      1.0000 0.06310  0.40260  0.90650  Biso   1.000  C
  C18      1.0000 0.56310  0.59740  0.40650  Biso   1.000  C
  C19      1.0000 0.93690  0.59740  0.09350  Biso   1.000  C
  C20      1.0000 0.43690  0.40260  0.59350  Biso   1.000  C
  H33      1.0000 0.01800  0.46810  0.86660  Biso   1.000  H
  H34      1.0000 0.51800  0.53190  0.36660  Biso   1.000  H
  H35      1.0000 0.98200  0.53190  0.13340  Biso   1.000  H
  H36      1.0000 0.48200  0.46810  0.63340  Biso   1.000  H
  H37      1.0000 0.03070  0.35500  0.95450  Biso   1.000  H
  H38      1.0000 0.53070  0.64500  0.45450  Biso   1.000  H
  H39      1.0000 0.96930  0.64500  0.04550  Biso   1.000  H
  H40      1.0000 0.46930  0.35500  0.54550  Biso   1.000  H
  H41      1.0000 0.08900  0.31210  0.87290  Biso   1.000  H
  H42      1.0000 0.58900  0.68790  0.37290  Biso   1.000  H
  H43      1.0000 0.91100  0.68790  0.12710  Biso   1.000  H
  H44      1.0000 0.41100  0.31210  0.62710  Biso   1.000  H
  S5       1.0000 0.39780  0.26151  0.11604  Biso   1.000  S
  S6       1.0000 0.89780  0.73849  0.61604  Biso   1.000  S
  S7       1.0000 0.60220  0.73849  0.88396  Biso   1.000  S
  S8       1.0000 0.10220  0.26151  0.38396  Biso   1.000  S
  O5       1.0000 0.47140  0.27570  0.04710  Biso   1.000  O
  O6       1.0000 0.97140  0.72430  0.54710  Biso   1.000  O
  O7       1.0000 0.52860  0.72430  0.95290  Biso   1.000  O
  O8       1.0000 0.02860  0.27570  0.45290  Biso   1.000  O
  C21      1.0000 0.46120  0.05220  0.36810  Biso   1.000  C
  C22      1.0000 0.96120  0.94780  0.86810  Biso   1.000  C
  C23      1.0000 0.53880  0.94780  0.63190  Biso   1.000  C
  C24      1.0000 0.03880  0.05220  0.13190  Biso   1.000  C
  H45      1.0000 0.46930  0.93260  0.35710  Biso   1.000  H
  H46      1.0000 0.96930  0.06740  0.85710  Biso   1.000  H
  H47      1.0000 0.53070  0.06740  0.64290  Biso   1.000  H
  H48      1.0000 0.03070  0.93260  0.14290  Biso   1.000  H
  H49      1.0000 0.42700  0.06700  0.42040  Biso   1.000  H
  H50      1.0000 0.92700  0.93300  0.92040  Biso   1.000  H
  H51      1.0000 0.57300  0.93300  0.57960  Biso   1.000  H
  H52      1.0000 0.07300  0.06700  0.07960  Biso   1.000  H
  H53      1.0000 0.52350  0.10570  0.37910  Biso   1.000  H
  H54      1.0000 0.02350  0.89430  0.87910  Biso   1.000  H
  H55      1.0000 0.47650  0.89430  0.62090  Biso   1.000  H
  H56      1.0000 0.97650  0.10570  0.12090  Biso   1.000  H
  C25      1.0000 0.40470  0.13210  0.28700  Biso   1.000  C
  C26      1.0000 0.90470  0.86790  0.78700  Biso   1.000  C
  C27      1.0000 0.59530  0.86790  0.71300  Biso   1.000  C
  C28      1.0000 0.09530  0.13210  0.21300  Biso   1.000  C
  H57      1.0000 0.34650  0.06590  0.27040  Biso   1.000  H
  H58      1.0000 0.84650  0.93410  0.77040  Biso   1.000  H
  H59      1.0000 0.65350  0.93410  0.72960  Biso   1.000  H
  H60      1.0000 0.15350  0.06590  0.22960  Biso   1.000  H
  H61      1.0000 0.38530  0.24620  0.30290  Biso   1.000  H
  H62      1.0000 0.88530  0.75380  0.80290  Biso   1.000  H
  H63      1.0000 0.61470  0.75380  0.69710  Biso   1.000  H
  H64      1.0000 0.11470  0.24620  0.19710  Biso   1.000  H
  C29      1.0000 0.46070  0.14250  0.20750  Biso   1.000  C
  C30      1.0000 0.96070  0.85750  0.70750  Biso   1.000  C
  C31      1.0000 0.53930  0.85750  0.79250  Biso   1.000  C
  C32      1.0000 0.03930  0.14250  0.29250  Biso   1.000  C
  H65      1.0000 0.47300  0.02810  0.18660  Biso   1.000  H
  H66      1.0000 0.97300  0.97190  0.68660  Biso   1.000  H
  H67      1.0000 0.52700  0.97190  0.81340  Biso   1.000  H
  H68      1.0000 0.02700  0.02810  0.31340  Biso   1.000  H
  H69      1.0000 0.52270  0.19630  0.22600  Biso   1.000  H
  H70      1.0000 0.02270  0.80370  0.72600  Biso   1.000  H
  H71      1.0000 0.47730  0.80370  0.77400  Biso   1.000  H
  H72      1.0000 0.97730  0.19630  0.27400  Biso   1.000  H
  C33      1.0000 0.27310  0.84650  0.97970  Biso   1.000  C
  C34      1.0000 0.77310  0.15350  0.47970  Biso   1.000  C
  C35      1.0000 0.72690  0.15350  0.02030  Biso   1.000  C
  C36      1.0000 0.22690  0.84650  0.52030  Biso   1.000  C
  H73      1.0000 0.22580  0.91310  0.94140  Biso   1.000  H
  H74      1.0000 0.72580  0.08690  0.44140  Biso   1.000  H
  H75      1.0000 0.77420  0.08690  0.05860  Biso   1.000  H
  H76      1.0000 0.27420  0.91310  0.55860  Biso   1.000  H
  H77      1.0000 0.24120  0.79860  0.02880  Biso   1.000  H
  H78      1.0000 0.74120  0.20140  0.52880  Biso   1.000  H
  H79      1.0000 0.75880  0.20140  0.97120  Biso   1.000  H
  H80      1.0000 0.25880  0.79860  0.47120  Biso   1.000  H
  O9       1.0000 0.50790  0.60900  0.15560  Biso   1.000  O
  O10      1.0000 0.00790  0.39100  0.65560  Biso   1.000  O
  O11      1.0000 0.49210  0.39100  0.84440  Biso   1.000  O
  O12      1.0000 0.99210  0.60900  0.34440  Biso   1.000  O
  H81      1.0000 0.55300  0.67600  0.17000  Biso   1.000  H
  H82      1.0000 0.05300  0.32400  0.67000  Biso   1.000  H
  H83      1.0000 0.44700  0.32400  0.83000  Biso   1.000  H
  H84      1.0000 0.94700  0.67600  0.33000  Biso   1.000  H
  H85      1.0000 0.45800  0.65300  0.17200  Biso   1.000  H
  H86      1.0000 0.95800  0.34700  0.67200  Biso   1.000  H
  H87      1.0000 0.54200  0.34700  0.82800  Biso   1.000  H
  H88      1.0000 0.04200  0.65300  0.32800  Biso   1.000  H
  Cl1      1.0000 0.75000  0.89760  0.25000  Biso   1.000  Cl
  Cl2      1.0000 0.25000  0.10240  0.75000  Biso   1.000  Cl
  O13      1.0000 0.66890  0.94000  0.29700  Biso   1.000  O
  O14      1.0000 0.16890  0.06000  0.79700  Biso   1.000  O
  O15      1.0000 0.33110  0.06000  0.70300  Biso   1.000  O
  O16      1.0000 0.83110  0.94000  0.20300  Biso   1.000  O
  O17      1.0000 0.81000  0.78300  0.30100  Biso   1.000  O
  O18      1.0000 0.31000  0.21700  0.80100  Biso   1.000  O
  O19      1.0000 0.19000  0.21700  0.69900  Biso   1.000  O
  O20      1.0000 0.69000  0.78300  0.19900  Biso   1.000  O
  O21      1.0000 0.79500  0.04700  0.23200  Biso   1.000  O
  O22      1.0000 0.29500  0.95300  0.73200  Biso   1.000  O
  O23      1.0000 0.20500  0.95300  0.76800  Biso   1.000  O
  O24      1.0000 0.70500  0.04700  0.26800  Biso   1.000  O
  O25      1.0000 0.71100  0.81500  0.16900  Biso   1.000  O
  O26      1.0000 0.21100  0.18500  0.66900  Biso   1.000  O
  O27      1.0000 0.28900  0.18500  0.83100  Biso   1.000  O
  O28      1.0000 0.78900  0.81500  0.33100  Biso   1.000  O
  Cl3      1.0000 0.75200  0.89700  0.25900  Biso   1.000  Cl
  Cl4      1.0000 0.25200  0.10300  0.75900  Biso   1.000  Cl
  Cl5      1.0000 0.24800  0.10300  0.74100  Biso   1.000  Cl
  Cl6      1.0000 0.74800  0.89700  0.24100  Biso   1.000  Cl
  O29      1.0000 0.75000  0.07500  0.25000  Biso   1.000  O
  O30      1.0000 0.25000  0.92500  0.75000  Biso   1.000  O
  O31      1.0000 0.72100  0.85200  0.34200  Biso   1.000  O
  O32      1.0000 0.22100  0.14800  0.84200  Biso   1.000  O
  O33      1.0000 0.27900  0.14800  0.65800  Biso   1.000  O
  O34      1.0000 0.77900  0.85200  0.15800  Biso   1.000  O
  O35      1.0000 0.84600  0.84300  0.25500  Biso   1.000  O
  O36      1.0000 0.34600  0.15700  0.75500  Biso   1.000  O
  O37      1.0000 0.15400  0.15700  0.74500  Biso   1.000  O
  O38      1.0000 0.65400  0.84300  0.24500  Biso   1.000  O
  O39      1.0000 0.69300  0.82600  0.18700  Biso   1.000  O
  O40      1.0000 0.19300  0.17400  0.68700  Biso   1.000  O
  O41      1.0000 0.30700  0.17400  0.81300  Biso   1.000  O
  O42      1.0000 0.80700  0.82600  0.31300  Biso   1.000  O
  Cl7      1.0000 0.25000  0.63400  0.25000  Biso   1.000  Cl
  Cl8      1.0000 0.75000  0.36600  0.75000  Biso   1.000  Cl
  O43      1.0000 0.19100  0.72400  0.30000  Biso   1.000  O
  O44      1.0000 0.69100  0.27600  0.80000  Biso   1.000  O
  O45      1.0000 0.80900  0.27600  0.70000  Biso   1.000  O
  O46      1.0000 0.30900  0.72400  0.20000  Biso   1.000  O
  O47      1.0000 0.19700  0.56300  0.17400  Biso   1.000  O
  O48      1.0000 0.69700  0.43700  0.67400  Biso   1.000  O
  O49      1.0000 0.80300  0.43700  0.82600  Biso   1.000  O
  O50      1.0000 0.30300  0.56300  0.32600  Biso   1.000  O
  O51      1.0000 0.32200  0.73400  0.22800  Biso   1.000  O
  O52      1.0000 0.82200  0.26600  0.72800  Biso   1.000  O
  O53      1.0000 0.67800  0.26600  0.77200  Biso   1.000  O
  O54      1.0000 0.17800  0.73400  0.27200  Biso   1.000  O
  O55      1.0000 0.28700  0.49900  0.30600  Biso   1.000  O
  O56      1.0000 0.78700  0.50100  0.80600  Biso   1.000  O
  O57      1.0000 0.71300  0.50100  0.69400  Biso   1.000  O
  O58      1.0000 0.21300  0.49900  0.19400  Biso   1.000  O
  Cl9      1.0000 0.26370  0.67000  0.24670  Biso   1.000  Cl
  Cl10     1.0000 0.76370  0.33000  0.74670  Biso   1.000  Cl
  Cl11     1.0000 0.73630  0.33000  0.75330  Biso   1.000  Cl
  Cl12     1.0000 0.23630  0.67000  0.25330  Biso   1.000  Cl
  O59      1.0000 0.16800  0.64200  0.20500  Biso   1.000  O
  O60      1.0000 0.66800  0.35800  0.70500  Biso   1.000  O
  O61      1.0000 0.83200  0.35800  0.79500  Biso   1.000  O
  O62      1.0000 0.33200  0.64200  0.29500  Biso   1.000  O
  O63      1.0000 0.31700  0.74100  0.18300  Biso   1.000  O
  O64      1.0000 0.81700  0.25900  0.68300  Biso   1.000  O
  O65      1.0000 0.68300  0.25900  0.81700  Biso   1.000  O
  O66      1.0000 0.18300  0.74100  0.31700  Biso   1.000  O
  O67      1.0000 0.25900  0.77600  0.32100  Biso   1.000  O
  O68      1.0000 0.75900  0.22400  0.82100  Biso   1.000  O
  O69      1.0000 0.74100  0.22400  0.67900  Biso   1.000  O
  O70      1.0000 0.24100  0.77600  0.17900  Biso   1.000  O
  O71      1.0000 0.30300  0.51400  0.27800  Biso   1.000  O
  O72      1.0000 0.80300  0.48600  0.77800  Biso   1.000  O
  O73      1.0000 0.69700  0.48600  0.72200  Biso   1.000  O
  O74      1.0000 0.19700  0.51400  0.22200  Biso   1.000  O
