data_image0
_cell_length_a       7.348
_cell_length_b       17.892
_cell_length_c       8.62
_cell_angle_alpha    90
_cell_angle_beta     113.06
_cell_angle_gamma    90

_symmetry_space_group_name_H-M    "P 1"
_symmetry_int_tables_number       1

loop_
  _symmetry_equiv_pos_as_xyz
  'x, y, z'

loop_
  _atom_site_label
  _atom_site_occupancy
  _atom_site_fract_x
  _atom_site_fract_y
  _atom_site_fract_z
  _atom_site_thermal_displace_type
  _atom_site_B_iso_or_equiv
  _atom_site_type_symbol
  Cu1      1.0000 0.50000  0.50000  0.50000  Biso   1.000  Cu
  Cu2      1.0000 0.50000  0.00000  0.00000  Biso   1.000  Cu
  S1       1.0000 0.18560  0.38086  0.36540  Biso   1.000  S
  S2       1.0000 0.18560  0.11914  0.86540  Biso   1.000  S
  S3       1.0000 0.81440  0.61914  0.63460  Biso   1.000  S
  S4       1.0000 0.81440  0.88086  0.13460  Biso   1.000  S
  S5       1.0000 0.57470  0.45240  0.19084  Biso   1.000  S
  S6       1.0000 0.57470  0.04760  0.69084  Biso   1.000  S
  S7       1.0000 0.42530  0.54760  0.80916  Biso   1.000  S
  S8       1.0000 0.42530  0.95240  0.30916  Biso   1.000  S
  O1       1.0000 0.27110  0.44380  0.49220  Biso   1.000  O
  O2       1.0000 0.27110  0.05620  0.99220  Biso   1.000  O
  O3       1.0000 0.72890  0.55620  0.50780  Biso   1.000  O
  O4       1.0000 0.72890  0.94380  0.00780  Biso   1.000  O
  O5       1.0000 0.55030  0.42920  0.35180  Biso   1.000  O
  O6       1.0000 0.55030  0.07080  0.85180  Biso   1.000  O
  O7       1.0000 0.44970  0.57080  0.64820  Biso   1.000  O
  O8       1.0000 0.44970  0.92920  0.14820  Biso   1.000  O
  Cl1      1.0000 0.15090  0.63867  0.20120  Biso   1.000  Cl
  Cl2      1.0000 0.15090  0.86133  0.70120  Biso   1.000  Cl
  Cl3      1.0000 0.84910  0.36133  0.79880  Biso   1.000  Cl
  Cl4      1.0000 0.84910  0.13867  0.29880  Biso   1.000  Cl
  C1       1.0000 0.92910  0.37840  0.33150  Biso   1.000  C
  C2       1.0000 0.92910  0.12160  0.83150  Biso   1.000  C
  C3       1.0000 0.07090  0.62160  0.66850  Biso   1.000  C
  C4       1.0000 0.07090  0.87840  0.16850  Biso   1.000  C
  H1       1.0000 0.86670  0.33440  0.26660  Biso   1.000  H
  H2       1.0000 0.86670  0.16560  0.76660  Biso   1.000  H
  H3       1.0000 0.13330  0.66560  0.73340  Biso   1.000  H
  H4       1.0000 0.13330  0.83440  0.23340  Biso   1.000  H
  H5       1.0000 0.91510  0.37630  0.43870  Biso   1.000  H
  H6       1.0000 0.91510  0.12370  0.93870  Biso   1.000  H
  H7       1.0000 0.08490  0.62370  0.56130  Biso   1.000  H
  H8       1.0000 0.08490  0.87630  0.06130  Biso   1.000  H
  C5       1.0000 0.48920  0.37270  0.05990  Biso   1.000  C
  C6       1.0000 0.48920  0.12730  0.55990  Biso   1.000  C
  C7       1.0000 0.51080  0.62730  0.94010  Biso   1.000  C
  C8       1.0000 0.51080  0.87270  0.44010  Biso   1.000  C
  H9       1.0000 0.34800  0.36930  0.02230  Biso   1.000  H
  H10      1.0000 0.34800  0.13070  0.52230  Biso   1.000  H
  H11      1.0000 0.65200  0.63070  0.97770  Biso   1.000  H
  H12      1.0000 0.65200  0.86930  0.47770  Biso   1.000  H
  H13      1.0000 0.52430  0.37710  0.96410  Biso   1.000  H
  H14      1.0000 0.52430  0.12290  0.46410  Biso   1.000  H
  H15      1.0000 0.47570  0.62290  0.03590  Biso   1.000  H
  H16      1.0000 0.47570  0.87710  0.53590  Biso   1.000  H
  H17      1.0000 0.54890  0.32860  0.12250  Biso   1.000  H
  H18      1.0000 0.54890  0.17140  0.62250  Biso   1.000  H
  H19      1.0000 0.45110  0.67140  0.87750  Biso   1.000  H
  H20      1.0000 0.45110  0.82860  0.37750  Biso   1.000  H
  C9       1.0000 0.25890  0.30010  0.48800  Biso   1.000  C
  C10      1.0000 0.25890  0.19990  0.98800  Biso   1.000  C
  C11      1.0000 0.74110  0.69990  0.51200  Biso   1.000  C
  C12      1.0000 0.74110  0.80010  0.01200  Biso   1.000  C
  H21      1.0000 0.40010  0.30010  0.54680  Biso   1.000  H
  H22      1.0000 0.40010  0.19990  0.04680  Biso   1.000  H
  H23      1.0000 0.59990  0.69990  0.45320  Biso   1.000  H
  H24      1.0000 0.59990  0.80010  0.95320  Biso   1.000  H
  H25      1.0000 0.21920  0.25690  0.41620  Biso   1.000  H
  H26      1.0000 0.21920  0.24310  0.91620  Biso   1.000  H
  H27      1.0000 0.78080  0.74310  0.58380  Biso   1.000  H
  H28      1.0000 0.78080  0.75690  0.08380  Biso   1.000  H
  H29      1.0000 0.19760  0.29880  0.56780  Biso   1.000  H
  H30      1.0000 0.19760  0.20120  0.06780  Biso   1.000  H
  H31      1.0000 0.80240  0.70120  0.43220  Biso   1.000  H
  H32      1.0000 0.80240  0.79880  0.93220  Biso   1.000  H
  H33      1.0000 0.14450  0.27040  0.47370  Biso   1.000  H
  H34      1.0000 0.14450  0.22960  0.97370  Biso   1.000  H
  H35      1.0000 0.85550  0.72960  0.52630  Biso   1.000  H
  H36      1.0000 0.85550  0.77040  0.02630  Biso   1.000  H
  H37      1.0000 0.32530  0.31360  0.60430  Biso   1.000  H
  H38      1.0000 0.32530  0.18640  0.10430  Biso   1.000  H
  H39      1.0000 0.67470  0.68640  0.39570  Biso   1.000  H
  H40      1.0000 0.67470  0.81360  0.89570  Biso   1.000  H
  H41      1.0000 0.34700  0.27170  0.45280  Biso   1.000  H
  H42      1.0000 0.34700  0.22830  0.95280  Biso   1.000  H
  H43      1.0000 0.65300  0.72830  0.54720  Biso   1.000  H
  H44      1.0000 0.65300  0.77170  0.04720  Biso   1.000  H
  C13      1.0000 0.83290  0.44810  0.23700  Biso   1.000  C
  C14      1.0000 0.83290  0.05190  0.73700  Biso   1.000  C
  C15      1.0000 0.16710  0.55190  0.76300  Biso   1.000  C
  C16      1.0000 0.16710  0.94810  0.26300  Biso   1.000  C
  H45      1.0000 0.85270  0.45010  0.13230  Biso   1.000  H
  H46      1.0000 0.85270  0.04990  0.63230  Biso   1.000  H
  H47      1.0000 0.14730  0.54990  0.86770  Biso   1.000  H
  H48      1.0000 0.14730  0.95010  0.36770  Biso   1.000  H
  H49      1.0000 0.89700  0.49140  0.30370  Biso   1.000  H
  H50      1.0000 0.89700  0.00860  0.80370  Biso   1.000  H
  H51      1.0000 0.10300  0.50860  0.69630  Biso   1.000  H
  H52      1.0000 0.10300  0.99140  0.19630  Biso   1.000  H
  O9       1.0000 0.27990  0.57690  0.23670  Biso   1.000  O
  O10      1.0000 0.27990  0.92310  0.73670  Biso   1.000  O
  O11      1.0000 0.72010  0.42310  0.76330  Biso   1.000  O
  O12      1.0000 0.72010  0.07690  0.26330  Biso   1.000  O
  O13      1.0000 0.08230  0.66140  0.03580  Biso   1.000  O
  O14      1.0000 0.08230  0.83860  0.53580  Biso   1.000  O
  O15      1.0000 0.91770  0.33860  0.96420  Biso   1.000  O
  O16      1.0000 0.91770  0.16140  0.46420  Biso   1.000  O
  O17      1.0000 0.98960  0.62420  0.24490  Biso   1.000  O
  O18      1.0000 0.98960  0.87580  0.74490  Biso   1.000  O
  O19      1.0000 0.01040  0.37580  0.75510  Biso   1.000  O
  O20      1.0000 0.01040  0.12420  0.25510  Biso   1.000  O
  O21      1.0000 0.24960  0.69670  0.30370  Biso   1.000  O
  O22      1.0000 0.24960  0.80330  0.80370  Biso   1.000  O
  O23      1.0000 0.75040  0.30330  0.69630  Biso   1.000  O
  O24      1.0000 0.75040  0.19670  0.19630  Biso   1.000  O
