data_image0
_cell_length_a       8.343
_cell_length_b       12.337
_cell_length_c       9.39
_cell_angle_alpha    90
_cell_angle_beta     97.35
_cell_angle_gamma    90

_symmetry_space_group_name_H-M    "P 1"
_symmetry_int_tables_number       1

loop_
  _symmetry_equiv_pos_as_xyz
  'x, y, z'

loop_
  _atom_site_label
  _atom_site_occupancy
  _atom_site_fract_x
  _atom_site_fract_y
  _atom_site_fract_z
  _atom_site_thermal_displace_type
  _atom_site_B_iso_or_equiv
  _atom_site_type_symbol
  Cu1      1.0000 0.00000  0.00000  0.00000  Biso   1.000  Cu
  Cu2      1.0000 0.50000  0.50000  0.00000  Biso   1.000  Cu
  Cl1      1.0000 0.23690  0.07720  0.32730  Biso   1.000  Cl
  Cl2      1.0000 0.73690  0.42280  0.32730  Biso   1.000  Cl
  Cl3      1.0000 0.76310  0.92280  0.67270  Biso   1.000  Cl
  Cl4      1.0000 0.26310  0.57720  0.67270  Biso   1.000  Cl
  S1       1.0000 0.23290  0.87560  0.83550  Biso   1.000  S
  S2       1.0000 0.73290  0.62440  0.83550  Biso   1.000  S
  S3       1.0000 0.76710  0.12440  0.16450  Biso   1.000  S
  S4       1.0000 0.26710  0.37560  0.16450  Biso   1.000  S
  S5       1.0000 0.40500  0.70970  0.13120  Biso   1.000  S
  S6       1.0000 0.90500  0.79030  0.13120  Biso   1.000  S
  S7       1.0000 0.59500  0.29030  0.86880  Biso   1.000  S
  S8       1.0000 0.09500  0.20970  0.86880  Biso   1.000  S
  O1       1.0000 0.18780  0.98320  0.89820  Biso   1.000  O
  O2       1.0000 0.68780  0.51680  0.89820  Biso   1.000  O
  O3       1.0000 0.81220  0.01680  0.10180  Biso   1.000  O
  O4       1.0000 0.31220  0.48320  0.10180  Biso   1.000  O
  O5       1.0000 0.54080  0.64330  0.08440  Biso   1.000  O
  O6       1.0000 0.04080  0.85670  0.08440  Biso   1.000  O
  O7       1.0000 0.45920  0.35670  0.91560  Biso   1.000  O
  O8       1.0000 0.95920  0.14330  0.91560  Biso   1.000  O
  O9       1.0000 0.18330  0.10250  0.18260  Biso   1.000  O
  O10      1.0000 0.68330  0.39750  0.18260  Biso   1.000  O
  O11      1.0000 0.81670  0.89750  0.81740  Biso   1.000  O
  O12      1.0000 0.31670  0.60250  0.81740  Biso   1.000  O
  O13      1.0000 0.32780  0.98150  0.33530  Biso   1.000  O
  O14      1.0000 0.82780  0.51850  0.33530  Biso   1.000  O
  O15      1.0000 0.67220  0.01850  0.66470  Biso   1.000  O
  O16      1.0000 0.17220  0.48150  0.66470  Biso   1.000  O
  O17      1.0000 0.09960  0.06060  0.39380  Biso   1.000  O
  O18      1.0000 0.59960  0.43940  0.39380  Biso   1.000  O
  O19      1.0000 0.90040  0.93940  0.60620  Biso   1.000  O
  O20      1.0000 0.40040  0.56060  0.60620  Biso   1.000  O
  O21      1.0000 0.33270  0.16110  0.39260  Biso   1.000  O
  O22      1.0000 0.83270  0.33890  0.39260  Biso   1.000  O
  O23      1.0000 0.66730  0.83890  0.60740  Biso   1.000  O
  O24      1.0000 0.16730  0.66110  0.60740  Biso   1.000  O
  C1       1.0000 0.28300  0.90750  0.66310  Biso   1.000  C
  C2       1.0000 0.78300  0.59250  0.66310  Biso   1.000  C
  C3       1.0000 0.71700  0.09250  0.33690  Biso   1.000  C
  C4       1.0000 0.21700  0.40750  0.33690  Biso   1.000  C
  H1       1.0000 0.18580  0.91760  0.59790  Biso   1.000  H
  H2       1.0000 0.68580  0.58240  0.59790  Biso   1.000  H
  H3       1.0000 0.81420  0.08240  0.40210  Biso   1.000  H
  H4       1.0000 0.31420  0.41760  0.40210  Biso   1.000  H
  H5       1.0000 0.34480  0.84930  0.62950  Biso   1.000  H
  H6       1.0000 0.84480  0.65070  0.62950  Biso   1.000  H
  H7       1.0000 0.65520  0.15070  0.37050  Biso   1.000  H
  H8       1.0000 0.15520  0.34930  0.37050  Biso   1.000  H
  H9       1.0000 0.34580  0.97290  0.66810  Biso   1.000  H
  H10      1.0000 0.84580  0.52710  0.66810  Biso   1.000  H
  H11      1.0000 0.65420  0.02710  0.33190  Biso   1.000  H
  H12      1.0000 0.15420  0.47290  0.33190  Biso   1.000  H
  C5       1.0000 0.43460  0.85600  0.92020  Biso   1.000  C
  C6       1.0000 0.93460  0.64400  0.92020  Biso   1.000  C
  C7       1.0000 0.56540  0.14400  0.07980  Biso   1.000  C
  C8       1.0000 0.06540  0.35600  0.07980  Biso   1.000  C
  H13      1.0000 0.47930  0.79270  0.87820  Biso   1.000  H
  H14      1.0000 0.97930  0.70730  0.87820  Biso   1.000  H
  H15      1.0000 0.52070  0.20730  0.12180  Biso   1.000  H
  H16      1.0000 0.02070  0.29270  0.12180  Biso   1.000  H
  H17      1.0000 0.49900  0.91800  0.89910  Biso   1.000  H
  H18      1.0000 0.99900  0.58200  0.89910  Biso   1.000  H
  H19      1.0000 0.50100  0.08200  0.10090  Biso   1.000  H
  H20      1.0000 0.00100  0.41800  0.10090  Biso   1.000  H
  C9       1.0000 0.45110  0.84140  0.07780  Biso   1.000  C
  C10      1.0000 0.95110  0.65860  0.07780  Biso   1.000  C
  C11      1.0000 0.54890  0.15860  0.92220  Biso   1.000  C
  C12      1.0000 0.04890  0.34140  0.92220  Biso   1.000  C
  H21      1.0000 0.38010  0.89230  0.11760  Biso   1.000  H
  H22      1.0000 0.88010  0.60770  0.11760  Biso   1.000  H
  H23      1.0000 0.61990  0.10770  0.88240  Biso   1.000  H
  H24      1.0000 0.11990  0.39230  0.88240  Biso   1.000  H
  H25      1.0000 0.56110  0.85860  0.11780  Biso   1.000  H
  H26      1.0000 0.06110  0.64140  0.11780  Biso   1.000  H
  H27      1.0000 0.43890  0.14140  0.88220  Biso   1.000  H
  H28      1.0000 0.93890  0.35860  0.88220  Biso   1.000  H
  C13      1.0000 0.45060  0.72400  0.31780  Biso   1.000  C
  C14      1.0000 0.95060  0.77600  0.31780  Biso   1.000  C
  C15      1.0000 0.54940  0.27600  0.68220  Biso   1.000  C
  C16      1.0000 0.04940  0.22400  0.68220  Biso   1.000  C
  H29      1.0000 0.55900  0.75050  0.34050  Biso   1.000  H
  H30      1.0000 0.05900  0.74950  0.34050  Biso   1.000  H
  H31      1.0000 0.44100  0.24950  0.65950  Biso   1.000  H
  H32      1.0000 0.94100  0.25050  0.65950  Biso   1.000  H
  H33      1.0000 0.37660  0.77430  0.35220  Biso   1.000  H
  H34      1.0000 0.87660  0.72570  0.35220  Biso   1.000  H
  H35      1.0000 0.62340  0.22570  0.64780  Biso   1.000  H
  H36      1.0000 0.12340  0.27430  0.64780  Biso   1.000  H
  H37      1.0000 0.44130  0.65490  0.36310  Biso   1.000  H
  H38      1.0000 0.94130  0.84510  0.36310  Biso   1.000  H
  H39      1.0000 0.55870  0.34510  0.63690  Biso   1.000  H
  H40      1.0000 0.05870  0.15490  0.63690  Biso   1.000  H
