data_image0
_cell_length_a       7.3798
_cell_length_b       12.714
_cell_length_c       15.7889
_cell_angle_alpha    90
_cell_angle_beta     102.53
_cell_angle_gamma    90

_symmetry_space_group_name_H-M    "P 1"
_symmetry_int_tables_number       1

loop_
  _symmetry_equiv_pos_as_xyz
  'x, y, z'

loop_
  _atom_site_label
  _atom_site_occupancy
  _atom_site_fract_x
  _atom_site_fract_y
  _atom_site_fract_z
  _atom_site_thermal_displace_type
  _atom_site_B_iso_or_equiv
  _atom_site_type_symbol
  Cu1      1.0000 0.10615  0.04478  0.25331  Biso   1.000  Cu
  Cu2      1.0000 0.10615  0.45522  0.75331  Biso   1.000  Cu
  Cu3      1.0000 0.89385  0.95522  0.74669  Biso   1.000  Cu
  Cu4      1.0000 0.89385  0.54478  0.24669  Biso   1.000  Cu
  N1       1.0000 0.24220  0.95250  0.34690  Biso   1.000  N
  N2       1.0000 0.24220  0.54750  0.84690  Biso   1.000  N
  N3       1.0000 0.75780  0.04750  0.65310  Biso   1.000  N
  N4       1.0000 0.75780  0.45250  0.15310  Biso   1.000  N
  N5       1.0000 0.07480  0.13270  0.35310  Biso   1.000  N
  N6       1.0000 0.07480  0.36730  0.85310  Biso   1.000  N
  N7       1.0000 0.92520  0.86730  0.64690  Biso   1.000  N
  N8       1.0000 0.92520  0.63270  0.14690  Biso   1.000  N
  O1       1.0000 0.21550  0.99040  0.16150  Biso   1.000  O
  O2       1.0000 0.21550  0.50960  0.66150  Biso   1.000  O
  O3       1.0000 0.78450  0.00960  0.83850  Biso   1.000  O
  O4       1.0000 0.78450  0.49040  0.33850  Biso   1.000  O
  O5       1.0000 0.54300  0.77950  0.18250  Biso   1.000  O
  O6       1.0000 0.54300  0.72050  0.68250  Biso   1.000  O
  O7       1.0000 0.45700  0.22050  0.81750  Biso   1.000  O
  O8       1.0000 0.45700  0.27950  0.31750  Biso   1.000  O
  O9       1.0000 0.89540  0.10010  0.16510  Biso   1.000  O
  O10      1.0000 0.89540  0.39990  0.66510  Biso   1.000  O
  O11      1.0000 0.10460  0.89990  0.83490  Biso   1.000  O
  O12      1.0000 0.10460  0.60010  0.33490  Biso   1.000  O
  O13      1.0000 0.44640  0.09960  0.21120  Biso   1.000  O
  O14      1.0000 0.44640  0.40040  0.71120  Biso   1.000  O
  O15      1.0000 0.55360  0.90040  0.78880  Biso   1.000  O
  O16      1.0000 0.55360  0.59960  0.28880  Biso   1.000  O
  O17      1.0000 0.80130  0.95060  0.21120  Biso   1.000  O
  O18      1.0000 0.80130  0.54940  0.71120  Biso   1.000  O
  O19      1.0000 0.19870  0.04940  0.78880  Biso   1.000  O
  O20      1.0000 0.19870  0.45060  0.28880  Biso   1.000  O
  C1       1.0000 0.31500  0.99510  0.99960  Biso   1.000  C
  C2       1.0000 0.31500  0.50490  0.49960  Biso   1.000  C
  C3       1.0000 0.68500  0.00490  0.00040  Biso   1.000  C
  C4       1.0000 0.68500  0.49510  0.50040  Biso   1.000  C
  H1       1.0000 0.18900  0.99180  0.99950  Biso   1.000  H
  H2       1.0000 0.18900  0.50820  0.49950  Biso   1.000  H
  H3       1.0000 0.81100  0.00820  0.00050  Biso   1.000  H
  H4       1.0000 0.81100  0.49180  0.50050  Biso   1.000  H
  C5       1.0000 0.43980  0.01340  0.07790  Biso   1.000  C
  C6       1.0000 0.43980  0.48660  0.57790  Biso   1.000  C
  C7       1.0000 0.56020  0.98660  0.92210  Biso   1.000  C
  C8       1.0000 0.56020  0.51340  0.42210  Biso   1.000  C
  C9       1.0000 0.62980  0.01810  0.07760  Biso   1.000  C
  C10      1.0000 0.62980  0.48190  0.57760  Biso   1.000  C
  C11      1.0000 0.37020  0.98190  0.92240  Biso   1.000  C
  C12      1.0000 0.37020  0.51810  0.42240  Biso   1.000  C
  C13      1.0000 0.36570  0.03690  0.15740  Biso   1.000  C
  C14      1.0000 0.36570  0.46310  0.65740  Biso   1.000  C
  C15      1.0000 0.63430  0.96310  0.84260  Biso   1.000  C
  C16      1.0000 0.63430  0.53690  0.34260  Biso   1.000  C
  C17      1.0000 0.78120  0.02360  0.15860  Biso   1.000  C
  C18      1.0000 0.78120  0.47640  0.65860  Biso   1.000  C
  C19      1.0000 0.21880  0.97640  0.84140  Biso   1.000  C
  C20      1.0000 0.21880  0.52360  0.34140  Biso   1.000  C
  C21      1.0000 0.32200  0.85990  0.34160  Biso   1.000  C
  C22      1.0000 0.32200  0.64010  0.84160  Biso   1.000  C
  C23      1.0000 0.67800  0.14010  0.65840  Biso   1.000  C
  C24      1.0000 0.67800  0.35990  0.15840  Biso   1.000  C
  H5       1.0000 0.32850  0.83450  0.28710  Biso   1.000  H
  H6       1.0000 0.32850  0.66550  0.78710  Biso   1.000  H
  H7       1.0000 0.67150  0.16550  0.71290  Biso   1.000  H
  H8       1.0000 0.67150  0.33450  0.21290  Biso   1.000  H
  C25      1.0000 0.39610  0.79920  0.41410  Biso   1.000  C
  C26      1.0000 0.39610  0.70080  0.91410  Biso   1.000  C
  C27      1.0000 0.60390  0.20080  0.58590  Biso   1.000  C
  C28      1.0000 0.60390  0.29920  0.08590  Biso   1.000  C
  H9       1.0000 0.45060  0.73460  0.40780  Biso   1.000  H
  H10      1.0000 0.45060  0.76540  0.90780  Biso   1.000  H
  H11      1.0000 0.54940  0.26540  0.59220  Biso   1.000  H
  H12      1.0000 0.54940  0.23460  0.09220  Biso   1.000  H
  C29      1.0000 0.38820  0.83540  0.49450  Biso   1.000  C
  C30      1.0000 0.38820  0.66460  0.99450  Biso   1.000  C
  C31      1.0000 0.61180  0.16460  0.50550  Biso   1.000  C
  C32      1.0000 0.61180  0.33540  0.00550  Biso   1.000  C
  H13      1.0000 0.43510  0.79470  0.54320  Biso   1.000  H
  H14      1.0000 0.43510  0.70530  0.04320  Biso   1.000  H
  H15      1.0000 0.56490  0.20530  0.45680  Biso   1.000  H
  H16      1.0000 0.56490  0.29470  0.95680  Biso   1.000  H
  C33      1.0000 0.30920  0.93410  0.50390  Biso   1.000  C
  C34      1.0000 0.30920  0.56590  0.00390  Biso   1.000  C
  C35      1.0000 0.69080  0.06590  0.49610  Biso   1.000  C
  C36      1.0000 0.69080  0.43410  0.99610  Biso   1.000  C
  C37      1.0000 0.29820  0.98060  0.58470  Biso   1.000  C
  C38      1.0000 0.29820  0.51940  0.08470  Biso   1.000  C
  C39      1.0000 0.70180  0.01940  0.41530  Biso   1.000  C
  C40      1.0000 0.70180  0.48060  0.91530  Biso   1.000  C
  H17      1.0000 0.34580  0.94480  0.63610  Biso   1.000  H
  H18      1.0000 0.34580  0.55520  0.13610  Biso   1.000  H
  H19      1.0000 0.65420  0.05520  0.36390  Biso   1.000  H
  H20      1.0000 0.65420  0.44480  0.86390  Biso   1.000  H
  C41      1.0000 0.21920  0.07620  0.58750  Biso   1.000  C
  C42      1.0000 0.21920  0.42380  0.08750  Biso   1.000  C
  C43      1.0000 0.78080  0.92380  0.41250  Biso   1.000  C
  C44      1.0000 0.78080  0.57620  0.91250  Biso   1.000  C
  H21      1.0000 0.21480  0.10530  0.64110  Biso   1.000  H
  H22      1.0000 0.21480  0.39470  0.14110  Biso   1.000  H
  H23      1.0000 0.78520  0.89470  0.35890  Biso   1.000  H
  H24      1.0000 0.78520  0.60530  0.85890  Biso   1.000  H
  C45      1.0000 0.14220  0.13370  0.51020  Biso   1.000  C
  C46      1.0000 0.14220  0.36630  0.01020  Biso   1.000  C
  C47      1.0000 0.85780  0.86630  0.48980  Biso   1.000  C
  C48      1.0000 0.85780  0.63370  0.98980  Biso   1.000  C
  C49      1.0000 0.05660  0.23260  0.50780  Biso   1.000  C
  C50      1.0000 0.05660  0.26740  0.00780  Biso   1.000  C
  C51      1.0000 0.94340  0.76740  0.49220  Biso   1.000  C
  C52      1.0000 0.94340  0.73260  0.99220  Biso   1.000  C
  H25      1.0000 0.04890  0.26690  0.55890  Biso   1.000  H
  H26      1.0000 0.04890  0.23310  0.05890  Biso   1.000  H
  H27      1.0000 0.95110  0.73310  0.44110  Biso   1.000  H
  H28      1.0000 0.95110  0.76690  0.94110  Biso   1.000  H
  C53      1.0000 0.98480  0.27770  0.42930  Biso   1.000  C
  C54      1.0000 0.98480  0.22230  0.92930  Biso   1.000  C
  C55      1.0000 0.01520  0.72230  0.57070  Biso   1.000  C
  C56      1.0000 0.01520  0.77770  0.07070  Biso   1.000  C
  H29      1.0000 0.92910  0.34360  0.42670  Biso   1.000  H
  H30      1.0000 0.92910  0.15640  0.92670  Biso   1.000  H
  H31      1.0000 0.07090  0.65640  0.57330  Biso   1.000  H
  H32      1.0000 0.07090  0.84360  0.07330  Biso   1.000  H
  C57      1.0000 0.99470  0.22510  0.35280  Biso   1.000  C
  C58      1.0000 0.99470  0.27490  0.85280  Biso   1.000  C
  C59      1.0000 0.00530  0.77490  0.64720  Biso   1.000  C
  C60      1.0000 0.00530  0.72510  0.14720  Biso   1.000  C
  H33      1.0000 0.94280  0.25640  0.29990  Biso   1.000  H
  H34      1.0000 0.94280  0.24360  0.79990  Biso   1.000  H
  H35      1.0000 0.05720  0.74360  0.70010  Biso   1.000  H
  H36      1.0000 0.05720  0.75640  0.20010  Biso   1.000  H
  C61      1.0000 0.15030  0.08770  0.43070  Biso   1.000  C
  C62      1.0000 0.15030  0.41230  0.93070  Biso   1.000  C
  C63      1.0000 0.84970  0.91230  0.56930  Biso   1.000  C
  C64      1.0000 0.84970  0.58770  0.06930  Biso   1.000  C
  C65      1.0000 0.23670  0.98810  0.42730  Biso   1.000  C
  C66      1.0000 0.23670  0.51190  0.92730  Biso   1.000  C
  C67      1.0000 0.76330  0.01190  0.57270  Biso   1.000  C
  C68      1.0000 0.76330  0.48810  0.07270  Biso   1.000  C
