data_image0
_cell_length_a       7.386
_cell_length_b       12.723
_cell_length_c       15.831
_cell_angle_alpha    90
_cell_angle_beta     102.66
_cell_angle_gamma    90

_symmetry_space_group_name_H-M    "P 1"
_symmetry_int_tables_number       1

loop_
  _symmetry_equiv_pos_as_xyz
  'x, y, z'

loop_
  _atom_site_label
  _atom_site_occupancy
  _atom_site_fract_x
  _atom_site_fract_y
  _atom_site_fract_z
  _atom_site_thermal_displace_type
  _atom_site_B_iso_or_equiv
  _atom_site_type_symbol
  Cu1      1.0000 0.39380  0.95533  0.24663  Biso   1.000  Cu
  Cu2      1.0000 0.39380  0.54467  0.74663  Biso   1.000  Cu
  Cu3      1.0000 0.60620  0.04467  0.75337  Biso   1.000  Cu
  Cu4      1.0000 0.60620  0.45533  0.25337  Biso   1.000  Cu
  C1       1.0000 0.71900  0.97640  0.34127  Biso   1.000  C
  C2       1.0000 0.71900  0.52360  0.84127  Biso   1.000  C
  C3       1.0000 0.28100  0.02360  0.65873  Biso   1.000  C
  C4       1.0000 0.28100  0.47640  0.15873  Biso   1.000  C
  C5       1.0000 0.13440  0.96350  0.34220  Biso   1.000  C
  C6       1.0000 0.13440  0.53650  0.84220  Biso   1.000  C
  C7       1.0000 0.86560  0.03650  0.65780  Biso   1.000  C
  C8       1.0000 0.86560  0.46350  0.15780  Biso   1.000  C
  C9       1.0000 0.05960  0.98650  0.42189  Biso   1.000  C
  C10      1.0000 0.05960  0.51350  0.92189  Biso   1.000  C
  C11      1.0000 0.94040  0.01350  0.57811  Biso   1.000  C
  C12      1.0000 0.94040  0.48650  0.07811  Biso   1.000  C
  C13      1.0000 0.81340  0.99530  0.49990  Biso   1.000  C
  C14      1.0000 0.81340  0.50470  0.99990  Biso   1.000  C
  C15      1.0000 0.18660  0.00470  0.50010  Biso   1.000  C
  C16      1.0000 0.18660  0.49530  0.00010  Biso   1.000  C
  H1       1.0000 0.68750  0.99160  0.49960  Biso   1.000  H
  H2       1.0000 0.68750  0.50840  0.99960  Biso   1.000  H
  H3       1.0000 0.31250  0.00840  0.50040  Biso   1.000  H
  H4       1.0000 0.31250  0.49160  0.00040  Biso   1.000  H
  C17      1.0000 0.87130  0.98260  0.42211  Biso   1.000  C
  C18      1.0000 0.87130  0.51740  0.92211  Biso   1.000  C
  C19      1.0000 0.12870  0.01740  0.57789  Biso   1.000  C
  C20      1.0000 0.12870  0.48260  0.07789  Biso   1.000  C
  C21      1.0000 0.17790  0.13980  0.15890  Biso   1.000  C
  C22      1.0000 0.17790  0.36020  0.65890  Biso   1.000  C
  C23      1.0000 0.82210  0.86020  0.84110  Biso   1.000  C
  C24      1.0000 0.82210  0.63980  0.34110  Biso   1.000  C
  H5       1.0000 0.17100  0.16440  0.21340  Biso   1.000  H
  H6       1.0000 0.17100  0.33560  0.71340  Biso   1.000  H
  H7       1.0000 0.82900  0.83560  0.78660  Biso   1.000  H
  H8       1.0000 0.82900  0.66440  0.28660  Biso   1.000  H
  C25      1.0000 0.10310  0.20160  0.08650  Biso   1.000  C
  C26      1.0000 0.10310  0.29840  0.58650  Biso   1.000  C
  C27      1.0000 0.89690  0.79840  0.91350  Biso   1.000  C
  C28      1.0000 0.89690  0.70160  0.41350  Biso   1.000  C
  H9       1.0000 0.04870  0.26610  0.09310  Biso   1.000  H
  H10      1.0000 0.04870  0.23390  0.59310  Biso   1.000  H
  H11      1.0000 0.95130  0.73390  0.90690  Biso   1.000  H
  H12      1.0000 0.95130  0.76610  0.40690  Biso   1.000  H
  C29      1.0000 0.11130  0.16570  0.00580  Biso   1.000  C
  C30      1.0000 0.11130  0.33430  0.50580  Biso   1.000  C
  C31      1.0000 0.88870  0.83430  0.99420  Biso   1.000  C
  C32      1.0000 0.88870  0.66570  0.49420  Biso   1.000  C
  H13      1.0000 0.06440  0.20660  0.95730  Biso   1.000  H
  H14      1.0000 0.06440  0.29340  0.45730  Biso   1.000  H
  H15      1.0000 0.93560  0.79340  0.04270  Biso   1.000  H
  H16      1.0000 0.93560  0.70660  0.54270  Biso   1.000  H
  C33      1.0000 0.19020  0.06710  0.99610  Biso   1.000  C
  C34      1.0000 0.19020  0.43290  0.49610  Biso   1.000  C
  C35      1.0000 0.80980  0.93290  0.00390  Biso   1.000  C
  C36      1.0000 0.80980  0.56710  0.50390  Biso   1.000  C
  C37      1.0000 0.20330  0.01890  0.91470  Biso   1.000  C
  C38      1.0000 0.20330  0.48110  0.41470  Biso   1.000  C
  C39      1.0000 0.79670  0.98110  0.08530  Biso   1.000  C
  C40      1.0000 0.79670  0.51890  0.58530  Biso   1.000  C
  H17      1.0000 0.15670  0.05440  0.86320  Biso   1.000  H
  H18      1.0000 0.15670  0.44560  0.36320  Biso   1.000  H
  H19      1.0000 0.84330  0.94560  0.13680  Biso   1.000  H
  H20      1.0000 0.84330  0.55440  0.63680  Biso   1.000  H
  C41      1.0000 0.28110  0.92450  0.91250  Biso   1.000  C
  C42      1.0000 0.28110  0.57550  0.41250  Biso   1.000  C
  C43      1.0000 0.71890  0.07550  0.08750  Biso   1.000  C
  C44      1.0000 0.71890  0.42450  0.58750  Biso   1.000  C
  H21      1.0000 0.28630  0.89570  0.85910  Biso   1.000  H
  H22      1.0000 0.28630  0.60430  0.35910  Biso   1.000  H
  H23      1.0000 0.71370  0.10430  0.14090  Biso   1.000  H
  H24      1.0000 0.71370  0.39570  0.64090  Biso   1.000  H
  C45      1.0000 0.35710  0.86570  0.98980  Biso   1.000  C
  C46      1.0000 0.35710  0.63430  0.48980  Biso   1.000  C
  C47      1.0000 0.64290  0.13430  0.01020  Biso   1.000  C
  C48      1.0000 0.64290  0.36570  0.51020  Biso   1.000  C
  C49      1.0000 0.44050  0.76810  0.99170  Biso   1.000  C
  C50      1.0000 0.44050  0.73190  0.49170  Biso   1.000  C
  C51      1.0000 0.55950  0.23190  0.00830  Biso   1.000  C
  C52      1.0000 0.55950  0.26810  0.50830  Biso   1.000  C
  H25      1.0000 0.44650  0.73390  0.94040  Biso   1.000  H
  H26      1.0000 0.44650  0.76610  0.44040  Biso   1.000  H
  H27      1.0000 0.55350  0.26610  0.05960  Biso   1.000  H
  H28      1.0000 0.55350  0.23390  0.55960  Biso   1.000  H
  C53      1.0000 0.51450  0.72220  0.07030  Biso   1.000  C
  C54      1.0000 0.51450  0.77780  0.57030  Biso   1.000  C
  C55      1.0000 0.48550  0.27780  0.92970  Biso   1.000  C
  C56      1.0000 0.48550  0.22220  0.42970  Biso   1.000  C
  H29      1.0000 0.57120  0.65670  0.07260  Biso   1.000  H
  H30      1.0000 0.57120  0.84330  0.57260  Biso   1.000  H
  H31      1.0000 0.42880  0.34330  0.92740  Biso   1.000  H
  H32      1.0000 0.42880  0.15670  0.42740  Biso   1.000  H
  C57      1.0000 0.50440  0.77430  0.14710  Biso   1.000  C
  C58      1.0000 0.50440  0.72570  0.64710  Biso   1.000  C
  C59      1.0000 0.49560  0.22570  0.85290  Biso   1.000  C
  C60      1.0000 0.49560  0.27430  0.35290  Biso   1.000  C
  H33      1.0000 0.55610  0.74260  0.19980  Biso   1.000  H
  H34      1.0000 0.55610  0.75740  0.69980  Biso   1.000  H
  H35      1.0000 0.44390  0.25740  0.80020  Biso   1.000  H
  H36      1.0000 0.44390  0.24260  0.30020  Biso   1.000  H
  C61      1.0000 0.34970  0.91180  0.06900  Biso   1.000  C
  C62      1.0000 0.34970  0.58820  0.56900  Biso   1.000  C
  C63      1.0000 0.65030  0.08820  0.93100  Biso   1.000  C
  C64      1.0000 0.65030  0.41180  0.43100  Biso   1.000  C
  C65      1.0000 0.26410  0.01080  0.07250  Biso   1.000  C
  C66      1.0000 0.26410  0.48920  0.57250  Biso   1.000  C
  C67      1.0000 0.73590  0.98920  0.92750  Biso   1.000  C
  C68      1.0000 0.73590  0.51080  0.42750  Biso   1.000  C
  N1       1.0000 0.42420  0.86670  0.14713  Biso   1.000  N
  N2       1.0000 0.42420  0.63330  0.64713  Biso   1.000  N
  N3       1.0000 0.57580  0.13330  0.85287  Biso   1.000  N
  N4       1.0000 0.57580  0.36670  0.35287  Biso   1.000  N
  N5       1.0000 0.25800  0.04770  0.15294  Biso   1.000  N
  N6       1.0000 0.25800  0.45230  0.65294  Biso   1.000  N
  N7       1.0000 0.74200  0.95230  0.84706  Biso   1.000  N
  N8       1.0000 0.74200  0.54770  0.34706  Biso   1.000  N
  O1       1.0000 0.28510  0.01000  0.33878  Biso   1.000  O
  O2       1.0000 0.28510  0.49000  0.83878  Biso   1.000  O
  O3       1.0000 0.71490  0.99000  0.66122  Biso   1.000  O
  O4       1.0000 0.71490  0.51000  0.16122  Biso   1.000  O
  O5       1.0000 0.05300  0.90100  0.28852  Biso   1.000  O
  O6       1.0000 0.05300  0.59900  0.78852  Biso   1.000  O
  O7       1.0000 0.94700  0.09900  0.71148  Biso   1.000  O
  O8       1.0000 0.94700  0.40100  0.21148  Biso   1.000  O
  O9       1.0000 0.60500  0.89950  0.33473  Biso   1.000  O
  O10      1.0000 0.60500  0.60050  0.83473  Biso   1.000  O
  O11      1.0000 0.39500  0.10050  0.66527  Biso   1.000  O
  O12      1.0000 0.39500  0.39950  0.16527  Biso   1.000  O
  O13      1.0000 0.69830  0.04980  0.28903  Biso   1.000  O
  O14      1.0000 0.69830  0.45020  0.78903  Biso   1.000  O
  O15      1.0000 0.30170  0.95020  0.71097  Biso   1.000  O
  O16      1.0000 0.30170  0.54980  0.21097  Biso   1.000  O
  O17      1.0000 0.04370  0.72010  0.18320  Biso   1.000  O
  O18      1.0000 0.04370  0.77990  0.68320  Biso   1.000  O
  O19      1.0000 0.95630  0.27990  0.81680  Biso   1.000  O
  O20      1.0000 0.95630  0.22010  0.31680  Biso   1.000  O
