data_image0
_cell_length_a       11.653
_cell_length_b       7.3533
_cell_length_c       13.443
_cell_angle_alpha    90
_cell_angle_beta     106.19
_cell_angle_gamma    90

_symmetry_space_group_name_H-M    "P 1"
_symmetry_int_tables_number       1

loop_
  _symmetry_equiv_pos_as_xyz
  'x, y, z'

loop_
  _atom_site_label
  _atom_site_occupancy
  _atom_site_fract_x
  _atom_site_fract_y
  _atom_site_fract_z
  _atom_site_thermal_displace_type
  _atom_site_B_iso_or_equiv
  _atom_site_type_symbol
  Cu1      1.0000 0.73261  0.71726  0.48792  Biso   1.000  Cu
  Cu2      1.0000 0.23261  0.78274  0.98792  Biso   1.000  Cu
  Cu3      1.0000 0.26739  0.28274  0.51208  Biso   1.000  Cu
  Cu4      1.0000 0.76739  0.21726  0.01208  Biso   1.000  Cu
  Cl1      1.0000 0.72904  0.59965  0.64217  Biso   1.000  Cl
  Cl2      1.0000 0.22904  0.90035  0.14217  Biso   1.000  Cl
  Cl3      1.0000 0.27096  0.40035  0.35783  Biso   1.000  Cl
  Cl4      1.0000 0.77096  0.09965  0.85783  Biso   1.000  Cl
  Cl5      1.0000 0.75918  0.88033  0.35349  Biso   1.000  Cl
  Cl6      1.0000 0.25918  0.61967  0.85349  Biso   1.000  Cl
  Cl7      1.0000 0.24082  0.11967  0.64651  Biso   1.000  Cl
  Cl8      1.0000 0.74082  0.38033  0.14651  Biso   1.000  Cl
  N1       1.0000 0.59361  0.88730  0.49430  Biso   1.000  N
  N2       1.0000 0.09361  0.61270  0.99430  Biso   1.000  N
  N3       1.0000 0.40639  0.11270  0.50570  Biso   1.000  N
  N4       1.0000 0.90639  0.38730  0.00570  Biso   1.000  N
  C1       1.0000 0.61610  0.05270  0.53970  Biso   1.000  C
  C2       1.0000 0.11610  0.44730  0.03970  Biso   1.000  C
  C3       1.0000 0.38390  0.94730  0.46030  Biso   1.000  C
  C4       1.0000 0.88390  0.55270  0.96030  Biso   1.000  C
  C5       1.0000 0.47960  0.83720  0.45600  Biso   1.000  C
  C6       1.0000 0.97960  0.66280  0.95600  Biso   1.000  C
  C7       1.0000 0.52040  0.16280  0.54400  Biso   1.000  C
  C8       1.0000 0.02040  0.33720  0.04400  Biso   1.000  C
  H1       1.0000 0.46330  0.72350  0.42500  Biso   1.000  H
  H2       1.0000 0.96330  0.77650  0.92500  Biso   1.000  H
  H3       1.0000 0.53670  0.27650  0.57500  Biso   1.000  H
  H4       1.0000 0.03670  0.22350  0.07500  Biso   1.000  H
  N5       1.0000 0.89359  0.58880  0.49796  Biso   1.000  N
  N6       1.0000 0.39359  0.91120  0.99796  Biso   1.000  N
  N7       1.0000 0.10641  0.41120  0.50204  Biso   1.000  N
  N8       1.0000 0.60641  0.08880  0.00204  Biso   1.000  N
  C9       1.0000 0.74140  0.11310  0.58430  Biso   1.000  C
  C10      1.0000 0.24140  0.38690  0.08430  Biso   1.000  C
  C11      1.0000 0.25860  0.88690  0.41570  Biso   1.000  C
  C12      1.0000 0.75860  0.61310  0.91570  Biso   1.000  C
  H5       1.0000 0.77990  0.03570  0.64130  Biso   1.000  H
  H6       1.0000 0.27990  0.46430  0.14130  Biso   1.000  H
  H7       1.0000 0.22010  0.96430  0.35870  Biso   1.000  H
  H8       1.0000 0.72010  0.53570  0.85870  Biso   1.000  H
  H9       1.0000 0.74210  0.23630  0.60820  Biso   1.000  H
  H10      1.0000 0.24210  0.26370  0.10820  Biso   1.000  H
  H11      1.0000 0.25790  0.76370  0.39180  Biso   1.000  H
  H12      1.0000 0.75790  0.73630  0.89180  Biso   1.000  H
  H13      1.0000 0.78320  0.10650  0.53210  Biso   1.000  H
  H14      1.0000 0.28320  0.39350  0.03210  Biso   1.000  H
  H15      1.0000 0.21680  0.89350  0.46790  Biso   1.000  H
  H16      1.0000 0.71680  0.60650  0.96790  Biso   1.000  H
  C13      1.0000 0.89760  0.44970  0.43420  Biso   1.000  C
  C14      1.0000 0.39760  0.05030  0.93420  Biso   1.000  C
  C15      1.0000 0.10240  0.55030  0.56580  Biso   1.000  C
  C16      1.0000 0.60240  0.94970  0.06580  Biso   1.000  C
  H17      1.0000 0.82670  0.41200  0.38730  Biso   1.000  H
  H18      1.0000 0.32670  0.08800  0.88730  Biso   1.000  H
  H19      1.0000 0.17330  0.58800  0.61270  Biso   1.000  H
  H20      1.0000 0.67330  0.91200  0.11270  Biso   1.000  H
  C17      1.0000 0.99720  0.64060  0.56500  Biso   1.000  C
  C18      1.0000 0.49720  0.85940  0.06500  Biso   1.000  C
  C19      1.0000 0.00280  0.35940  0.43500  Biso   1.000  C
  C20      1.0000 0.50280  0.14060  0.93500  Biso   1.000  C
  C21      1.0000 0.99910  0.79700  0.63560  Biso   1.000  C
  C22      1.0000 0.49910  0.70300  0.13560  Biso   1.000  C
  C23      1.0000 0.00090  0.20300  0.36440  Biso   1.000  C
  C24      1.0000 0.50090  0.29700  0.86440  Biso   1.000  C
  H21      1.0000 0.98510  0.90770  0.59620  Biso   1.000  H
  H22      1.0000 0.48510  0.59230  0.09620  Biso   1.000  H
  H23      1.0000 0.01490  0.09230  0.40380  Biso   1.000  H
  H24      1.0000 0.51490  0.40770  0.90380  Biso   1.000  H
  H25      1.0000 0.07560  0.80310  0.68620  Biso   1.000  H
  H26      1.0000 0.57560  0.69690  0.18620  Biso   1.000  H
  H27      1.0000 0.92440  0.19690  0.31380  Biso   1.000  H
  H28      1.0000 0.42440  0.30310  0.81380  Biso   1.000  H
  H29      1.0000 0.93770  0.78130  0.66990  Biso   1.000  H
  H30      1.0000 0.43770  0.71870  0.16990  Biso   1.000  H
  H31      1.0000 0.06230  0.21870  0.33010  Biso   1.000  H
  H32      1.0000 0.56230  0.28130  0.83010  Biso   1.000  H
  N9       1.0000 0.61380  0.48940  0.38692  Biso   1.000  N
  N10      1.0000 0.11380  0.01060  0.88692  Biso   1.000  N
  N11      1.0000 0.38620  0.51060  0.61308  Biso   1.000  N
  N12      1.0000 0.88620  0.98940  0.11308  Biso   1.000  N
  C25      1.0000 0.56970  0.37250  0.33440  Biso   1.000  C
  C26      1.0000 0.06970  0.12750  0.83440  Biso   1.000  C
  C27      1.0000 0.43030  0.62750  0.66560  Biso   1.000  C
  C28      1.0000 0.93030  0.87250  0.16560  Biso   1.000  C
  C29      1.0000 0.51580  0.22210  0.26780  Biso   1.000  C
  C30      1.0000 0.01580  0.27790  0.76780  Biso   1.000  C
  C31      1.0000 0.48420  0.77790  0.73220  Biso   1.000  C
  C32      1.0000 0.98420  0.72210  0.23220  Biso   1.000  C
  H33      1.0000 0.56380  0.11500  0.28800  Biso   1.000  H
  H34      1.0000 0.06380  0.38500  0.78800  Biso   1.000  H
  H35      1.0000 0.43620  0.88500  0.71200  Biso   1.000  H
  H36      1.0000 0.93620  0.61500  0.21200  Biso   1.000  H
  H37      1.0000 0.51100  0.25170  0.19720  Biso   1.000  H
  H38      1.0000 0.01100  0.24830  0.69720  Biso   1.000  H
  H39      1.0000 0.48900  0.74830  0.80280  Biso   1.000  H
  H40      1.0000 0.98900  0.75170  0.30280  Biso   1.000  H
  H41      1.0000 0.43700  0.20020  0.27430  Biso   1.000  H
  H42      1.0000 0.93700  0.29980  0.77430  Biso   1.000  H
  H43      1.0000 0.56300  0.79980  0.72570  Biso   1.000  H
  H44      1.0000 0.06300  0.70020  0.22570  Biso   1.000  H
