data_image0
_cell_length_a       7.7161
_cell_length_b       17.55
_cell_length_c       20.947
_cell_angle_alpha    90
_cell_angle_beta     96.8
_cell_angle_gamma    90

_symmetry_space_group_name_H-M    "P 1"
_symmetry_int_tables_number       1

loop_
  _symmetry_equiv_pos_as_xyz
  'x, y, z'

loop_
  _atom_site_label
  _atom_site_occupancy
  _atom_site_fract_x
  _atom_site_fract_y
  _atom_site_fract_z
  _atom_site_thermal_displace_type
  _atom_site_B_iso_or_equiv
  _atom_site_type_symbol
  Cu1      1.0000 0.00000  0.50000  0.00000  Biso   1.000  Cu
  Cu2      1.0000 0.50000  0.00000  0.50000  Biso   1.000  Cu
  C1       1.0000 0.84520  0.23360  0.86140  Biso   1.000  C
  C2       1.0000 0.65480  0.73360  0.63860  Biso   1.000  C
  C3       1.0000 0.15480  0.76640  0.13860  Biso   1.000  C
  C4       1.0000 0.34520  0.26640  0.36140  Biso   1.000  C
  C5       1.0000 0.80600  0.16530  0.89849  Biso   1.000  C
  C6       1.0000 0.69400  0.66530  0.60151  Biso   1.000  C
  C7       1.0000 0.19400  0.83470  0.10151  Biso   1.000  C
  C8       1.0000 0.30600  0.33470  0.39849  Biso   1.000  C
  C9       1.0000 0.72510  0.17150  0.95450  Biso   1.000  C
  C10      1.0000 0.77490  0.67150  0.54550  Biso   1.000  C
  C11      1.0000 0.27490  0.82850  0.04550  Biso   1.000  C
  C12      1.0000 0.22510  0.32850  0.45450  Biso   1.000  C
  H1       1.0000 0.68540  0.21860  0.96700  Biso   1.000  H
  H2       1.0000 0.81460  0.71860  0.53300  Biso   1.000  H
  H3       1.0000 0.31460  0.78140  0.03300  Biso   1.000  H
  H4       1.0000 0.18540  0.28140  0.46700  Biso   1.000  H
  C13      1.0000 0.70400  0.10790  0.99120  Biso   1.000  C
  C14      1.0000 0.79600  0.60790  0.50880  Biso   1.000  C
  C15      1.0000 0.29600  0.89210  0.00880  Biso   1.000  C
  C16      1.0000 0.20400  0.39210  0.49120  Biso   1.000  C
  H5       1.0000 0.65170  0.11280  0.02880  Biso   1.000  H
  H6       1.0000 0.84830  0.61280  0.47120  Biso   1.000  H
  H7       1.0000 0.34830  0.88720  0.97120  Biso   1.000  H
  H8       1.0000 0.15170  0.38720  0.52880  Biso   1.000  H
  C17      1.0000 0.75920  0.03630  0.97331  Biso   1.000  C
  C18      1.0000 0.74080  0.53630  0.52669  Biso   1.000  C
  C19      1.0000 0.24080  0.96370  0.02669  Biso   1.000  C
  C20      1.0000 0.25920  0.46370  0.47331  Biso   1.000  C
  C21      1.0000 0.83800  0.03050  0.91747  Biso   1.000  C
  C22      1.0000 0.66200  0.53050  0.58253  Biso   1.000  C
  C23      1.0000 0.16200  0.96950  0.08253  Biso   1.000  C
  C24      1.0000 0.33800  0.46950  0.41747  Biso   1.000  C
  H9       1.0000 0.87620  0.98320  0.90470  Biso   1.000  H
  H10      1.0000 0.62380  0.48320  0.59530  Biso   1.000  H
  H11      1.0000 0.12380  0.01680  0.09530  Biso   1.000  H
  H12      1.0000 0.37620  0.51680  0.40470  Biso   1.000  H
  C25      1.0000 0.86070  0.09430  0.88024  Biso   1.000  C
  C26      1.0000 0.63930  0.59430  0.61976  Biso   1.000  C
  C27      1.0000 0.13930  0.90570  0.11976  Biso   1.000  C
  C28      1.0000 0.36070  0.40570  0.38024  Biso   1.000  C
  H13      1.0000 0.91320  0.08940  0.84270  Biso   1.000  H
  H14      1.0000 0.58680  0.58940  0.65730  Biso   1.000  H
  H15      1.0000 0.08680  0.91060  0.15730  Biso   1.000  H
  H16      1.0000 0.41320  0.41060  0.34270  Biso   1.000  H
  C29      1.0000 0.73890  0.96950  0.01565  Biso   1.000  C
  C30      1.0000 0.76110  0.46950  0.48435  Biso   1.000  C
  C31      1.0000 0.26110  0.03050  0.98435  Biso   1.000  C
  C32      1.0000 0.23890  0.53050  0.51565  Biso   1.000  C
  C33      1.0000 0.76830  0.89500  0.99635  Biso   1.000  C
  C34      1.0000 0.73170  0.39500  0.50365  Biso   1.000  C
  C35      1.0000 0.23170  0.10500  0.00365  Biso   1.000  C
  C36      1.0000 0.26830  0.60500  0.49635  Biso   1.000  C
  H17      1.0000 0.79720  0.88530  0.95530  Biso   1.000  H
  H18      1.0000 0.70280  0.38530  0.54470  Biso   1.000  H
  H19      1.0000 0.20280  0.11470  0.04470  Biso   1.000  H
  H20      1.0000 0.29720  0.61470  0.45530  Biso   1.000  H
  C37      1.0000 0.75400  0.83558  0.03927  Biso   1.000  C
  C38      1.0000 0.74600  0.33558  0.46073  Biso   1.000  C
  C39      1.0000 0.24600  0.16442  0.96073  Biso   1.000  C
  C40      1.0000 0.25400  0.66442  0.53927  Biso   1.000  C
  C41      1.0000 0.70720  0.85370  0.09959  Biso   1.000  C
  C42      1.0000 0.79280  0.35370  0.40041  Biso   1.000  C
  C43      1.0000 0.29280  0.14630  0.90041  Biso   1.000  C
  C44      1.0000 0.20720  0.64630  0.59959  Biso   1.000  C
  H21      1.0000 0.69580  0.81540  0.12950  Biso   1.000  H
  H22      1.0000 0.80420  0.31540  0.37050  Biso   1.000  H
  H23      1.0000 0.30420  0.18460  0.87050  Biso   1.000  H
  H24      1.0000 0.19580  0.68460  0.62950  Biso   1.000  H
  C45      1.0000 0.67740  0.92910  0.11507  Biso   1.000  C
  C46      1.0000 0.82260  0.42910  0.38493  Biso   1.000  C
  C47      1.0000 0.32260  0.07090  0.88493  Biso   1.000  C
  C48      1.0000 0.17740  0.57090  0.61507  Biso   1.000  C
  C49      1.0000 0.62530  0.95110  0.17864  Biso   1.000  C
  C50      1.0000 0.87470  0.45110  0.32136  Biso   1.000  C
  C51      1.0000 0.37470  0.04890  0.82136  Biso   1.000  C
  C52      1.0000 0.12530  0.54890  0.67864  Biso   1.000  C
  C53      1.0000 0.52420  0.01560  0.18392  Biso   1.000  C
  C54      1.0000 0.97580  0.51560  0.31608  Biso   1.000  C
  C55      1.0000 0.47580  0.98440  0.81608  Biso   1.000  C
  C56      1.0000 0.02420  0.48440  0.68392  Biso   1.000  C
  H25      1.0000 0.49240  0.04550  0.14780  Biso   1.000  H
  H26      1.0000 0.00760  0.54550  0.35220  Biso   1.000  H
  H27      1.0000 0.50760  0.95450  0.85220  Biso   1.000  H
  H28      1.0000 0.99240  0.45450  0.64780  Biso   1.000  H
  C57      1.0000 0.47020  0.03580  0.24194  Biso   1.000  C
  C58      1.0000 0.02980  0.53580  0.25806  Biso   1.000  C
  C59      1.0000 0.52980  0.96420  0.75806  Biso   1.000  C
  C60      1.0000 0.97020  0.46420  0.74194  Biso   1.000  C
  H29      1.0000 0.40040  0.07860  0.24450  Biso   1.000  H
  H30      1.0000 0.09960  0.57860  0.25550  Biso   1.000  H
  H31      1.0000 0.59960  0.92140  0.75550  Biso   1.000  H
  H32      1.0000 0.90040  0.42140  0.74450  Biso   1.000  H
  C61      1.0000 0.51960  0.99250  0.29668  Biso   1.000  C
  C62      1.0000 0.98040  0.49250  0.20332  Biso   1.000  C
  C63      1.0000 0.48040  0.00750  0.70332  Biso   1.000  C
  C64      1.0000 0.01960  0.50750  0.79668  Biso   1.000  C
  C65      1.0000 0.62420  0.92900  0.29215  Biso   1.000  C
  C66      1.0000 0.87580  0.42900  0.20785  Biso   1.000  C
  C67      1.0000 0.37580  0.07100  0.70785  Biso   1.000  C
  C68      1.0000 0.12420  0.57100  0.79215  Biso   1.000  C
  H33      1.0000 0.65860  0.89980  0.32850  Biso   1.000  H
  H34      1.0000 0.84140  0.39980  0.17150  Biso   1.000  H
  H35      1.0000 0.34140  0.10020  0.67150  Biso   1.000  H
  H36      1.0000 0.15860  0.60020  0.82850  Biso   1.000  H
  C69      1.0000 0.67770  0.90890  0.23352  Biso   1.000  C
  C70      1.0000 0.82230  0.40890  0.26648  Biso   1.000  C
  C71      1.0000 0.32230  0.09110  0.76648  Biso   1.000  C
  C72      1.0000 0.17770  0.59110  0.73352  Biso   1.000  C
  H37      1.0000 0.74940  0.86670  0.23100  Biso   1.000  H
  H38      1.0000 0.75060  0.36670  0.26900  Biso   1.000  H
  H39      1.0000 0.25060  0.13330  0.76900  Biso   1.000  H
  H40      1.0000 0.24940  0.63330  0.73100  Biso   1.000  H
  C73      1.0000 0.46000  0.01450  0.35970  Biso   1.000  C
  C74      1.0000 0.04000  0.51450  0.14030  Biso   1.000  C
  C75      1.0000 0.54000  0.98550  0.64030  Biso   1.000  C
  C76      1.0000 0.96000  0.48550  0.85970  Biso   1.000  C
  C77      1.0000 0.79440  0.75539  0.02344  Biso   1.000  C
  C78      1.0000 0.70560  0.25539  0.47656  Biso   1.000  C
  C79      1.0000 0.20560  0.24461  0.97656  Biso   1.000  C
  C80      1.0000 0.29440  0.74461  0.52344  Biso   1.000  C
  C81      1.0000 0.91910  0.73870  0.98323  Biso   1.000  C
  C82      1.0000 0.58090  0.23870  0.51677  Biso   1.000  C
  C83      1.0000 0.08090  0.26130  0.01677  Biso   1.000  C
  C84      1.0000 0.41910  0.76130  0.48323  Biso   1.000  C
  H41      1.0000 0.96890  0.77780  0.96160  Biso   1.000  H
  H42      1.0000 0.53110  0.27780  0.53840  Biso   1.000  H
  H43      1.0000 0.03110  0.22220  0.03840  Biso   1.000  H
  H44      1.0000 0.46890  0.72220  0.46160  Biso   1.000  H
  C85      1.0000 0.96950  0.66470  0.97522  Biso   1.000  C
  C86      1.0000 0.53050  0.16470  0.52478  Biso   1.000  C
  C87      1.0000 0.03050  0.33530  0.02478  Biso   1.000  C
  C88      1.0000 0.46950  0.83530  0.47522  Biso   1.000  C
  H45      1.0000 0.05430  0.65490  0.94830  Biso   1.000  H
  H46      1.0000 0.44570  0.15490  0.55170  Biso   1.000  H
  H47      1.0000 0.94570  0.34510  0.05170  Biso   1.000  H
  H48      1.0000 0.55430  0.84510  0.44830  Biso   1.000  H
  C89      1.0000 0.77320  0.62140  0.04100  Biso   1.000  C
  C90      1.0000 0.72680  0.12140  0.45900  Biso   1.000  C
  C91      1.0000 0.22680  0.37860  0.95900  Biso   1.000  C
  C92      1.0000 0.27320  0.87860  0.54100  Biso   1.000  C
  H49      1.0000 0.71970  0.58110  0.05980  Biso   1.000  H
  H50      1.0000 0.78030  0.08110  0.44020  Biso   1.000  H
  H51      1.0000 0.28030  0.41890  0.94020  Biso   1.000  H
  H52      1.0000 0.21970  0.91890  0.55980  Biso   1.000  H
  C93      1.0000 0.71770  0.69420  0.05158  Biso   1.000  C
  C94      1.0000 0.78230  0.19420  0.44842  Biso   1.000  C
  C95      1.0000 0.28230  0.30580  0.94842  Biso   1.000  C
  C96      1.0000 0.21770  0.80580  0.55158  Biso   1.000  C
  H53      1.0000 0.62940  0.70250  0.07740  Biso   1.000  H
  H54      1.0000 0.87060  0.20250  0.42260  Biso   1.000  H
  H55      1.0000 0.37060  0.29750  0.92260  Biso   1.000  H
  H56      1.0000 0.12940  0.79750  0.57740  Biso   1.000  H
  N1       1.0000 0.69250  0.98644  0.07362  Biso   1.000  N
  N2       1.0000 0.80750  0.48644  0.42638  Biso   1.000  N
  N3       1.0000 0.30750  0.01356  0.92638  Biso   1.000  N
  N4       1.0000 0.19250  0.51356  0.57362  Biso   1.000  N
  N5       1.0000 0.90100  0.60580  0.00477  Biso   1.000  N
  N6       1.0000 0.59900  0.10580  0.49523  Biso   1.000  N
  N7       1.0000 0.09900  0.39420  0.99523  Biso   1.000  N
  N8       1.0000 0.40100  0.89420  0.50477  Biso   1.000  N
  O1       1.0000 0.53130  0.98064  0.40897  Biso   1.000  O
  O2       1.0000 0.96870  0.48064  0.09103  Biso   1.000  O
  O3       1.0000 0.46870  0.01936  0.59103  Biso   1.000  O
  O4       1.0000 0.03130  0.51936  0.90897  Biso   1.000  O
  O5       1.0000 0.34180  0.06386  0.35908  Biso   1.000  O
  O6       1.0000 0.15820  0.56386  0.14092  Biso   1.000  O
  O7       1.0000 0.65820  0.93614  0.64092  Biso   1.000  O
  O8       1.0000 0.84180  0.43614  0.85908  Biso   1.000  O
  O9       1.0000 0.93970  0.23445  0.81944  Biso   1.000  O
  O10      1.0000 0.56030  0.73445  0.68056  Biso   1.000  O
  O11      1.0000 0.06030  0.76555  0.18056  Biso   1.000  O
  O12      1.0000 0.43970  0.26555  0.31944  Biso   1.000  O
  O13      1.0000 0.76730  0.29571  0.88094  Biso   1.000  O
  O14      1.0000 0.73270  0.79571  0.61906  Biso   1.000  O
  O15      1.0000 0.23270  0.70429  0.11906  Biso   1.000  O
  O16      1.0000 0.26730  0.20429  0.38094  Biso   1.000  O
  H57      1.0000 0.79160  0.33240  0.85950  Biso   1.000  H
  H58      1.0000 0.70840  0.83240  0.64050  Biso   1.000  H
  H59      1.0000 0.20840  0.66760  0.14050  Biso   1.000  H
  H60      1.0000 0.29160  0.16760  0.35950  Biso   1.000  H
  O17      1.0000 0.30190  0.54357  0.02770  Biso   1.000  O
  O18      1.0000 0.19810  0.04357  0.47230  Biso   1.000  O
  O19      1.0000 0.69810  0.45643  0.97230  Biso   1.000  O
  O20      1.0000 0.80190  0.95643  0.52770  Biso   1.000  O
  H61      1.0000 0.32360  0.58470  0.00870  Biso   1.000  H
  H62      1.0000 0.17640  0.08470  0.49130  Biso   1.000  H
  H63      1.0000 0.67640  0.41530  0.99130  Biso   1.000  H
  H64      1.0000 0.82360  0.91530  0.50870  Biso   1.000  H
  H65      1.0000 0.28280  0.55520  0.06560  Biso   1.000  H
  H66      1.0000 0.21720  0.05520  0.43440  Biso   1.000  H
  H67      1.0000 0.71720  0.44480  0.93440  Biso   1.000  H
  H68      1.0000 0.78280  0.94480  0.56560  Biso   1.000  H
  C97      1.0000 0.66920  0.64060  0.82800  Biso   1.000  C
  C98      1.0000 0.83080  0.14060  0.67200  Biso   1.000  C
  C99      1.0000 0.33080  0.35940  0.17200  Biso   1.000  C
  C100     1.0000 0.16920  0.85940  0.32800  Biso   1.000  C
  H69      1.0000 0.70590  0.67730  0.79840  Biso   1.000  H
  H70      1.0000 0.79410  0.17730  0.70160  Biso   1.000  H
  H71      1.0000 0.29410  0.32270  0.20160  Biso   1.000  H
  H72      1.0000 0.20590  0.82270  0.29840  Biso   1.000  H
  H73      1.0000 0.61440  0.59840  0.80450  Biso   1.000  H
  H74      1.0000 0.88560  0.09840  0.69550  Biso   1.000  H
  H75      1.0000 0.38560  0.40160  0.19550  Biso   1.000  H
  H76      1.0000 0.11440  0.90160  0.30450  Biso   1.000  H
  H77      1.0000 0.76890  0.62290  0.85580  Biso   1.000  H
  H78      1.0000 0.73110  0.12290  0.64420  Biso   1.000  H
  H79      1.0000 0.23110  0.37710  0.14420  Biso   1.000  H
  H80      1.0000 0.26890  0.87710  0.35580  Biso   1.000  H
  C101     1.0000 0.51180  0.75580  0.85570  Biso   1.000  C
  C102     1.0000 0.98820  0.25580  0.64430  Biso   1.000  C
  C103     1.0000 0.48820  0.24420  0.14430  Biso   1.000  C
  C104     1.0000 0.01180  0.74420  0.35570  Biso   1.000  C
  H81      1.0000 0.57390  0.77410  0.82170  Biso   1.000  H
  H82      1.0000 0.92610  0.27410  0.67830  Biso   1.000  H
  H83      1.0000 0.42610  0.22590  0.17830  Biso   1.000  H
  H84      1.0000 0.07390  0.72590  0.32170  Biso   1.000  H
  H85      1.0000 0.54930  0.78330  0.89450  Biso   1.000  H
  H86      1.0000 0.95070  0.28330  0.60550  Biso   1.000  H
  H87      1.0000 0.45070  0.21670  0.10550  Biso   1.000  H
  H88      1.0000 0.04930  0.71670  0.39450  Biso   1.000  H
  H89      1.0000 0.38890  0.76330  0.84420  Biso   1.000  H
  H90      1.0000 0.11110  0.26330  0.65580  Biso   1.000  H
  H91      1.0000 0.61110  0.23670  0.15580  Biso   1.000  H
  H92      1.0000 0.88890  0.73670  0.34420  Biso   1.000  H
  C105     1.0000 0.47700  0.63640  0.91030  Biso   1.000  C
  C106     1.0000 0.02300  0.13640  0.58970  Biso   1.000  C
  C107     1.0000 0.52300  0.36360  0.08970  Biso   1.000  C
  C108     1.0000 0.97700  0.86360  0.41030  Biso   1.000  C
  H93      1.0000 0.50820  0.58540  0.91570  Biso   1.000  H
  H94      1.0000 0.99180  0.08540  0.58430  Biso   1.000  H
  H95      1.0000 0.49180  0.41460  0.08430  Biso   1.000  H
  H96      1.0000 0.00820  0.91460  0.41570  Biso   1.000  H
  N9       1.0000 0.54710  0.67550  0.86585  Biso   1.000  N
  N10      1.0000 0.95290  0.17550  0.63415  Biso   1.000  N
  N11      1.0000 0.45290  0.32450  0.13415  Biso   1.000  N
  N12      1.0000 0.04710  0.82450  0.36585  Biso   1.000  N
  O21      1.0000 0.37400  0.66240  0.94502  Biso   1.000  O
  O22      1.0000 0.12600  0.16240  0.55498  Biso   1.000  O
  O23      1.0000 0.62600  0.33760  0.05498  Biso   1.000  O
  O24      1.0000 0.87400  0.83760  0.44502  Biso   1.000  O
  C109     1.0000 0.45170  0.27690  0.74430  Biso   1.000  C
  C110     1.0000 0.04830  0.77690  0.75570  Biso   1.000  C
  C111     1.0000 0.54830  0.72310  0.25570  Biso   1.000  C
  C112     1.0000 0.95170  0.22310  0.24430  Biso   1.000  C
  H97      1.0000 0.41530  0.26420  0.78520  Biso   1.000  H
  H98      1.0000 0.08470  0.76420  0.71480  Biso   1.000  H
  H99      1.0000 0.58470  0.73580  0.21480  Biso   1.000  H
  H100     1.0000 0.91530  0.23580  0.28520  Biso   1.000  H
  H101     1.0000 0.56560  0.25610  0.74140  Biso   1.000  H
  H102     1.0000 0.93440  0.75610  0.75860  Biso   1.000  H
  H103     1.0000 0.43440  0.74390  0.25860  Biso   1.000  H
  H104     1.0000 0.06560  0.24390  0.24140  Biso   1.000  H
  H105     1.0000 0.37030  0.25620  0.71050  Biso   1.000  H
  H106     1.0000 0.12970  0.75620  0.78950  Biso   1.000  H
  H107     1.0000 0.62970  0.74380  0.28950  Biso   1.000  H
  H108     1.0000 0.87030  0.24380  0.21050  Biso   1.000  H
  C113     1.0000 0.40630  0.39700  0.79100  Biso   1.000  C
  C114     1.0000 0.09370  0.89700  0.70900  Biso   1.000  C
  C115     1.0000 0.59370  0.60300  0.20900  Biso   1.000  C
  C116     1.0000 0.90630  0.10300  0.29100  Biso   1.000  C
  H109     1.0000 0.37870  0.36130  0.82300  Biso   1.000  H
  H110     1.0000 0.12130  0.86130  0.67700  Biso   1.000  H
  H111     1.0000 0.62130  0.63870  0.17700  Biso   1.000  H
  H112     1.0000 0.87870  0.13870  0.32300  Biso   1.000  H
  H113     1.0000 0.30540  0.42740  0.77720  Biso   1.000  H
  H114     1.0000 0.19460  0.92740  0.72280  Biso   1.000  H
  H115     1.0000 0.69460  0.57260  0.22280  Biso   1.000  H
  H116     1.0000 0.80540  0.07260  0.27720  Biso   1.000  H
  H117     1.0000 0.49990  0.42940  0.80880  Biso   1.000  H
  H118     1.0000 0.00010  0.92940  0.69120  Biso   1.000  H
  H119     1.0000 0.50010  0.57060  0.19120  Biso   1.000  H
  H120     1.0000 0.99990  0.07060  0.30880  Biso   1.000  H
  C117     1.0000 0.50280  0.38640  0.68770  Biso   1.000  C
  C118     1.0000 0.99720  0.88640  0.81230  Biso   1.000  C
  C119     1.0000 0.49720  0.61360  0.31230  Biso   1.000  C
  C120     1.0000 0.00280  0.11360  0.18770  Biso   1.000  C
  H121     1.0000 0.48600  0.43870  0.68340  Biso   1.000  H
  H122     1.0000 0.01400  0.93870  0.81660  Biso   1.000  H
  H123     1.0000 0.51400  0.56130  0.31660  Biso   1.000  H
  H124     1.0000 0.98600  0.06130  0.18340  Biso   1.000  H
  N13      1.0000 0.45760  0.35700  0.73780  Biso   1.000  N
  N14      1.0000 0.04240  0.85700  0.76220  Biso   1.000  N
  N15      1.0000 0.54240  0.64300  0.26220  Biso   1.000  N
  N16      1.0000 0.95760  0.14300  0.23780  Biso   1.000  N
  O25      1.0000 0.56700  0.35450  0.64330  Biso   1.000  O
  O26      1.0000 0.93300  0.85450  0.85670  Biso   1.000  O
  O27      1.0000 0.43300  0.64550  0.35670  Biso   1.000  O
  O28      1.0000 0.06700  0.14550  0.14330  Biso   1.000  O
