data_image0
_cell_length_a       7.9208
_cell_length_b       10.2954
_cell_length_c       13.1361
_cell_angle_alpha    72.719
_cell_angle_beta     79.598
_cell_angle_gamma    85.19

_symmetry_space_group_name_H-M    "P 1"
_symmetry_int_tables_number       1

loop_
  _symmetry_equiv_pos_as_xyz
  'x, y, z'

loop_
  _atom_site_label
  _atom_site_occupancy
  _atom_site_fract_x
  _atom_site_fract_y
  _atom_site_fract_z
  _atom_site_thermal_displace_type
  _atom_site_B_iso_or_equiv
  _atom_site_type_symbol
  Cu1      1.0000 0.26503  0.84893  0.06017  Biso   1.000  Cu
  Cu2      1.0000 0.73497  0.15107  0.93983  Biso   1.000  Cu
  O1       1.0000 0.16250  0.79750  0.95555  Biso   1.000  O
  O2       1.0000 0.83750  0.20250  0.04445  Biso   1.000  O
  O3       1.0000 0.32100  0.95450  0.83259  Biso   1.000  O
  O4       1.0000 0.67900  0.04550  0.16741  Biso   1.000  O
  O5       1.0000 0.94220  0.04900  0.89152  Biso   1.000  O
  O6       1.0000 0.05780  0.95100  0.10848  Biso   1.000  O
  O7       1.0000 0.30990  0.70030  0.74662  Biso   1.000  O
  O8       1.0000 0.69010  0.29970  0.25338  Biso   1.000  O
  O9       1.0000 0.57550  0.90240  0.35639  Biso   1.000  O
  O10      1.0000 0.42450  0.09760  0.64361  Biso   1.000  O
  H1       1.0000 0.61940  0.95140  0.29760  Biso   1.000  H
  H2       1.0000 0.38060  0.04860  0.70240  Biso   1.000  H
  O11      1.0000 0.70640  0.06070  0.82800  Biso   1.000  O
  O12      1.0000 0.29360  0.93930  0.17200  Biso   1.000  O
  O13      1.0000 0.80120  0.36310  0.79222  Biso   1.000  O
  O14      1.0000 0.19880  0.63690  0.20778  Biso   1.000  O
  N1       1.0000 0.49720  0.76880  0.03590  Biso   1.000  N
  N2       1.0000 0.50280  0.23120  0.96410  Biso   1.000  N
  O15      1.0000 0.80790  0.77490  0.33110  Biso   1.000  O
  O16      1.0000 0.19210  0.22510  0.66890  Biso   1.000  O
  O17      1.0000 0.90250  0.35930  0.62240  Biso   1.000  O
  O18      1.0000 0.09750  0.64070  0.37760  Biso   1.000  O
  H3       1.0000 0.98360  0.31590  0.64870  Biso   1.000  H
  H4       1.0000 0.01640  0.68410  0.35130  Biso   1.000  H
  C1       1.0000 0.85980  0.01720  0.83030  Biso   1.000  C
  C2       1.0000 0.14020  0.98280  0.16970  Biso   1.000  C
  C3       1.0000 0.09830  0.86230  0.77810  Biso   1.000  C
  C4       1.0000 0.90170  0.13770  0.22190  Biso   1.000  C
  C5       1.0000 0.20020  0.87510  0.86100  Biso   1.000  C
  C6       1.0000 0.79980  0.12490  0.13900  Biso   1.000  C
  C7       1.0000 0.68210  0.51840  0.64710  Biso   1.000  C
  C8       1.0000 0.31790  0.48160  0.35290  Biso   1.000  C
  C9       1.0000 0.54210  0.55590  0.71470  Biso   1.000  C
  C10      1.0000 0.45790  0.44410  0.28530  Biso   1.000  C
  H5       1.0000 0.51650  0.50550  0.78690  Biso   1.000  H
  H6       1.0000 0.48350  0.49450  0.21310  Biso   1.000  H
  C11      1.0000 0.44170  0.66960  0.67270  Biso   1.000  C
  C12      1.0000 0.55830  0.33040  0.32730  Biso   1.000  C
  C13      1.0000 0.61240  0.77820  0.09570  Biso   1.000  C
  C14      1.0000 0.38760  0.22180  0.90430  Biso   1.000  C
  H7       1.0000 0.58750  0.83610  0.13940  Biso   1.000  H
  H8       1.0000 0.41250  0.16390  0.86060  Biso   1.000  H
  C15      1.0000 0.94130  0.93060  0.76110  Biso   1.000  C
  C16      1.0000 0.05870  0.06940  0.23890  Biso   1.000  C
  C17      1.0000 0.80760  0.61750  0.03380  Biso   1.000  C
  C18      1.0000 0.19240  0.38250  0.96620  Biso   1.000  C
  C19      1.0000 0.16470  0.77680  0.71560  Biso   1.000  C
  C20      1.0000 0.83530  0.22320  0.28440  Biso   1.000  C
  C21      1.0000 0.71900  0.59320  0.53960  Biso   1.000  C
  C22      1.0000 0.28100  0.40680  0.46040  Biso   1.000  C
  H9       1.0000 0.80930  0.56570  0.49390  Biso   1.000  H
  H10      1.0000 0.19070  0.43430  0.50610  Biso   1.000  H
  C23      1.0000 0.62050  0.70980  0.50010  Biso   1.000  C
  C24      1.0000 0.37950  0.29020  0.49990  Biso   1.000  C
  C25      1.0000 0.48110  0.74850  0.56630  Biso   1.000  C
  C26      1.0000 0.51890  0.25150  0.43370  Biso   1.000  C
  H11      1.0000 0.41500  0.82620  0.53980  Biso   1.000  H
  H12      1.0000 0.58500  0.17380  0.46020  Biso   1.000  H
  C27      1.0000 0.67670  0.79780  0.38740  Biso   1.000  C
  C28      1.0000 0.32330  0.20220  0.61260  Biso   1.000  C
  C29      1.0000 0.76610  0.70620  0.09570  Biso   1.000  C
  C30      1.0000 0.23390  0.29380  0.90430  Biso   1.000  C
  H13      1.0000 0.84310  0.71730  0.13790  Biso   1.000  H
  H14      1.0000 0.15690  0.28270  0.86210  Biso   1.000  H
  C31      1.0000 0.79940  0.40530  0.69630  Biso   1.000  C
  C32      1.0000 0.20060  0.59470  0.30370  Biso   1.000  C
  C33      1.0000 0.96540  0.52900  0.04260  Biso   1.000  C
  C34      1.0000 0.03460  0.47100  0.95740  Biso   1.000  C
  H15      1.0000 0.05450  0.58180  0.05180  Biso   1.000  H
  H16      1.0000 0.94550  0.41820  0.94820  Biso   1.000  H
  H17      1.0000 0.94230  0.45480  0.10850  Biso   1.000  H
  H18      1.0000 0.05770  0.54520  0.89150  Biso   1.000  H
  C35      1.0000 0.54080  0.68970  0.97030  Biso   1.000  C
  C36      1.0000 0.45920  0.31030  0.02970  Biso   1.000  C
  H19      1.0000 0.46560  0.68610  0.92450  Biso   1.000  H
  H20      1.0000 0.53440  0.31390  0.07550  Biso   1.000  H
  C37      1.0000 0.69080  0.61370  0.96750  Biso   1.000  C
  C38      1.0000 0.30920  0.38630  0.03250  Biso   1.000  C
  H21      1.0000 0.71480  0.55930  0.92100  Biso   1.000  H
  H22      1.0000 0.28520  0.44070  0.07900  Biso   1.000  H
  C39      1.0000 0.08400  0.76130  0.63530  Biso   1.000  C
  C40      1.0000 0.91600  0.23870  0.36470  Biso   1.000  C
  H23      1.0000 0.13090  0.70330  0.59440  Biso   1.000  H
  H24      1.0000 0.86910  0.29670  0.40560  Biso   1.000  H
  C41      1.0000 0.86000  0.91620  0.68050  Biso   1.000  C
  C42      1.0000 0.14000  0.08380  0.31950  Biso   1.000  C
  H25      1.0000 0.75610  0.96250  0.66890  Biso   1.000  H
  H26      1.0000 0.24390  0.03750  0.33110  Biso   1.000  H
  C43      1.0000 0.93180  0.83390  0.61710  Biso   1.000  C
  C44      1.0000 0.06820  0.16610  0.38290  Biso   1.000  C
  H27      1.0000 0.87760  0.82710  0.56180  Biso   1.000  H
  H28      1.0000 0.12240  0.17290  0.43820  Biso   1.000  H
