data_image0
_cell_length_a       10.389
_cell_length_b       11.092
_cell_length_c       12.105
_cell_angle_alpha    63.47
_cell_angle_beta     79.75
_cell_angle_gamma    71.08

_symmetry_space_group_name_H-M    "P 1"
_symmetry_int_tables_number       1

loop_
  _symmetry_equiv_pos_as_xyz
  'x, y, z'

loop_
  _atom_site_label
  _atom_site_occupancy
  _atom_site_fract_x
  _atom_site_fract_y
  _atom_site_fract_z
  _atom_site_thermal_displace_type
  _atom_site_B_iso_or_equiv
  _atom_site_type_symbol
  Cu1      1.0000 0.38105  0.33009  0.12726  Biso   1.000  Cu
  Cu2      1.0000 0.61895  0.66991  0.87274  Biso   1.000  Cu
  N1       1.0000 0.38700  0.12630  0.21050  Biso   1.000  N
  N2       1.0000 0.61300  0.87370  0.78950  Biso   1.000  N
  N3       1.0000 0.75960  0.62780  0.98970  Biso   1.000  N
  N4       1.0000 0.24040  0.37220  0.01030  Biso   1.000  N
  N5       1.0000 0.34220  0.72120  0.36370  Biso   1.000  N
  N6       1.0000 0.65780  0.27880  0.63630  Biso   1.000  N
  H1       1.0000 0.35300  0.68600  0.31100  Biso   1.000  H
  H2       1.0000 0.64700  0.31400  0.68900  Biso   1.000  H
  N7       1.0000 0.05550  0.51020  0.24160  Biso   1.000  N
  N8       1.0000 0.94450  0.48980  0.75840  Biso   1.000  N
  H3       1.0000 0.11100  0.56200  0.21400  Biso   1.000  H
  H4       1.0000 0.88900  0.43800  0.78600  Biso   1.000  H
  O1       1.0000 0.34410  0.53230  0.06190  Biso   1.000  O
  O2       1.0000 0.65590  0.46770  0.93810  Biso   1.000  O
  O3       1.0000 0.43490  0.57890  0.20428  Biso   1.000  O
  O4       1.0000 0.56510  0.42110  0.79572  Biso   1.000  O
  O5       1.0000 0.22290  0.72650  0.10900  Biso   1.000  O
  O6       1.0000 0.77710  0.27350  0.89100  Biso   1.000  O
  O7       1.0000 0.43220  0.72940  0.98720  Biso   1.000  O
  O8       1.0000 0.56780  0.27060  0.01280  Biso   1.000  O
  O9       1.0000 0.46860  0.30560  0.26950  Biso   1.000  O
  O10      1.0000 0.53140  0.69440  0.73050  Biso   1.000  O
  H5       1.0000 0.54460  0.25100  0.28400  Biso   1.000  H
  H6       1.0000 0.45540  0.74900  0.71600  Biso   1.000  H
  H7       1.0000 0.47400  0.38360  0.25100  Biso   1.000  H
  H8       1.0000 0.52600  0.61640  0.74900  Biso   1.000  H
  O11      1.0000 0.34480  0.65180  0.57191  Biso   1.000  O
  O12      1.0000 0.65520  0.34820  0.42809  Biso   1.000  O
  O13      1.0000 0.03070  0.29960  0.38410  Biso   1.000  O
  O14      1.0000 0.96930  0.70040  0.61590  Biso   1.000  O
  C1       1.0000 0.40350  0.05210  0.14350  Biso   1.000  C
  C2       1.0000 0.59650  0.94790  0.85650  Biso   1.000  C
  H9       1.0000 0.42390  0.09420  0.05930  Biso   1.000  H
  H10      1.0000 0.57610  0.90580  0.94070  Biso   1.000  H
  C3       1.0000 0.39190  0.91930  0.19210  Biso   1.000  C
  C4       1.0000 0.60810  0.08070  0.80790  Biso   1.000  C
  H11      1.0000 0.40330  0.87310  0.14160  Biso   1.000  H
  H12      1.0000 0.59670  0.12690  0.85840  Biso   1.000  H
  C5       1.0000 0.36260  0.85240  0.31900  Biso   1.000  C
  C6       1.0000 0.63740  0.14760  0.68100  Biso   1.000  C
  C7       1.0000 0.35090  0.92580  0.39020  Biso   1.000  C
  C8       1.0000 0.64910  0.07420  0.60980  Biso   1.000  C
  H13      1.0000 0.33470  0.88490  0.47530  Biso   1.000  H
  H14      1.0000 0.66530  0.11510  0.52470  Biso   1.000  H
  C9       1.0000 0.36380  0.05920  0.33200  Biso   1.000  C
  C10      1.0000 0.63620  0.94080  0.66800  Biso   1.000  C
  H15      1.0000 0.35590  0.10690  0.38050  Biso   1.000  H
  H16      1.0000 0.64410  0.89310  0.61950  Biso   1.000  H
  C11      1.0000 0.32580  0.63240  0.48600  Biso   1.000  C
  C12      1.0000 0.67420  0.36760  0.51400  Biso   1.000  C
  C13      1.0000 0.28400  0.50790  0.50390  Biso   1.000  C
  C14      1.0000 0.71600  0.49210  0.49610  Biso   1.000  C
  C15      1.0000 0.32200  0.38560  0.61120  Biso   1.000  C
  C16      1.0000 0.67800  0.61440  0.38880  Biso   1.000  C
  H17      1.0000 0.37190  0.38240  0.66960  Biso   1.000  H
  H18      1.0000 0.62810  0.61760  0.33040  Biso   1.000  H
  C17      1.0000 0.28420  0.26930  0.62950  Biso   1.000  C
  C18      1.0000 0.71580  0.73070  0.37050  Biso   1.000  C
  H19      1.0000 0.30990  0.18690  0.70030  Biso   1.000  H
  H20      1.0000 0.69010  0.81310  0.29970  Biso   1.000  H
  C19      1.0000 0.20900  0.27400  0.54400  Biso   1.000  C
  C20      1.0000 0.79100  0.72600  0.45600  Biso   1.000  C
  H21      1.0000 0.18540  0.19440  0.55720  Biso   1.000  H
  H22      1.0000 0.81460  0.80560  0.44280  Biso   1.000  H
  C21      1.0000 0.16800  0.39700  0.43780  Biso   1.000  C
  C22      1.0000 0.83200  0.60300  0.56220  Biso   1.000  C
  C23      1.0000 0.20610  0.51330  0.41890  Biso   1.000  C
  C24      1.0000 0.79390  0.48670  0.58110  Biso   1.000  C
  H23      1.0000 0.17930  0.59600  0.34850  Biso   1.000  H
  H24      1.0000 0.82070  0.40400  0.65150  Biso   1.000  H
  C25      1.0000 0.07950  0.39640  0.35300  Biso   1.000  C
  C26      1.0000 0.92050  0.60360  0.64700  Biso   1.000  C
  C27      1.0000 0.95740  0.54370  0.15900  Biso   1.000  C
  C28      1.0000 0.04260  0.45630  0.84100  Biso   1.000  C
  C29      1.0000 0.96350  0.64710  0.04090  Biso   1.000  C
  C30      1.0000 0.03650  0.35290  0.95910  Biso   1.000  C
  H25      1.0000 0.03300  0.69070  0.01660  Biso   1.000  H
  H26      1.0000 0.96700  0.30930  0.98340  Biso   1.000  H
  C31      1.0000 0.86520  0.68460  0.95940  Biso   1.000  C
  C32      1.0000 0.13480  0.31540  0.04060  Biso   1.000  C
  H27      1.0000 0.87180  0.75240  0.87960  Biso   1.000  H
  H28      1.0000 0.12820  0.24760  0.12040  Biso   1.000  H
  C33      1.0000 0.75770  0.52720  0.10450  Biso   1.000  C
  C34      1.0000 0.24230  0.47280  0.89550  Biso   1.000  C
  H29      1.0000 0.68710  0.48530  0.12750  Biso   1.000  H
  H30      1.0000 0.31290  0.51470  0.87250  Biso   1.000  H
  C35      1.0000 0.85240  0.48170  0.19020  Biso   1.000  C
  C36      1.0000 0.14760  0.51830  0.80980  Biso   1.000  C
  H31      1.0000 0.84620  0.41040  0.26820  Biso   1.000  H
  H32      1.0000 0.15380  0.58960  0.73180  Biso   1.000  H
  S1       1.0000 0.35897  0.64365  0.09048  Biso   1.000  S
  S2       1.0000 0.64103  0.35635  0.90952  Biso   1.000  S
  N9       1.0000 0.08720  0.97320  0.75260  Biso   1.000  N
  N10      1.0000 0.91280  0.02680  0.24740  Biso   1.000  N
  O15      1.0000 0.28840  0.87350  0.68490  Biso   1.000  O
  O16      1.0000 0.71160  0.12650  0.31510  Biso   1.000  O
  C37      1.0000 0.21860  0.91100  0.76130  Biso   1.000  C
  C38      1.0000 0.78140  0.08900  0.23870  Biso   1.000  C
  H33      1.0000 0.26050  0.89470  0.83040  Biso   1.000  H
  H34      1.0000 0.73950  0.10530  0.16960  Biso   1.000  H
  C39      1.0000 0.01110  0.02770  0.83950  Biso   1.000  C
  C40      1.0000 0.98890  0.97230  0.16050  Biso   1.000  C
  H35      1.0000 0.07170  0.01570  0.89720  Biso   1.000  H
  H36      1.0000 0.92830  0.98430  0.10280  Biso   1.000  H
  H37      1.0000 0.94410  0.97830  0.88320  Biso   1.000  H
  H38      1.0000 0.05590  0.02170  0.11680  Biso   1.000  H
  H39      1.0000 0.96640  0.12570  0.79620  Biso   1.000  H
  H40      1.0000 0.03360  0.87430  0.20380  Biso   1.000  H
  C41      1.0000 0.01590  0.99250  0.64980  Biso   1.000  C
  C42      1.0000 0.98410  0.00750  0.35020  Biso   1.000  C
  H41      1.0000 0.07780  0.94840  0.60090  Biso   1.000  H
  H42      1.0000 0.92220  0.05160  0.39910  Biso   1.000  H
  H43      1.0000 0.98120  0.09090  0.59940  Biso   1.000  H
  H44      1.0000 0.01880  0.90910  0.40060  Biso   1.000  H
  H45      1.0000 0.94170  0.95090  0.68140  Biso   1.000  H
  H46      1.0000 0.05830  0.04910  0.31860  Biso   1.000  H
