data_image0
_cell_length_a       9.0686
_cell_length_b       11.2199
_cell_length_c       12.0883
_cell_angle_alpha    115.102
_cell_angle_beta     104.812
_cell_angle_gamma    93.484

_symmetry_space_group_name_H-M    "P 1"
_symmetry_int_tables_number       1

loop_
  _symmetry_equiv_pos_as_xyz
  'x, y, z'

loop_
  _atom_site_label
  _atom_site_occupancy
  _atom_site_fract_x
  _atom_site_fract_y
  _atom_site_fract_z
  _atom_site_thermal_displace_type
  _atom_site_B_iso_or_equiv
  _atom_site_type_symbol
  Cu1      1.0000 0.00000  0.50000  0.50000  Biso   1.000  Cu
  S1       1.0000 0.03559  0.86696  0.72789  Biso   1.000  S
  S2       1.0000 0.96441  0.13304  0.27211  Biso   1.000  S
  F1       1.0000 0.15610  0.08460  0.94660  Biso   1.000  F
  F2       1.0000 0.84390  0.91540  0.05340  Biso   1.000  F
  F3       1.0000 0.30970  0.94490  0.90350  Biso   1.000  F
  F4       1.0000 0.69030  0.05510  0.09650  Biso   1.000  F
  O1       1.0000 0.05100  0.72910  0.69370  Biso   1.000  O
  O2       1.0000 0.94900  0.27090  0.30630  Biso   1.000  O
  F5       1.0000 0.12120  0.90420  0.96610  Biso   1.000  F
  F6       1.0000 0.87880  0.09580  0.03390  Biso   1.000  F
  O3       1.0000 0.88790  0.89860  0.73970  Biso   1.000  O
  O4       1.0000 0.11210  0.10140  0.26030  Biso   1.000  O
  N1       1.0000 0.60440  0.63930  0.44100  Biso   1.000  N
  N2       1.0000 0.39560  0.36070  0.55900  Biso   1.000  N
  N3       1.0000 0.77590  0.51700  0.44230  Biso   1.000  N
  N4       1.0000 0.22410  0.48300  0.55770  Biso   1.000  N
  N5       1.0000 0.04720  0.58460  0.39170  Biso   1.000  N
  N6       1.0000 0.95280  0.41540  0.60830  Biso   1.000  N
  N7       1.0000 0.14770  0.74580  0.36730  Biso   1.000  N
  N8       1.0000 0.85230  0.25420  0.63270  Biso   1.000  N
  C1       1.0000 0.75580  0.64040  0.48310  Biso   1.000  C
  C2       1.0000 0.24420  0.35960  0.51690  Biso   1.000  C
  H1       1.0000 0.83540  0.71820  0.53440  Biso   1.000  H
  H2       1.0000 0.16460  0.28180  0.46560  Biso   1.000  H
  C3       1.0000 0.15400  0.69060  0.44370  Biso   1.000  C
  C4       1.0000 0.84600  0.30940  0.55630  Biso   1.000  C
  H3       1.0000 0.22770  0.72420  0.52680  Biso   1.000  H
  H4       1.0000 0.77230  0.27580  0.47320  Biso   1.000  H
  O5       1.0000 0.10550  0.92750  0.66510  Biso   1.000  O
  O6       1.0000 0.89450  0.07250  0.33490  Biso   1.000  O
  C5       1.0000 0.52200  0.51040  0.36610  Biso   1.000  C
  C6       1.0000 0.47800  0.48960  0.63390  Biso   1.000  C
  C7       1.0000 0.63400  0.43070  0.36850  Biso   1.000  C
  C8       1.0000 0.36600  0.56930  0.63150  Biso   1.000  C
  C9       1.0000 0.02960  0.67340  0.25590  Biso   1.000  C
  C10      1.0000 0.97040  0.32660  0.74410  Biso   1.000  C
  C11      1.0000 0.96500  0.56640  0.26960  Biso   1.000  C
  C12      1.0000 0.03500  0.43360  0.73040  Biso   1.000  C
  C13      1.0000 0.84080  0.46790  0.17280  Biso   1.000  C
  C14      1.0000 0.15920  0.53210  0.82720  Biso   1.000  C
  H5       1.0000 0.79830  0.39410  0.18160  Biso   1.000  H
  H6       1.0000 0.20170  0.60590  0.81840  Biso   1.000  H
  C15      1.0000 0.36440  0.45920  0.30040  Biso   1.000  C
  C16      1.0000 0.63560  0.54080  0.69960  Biso   1.000  C
  H7       1.0000 0.29050  0.51570  0.30040  Biso   1.000  H
  H8       1.0000 0.70950  0.48430  0.69960  Biso   1.000  H
  C17      1.0000 0.58560  0.28890  0.29560  Biso   1.000  C
  C18      1.0000 0.41440  0.71110  0.70440  Biso   1.000  C
  H9       1.0000 0.65910  0.23140  0.28950  Biso   1.000  H
  H10      1.0000 0.34090  0.76860  0.71050  Biso   1.000  H
  C19      1.0000 0.37340  0.85250  0.33550  Biso   1.000  C
  C20      1.0000 0.62660  0.14750  0.66450  Biso   1.000  C
  C21      1.0000 0.50720  0.80010  0.36550  Biso   1.000  C
  C22      1.0000 0.49280  0.19990  0.63450  Biso   1.000  C
  C23      1.0000 0.25470  0.87230  0.40920  Biso   1.000  C
  C24      1.0000 0.74530  0.12770  0.59080  Biso   1.000  C
  H11      1.0000 0.31090  0.90960  0.50220  Biso   1.000  H
  H12      1.0000 0.68910  0.09040  0.49780  Biso   1.000  H
  H13      1.0000 0.19360  0.93810  0.39640  Biso   1.000  H
  H14      1.0000 0.80640  0.06190  0.60360  Biso   1.000  H
  C25      1.0000 0.43540  0.23970  0.23650  Biso   1.000  C
  C26      1.0000 0.56460  0.76030  0.76350  Biso   1.000  C
  H15      1.0000 0.40170  0.14510  0.19280  Biso   1.000  H
  H16      1.0000 0.59830  0.85490  0.80720  Biso   1.000  H
  C27      1.0000 0.54680  0.76560  0.47580  Biso   1.000  C
  C28      1.0000 0.45320  0.23440  0.52420  Biso   1.000  C
  H17      1.0000 0.62710  0.83890  0.55020  Biso   1.000  H
  H18      1.0000 0.37290  0.16110  0.44980  Biso   1.000  H
  H19      1.0000 0.45300  0.75760  0.50180  Biso   1.000  H
  H20      1.0000 0.54700  0.24240  0.49820  Biso   1.000  H
  C29      1.0000 0.97060  0.68890  0.14440  Biso   1.000  C
  C30      1.0000 0.02940  0.31110  0.85560  Biso   1.000  C
  H21      1.0000 0.01400  0.76160  0.13430  Biso   1.000  H
  H22      1.0000 0.98600  0.23840  0.86570  Biso   1.000  H
  C31      1.0000 0.34820  0.88880  0.23680  Biso   1.000  C
  C32      1.0000 0.65180  0.11120  0.76320  Biso   1.000  C
  H23      1.0000 0.25870  0.92470  0.21650  Biso   1.000  H
  H24      1.0000 0.74130  0.07530  0.78350  Biso   1.000  H
  C33      1.0000 0.32230  0.32120  0.23530  Biso   1.000  C
  C34      1.0000 0.67770  0.67880  0.76470  Biso   1.000  C
  H25      1.0000 0.21620  0.28030  0.18910  Biso   1.000  H
  H26      1.0000 0.78380  0.71970  0.81090  Biso   1.000  H
  C35      1.0000 0.61010  0.78570  0.29470  Biso   1.000  C
  C36      1.0000 0.38990  0.21430  0.70530  Biso   1.000  C
  H27      1.0000 0.70110  0.75180  0.31530  Biso   1.000  H
  H28      1.0000 0.29890  0.24820  0.68470  Biso   1.000  H
  C37      1.0000 0.16200  0.95480  0.89430  Biso   1.000  C
  C38      1.0000 0.83800  0.04520  0.10570  Biso   1.000  C
  C39      1.0000 0.58220  0.81990  0.19510  Biso   1.000  C
  C40      1.0000 0.41780  0.18010  0.80490  Biso   1.000  C
  H29      1.0000 0.65190  0.80680  0.14600  Biso   1.000  H
  H30      1.0000 0.34810  0.19320  0.85400  Biso   1.000  H
  C41      1.0000 0.78270  0.48310  0.06370  Biso   1.000  C
  C42      1.0000 0.21730  0.51690  0.93630  Biso   1.000  C
  H31      1.0000 0.69770  0.41840  0.99520  Biso   1.000  H
  H32      1.0000 0.30230  0.58160  0.00480  Biso   1.000  H
  C43      1.0000 0.84690  0.59290  0.05140  Biso   1.000  C
  C44      1.0000 0.15310  0.40710  0.94860  Biso   1.000  C
  H33      1.0000 0.80200  0.60030  0.97500  Biso   1.000  H
  H34      1.0000 0.19800  0.39970  0.02500  Biso   1.000  H
  C45      1.0000 0.45240  0.87340  0.16730  Biso   1.000  C
  C46      1.0000 0.54760  0.12660  0.83270  Biso   1.000  C
  H35      1.0000 0.43440  0.89960  0.10060  Biso   1.000  H
  H36      1.0000 0.56560  0.10040  0.89940  Biso   1.000  H
