data_image0
_cell_length_a       20.891
_cell_length_b       9.2748
_cell_length_c       25.1344
_cell_angle_alpha    90
_cell_angle_beta     114.487
_cell_angle_gamma    90

_symmetry_space_group_name_H-M    "P 1"
_symmetry_int_tables_number       1

loop_
  _symmetry_equiv_pos_as_xyz
  'x, y, z'

loop_
  _atom_site_label
  _atom_site_occupancy
  _atom_site_fract_x
  _atom_site_fract_y
  _atom_site_fract_z
  _atom_site_thermal_displace_type
  _atom_site_B_iso_or_equiv
  _atom_site_type_symbol
  Cu1      1.0000 0.59777  0.46459  0.36627  Biso   1.000  Cu
  Cu2      1.0000 0.90223  0.96459  0.13373  Biso   1.000  Cu
  Cu3      1.0000 0.40223  0.53541  0.63373  Biso   1.000  Cu
  Cu4      1.0000 0.09777  0.03541  0.86627  Biso   1.000  Cu
  N1       1.0000 0.63123  0.53140  0.30656  Biso   1.000  N
  N2       1.0000 0.86877  0.03140  0.19344  Biso   1.000  N
  N3       1.0000 0.36877  0.46860  0.69344  Biso   1.000  N
  N4       1.0000 0.13123  0.96860  0.80656  Biso   1.000  N
  N5       1.0000 0.68251  0.66330  0.26288  Biso   1.000  N
  N6       1.0000 0.81749  0.16330  0.23712  Biso   1.000  N
  N7       1.0000 0.31749  0.33670  0.73712  Biso   1.000  N
  N8       1.0000 0.18251  0.83670  0.76288  Biso   1.000  N
  N9       1.0000 0.58296  0.06520  0.28938  Biso   1.000  N
  N10      1.0000 0.91704  0.56520  0.21062  Biso   1.000  N
  N11      1.0000 0.41704  0.93480  0.71062  Biso   1.000  N
  N12      1.0000 0.08296  0.43480  0.78938  Biso   1.000  N
  N13      1.0000 0.57216  0.27370  0.32613  Biso   1.000  N
  N14      1.0000 0.92784  0.77370  0.17387  Biso   1.000  N
  N15      1.0000 0.42784  0.72630  0.67387  Biso   1.000  N
  N16      1.0000 0.07216  0.22630  0.82613  Biso   1.000  N
  N17      1.0000 0.62161  0.65420  0.40725  Biso   1.000  N
  N18      1.0000 0.87839  0.15420  0.09275  Biso   1.000  N
  N19      1.0000 0.37839  0.34580  0.59275  Biso   1.000  N
  N20      1.0000 0.12161  0.84580  0.90725  Biso   1.000  N
  N21      1.0000 0.66792  0.81320  0.47749  Biso   1.000  N
  N22      1.0000 0.83208  0.31320  0.02251  Biso   1.000  N
  N23      1.0000 0.33208  0.18680  0.52251  Biso   1.000  N
  N24      1.0000 0.16792  0.68680  0.97749  Biso   1.000  N
  N25      1.0000 0.51403  0.68370  0.54096  Biso   1.000  N
  N26      1.0000 0.98597  0.18370  0.95904  Biso   1.000  N
  N27      1.0000 0.48597  0.31630  0.45904  Biso   1.000  N
  N28      1.0000 0.01403  0.81630  0.04096  Biso   1.000  N
  N29      1.0000 0.44050  0.60500  0.57674  Biso   1.000  N
  N30      1.0000 0.05950  0.10500  0.92326  Biso   1.000  N
  N31      1.0000 0.55950  0.39500  0.42326  Biso   1.000  N
  N32      1.0000 0.94050  0.89500  0.07674  Biso   1.000  N
  C1       1.0000 0.67817  0.63420  0.31377  Biso   1.000  C
  C2       1.0000 0.82183  0.13420  0.18623  Biso   1.000  C
  C3       1.0000 0.32183  0.36580  0.68623  Biso   1.000  C
  C4       1.0000 0.17817  0.86580  0.81377  Biso   1.000  C
  H1       1.0000 0.70505  0.68084  0.34984  Biso   1.000  H
  H2       1.0000 0.79495  0.18084  0.15016  Biso   1.000  H
  H3       1.0000 0.29495  0.31916  0.65016  Biso   1.000  H
  H4       1.0000 0.20505  0.81916  0.84984  Biso   1.000  H
  C5       1.0000 0.60545  0.49350  0.24838  Biso   1.000  C
  C6       1.0000 0.89455  0.99350  0.25162  Biso   1.000  C
  C7       1.0000 0.39455  0.50650  0.75162  Biso   1.000  C
  C8       1.0000 0.10545  0.00650  0.74838  Biso   1.000  C
  H5       1.0000 0.57081  0.42162  0.23019  Biso   1.000  H
  H6       1.0000 0.92919  0.92162  0.26981  Biso   1.000  H
  H7       1.0000 0.42919  0.57838  0.76981  Biso   1.000  H
  H8       1.0000 0.07081  0.07838  0.73019  Biso   1.000  H
  C9       1.0000 0.63669  0.57350  0.22113  Biso   1.000  C
  C10      1.0000 0.86331  0.07350  0.27887  Biso   1.000  C
  C11      1.0000 0.36331  0.42650  0.77887  Biso   1.000  C
  C12      1.0000 0.13669  0.92650  0.72113  Biso   1.000  C
  H9       1.0000 0.62860  0.56856  0.18108  Biso   1.000  H
  H10      1.0000 0.87140  0.06856  0.31892  Biso   1.000  H
  H11      1.0000 0.37140  0.43144  0.81892  Biso   1.000  H
  H12      1.0000 0.12860  0.93144  0.68108  Biso   1.000  H
  C13      1.0000 0.72542  0.77860  0.25323  Biso   1.000  C
  C14      1.0000 0.77458  0.27860  0.24677  Biso   1.000  C
  C15      1.0000 0.27458  0.22140  0.74677  Biso   1.000  C
  C16      1.0000 0.22542  0.72140  0.75323  Biso   1.000  C
  H13      1.0000 0.75821  0.73503  0.23850  Biso   1.000  H
  H14      1.0000 0.74179  0.23503  0.26150  Biso   1.000  H
  H15      1.0000 0.24179  0.26497  0.76150  Biso   1.000  H
  H16      1.0000 0.25821  0.76497  0.73850  Biso   1.000  H
  H17      1.0000 0.75389  0.82583  0.29104  Biso   1.000  H
  H18      1.0000 0.74611  0.32583  0.20896  Biso   1.000  H
  H19      1.0000 0.24611  0.17417  0.70896  Biso   1.000  H
  H20      1.0000 0.25389  0.67417  0.79104  Biso   1.000  H
  C17      1.0000 0.68146  0.89080  0.21041  Biso   1.000  C
  C18      1.0000 0.81854  0.39080  0.28959  Biso   1.000  C
  C19      1.0000 0.31854  0.10920  0.78959  Biso   1.000  C
  C20      1.0000 0.18146  0.60920  0.71041  Biso   1.000  C
  C21      1.0000 0.69180  0.91580  0.15956  Biso   1.000  C
  C22      1.0000 0.80820  0.41580  0.34044  Biso   1.000  C
  C23      1.0000 0.30820  0.08420  0.84044  Biso   1.000  C
  C24      1.0000 0.19180  0.58420  0.65956  Biso   1.000  C
  H21      1.0000 0.72451  0.85801  0.15187  Biso   1.000  H
  H22      1.0000 0.77549  0.35801  0.34813  Biso   1.000  H
  H23      1.0000 0.27549  0.14199  0.84813  Biso   1.000  H
  H24      1.0000 0.22451  0.64199  0.65187  Biso   1.000  H
  C25      1.0000 0.65570  0.02160  0.12065  Biso   1.000  C
  C26      1.0000 0.84430  0.52160  0.37935  Biso   1.000  C
  C27      1.0000 0.34430  0.97840  0.87935  Biso   1.000  C
  C28      1.0000 0.15570  0.47840  0.62065  Biso   1.000  C
  H25      1.0000 0.66373  0.03636  0.08650  Biso   1.000  H
  H26      1.0000 0.83627  0.53636  0.41350  Biso   1.000  H
  H27      1.0000 0.33627  0.96364  0.91350  Biso   1.000  H
  H28      1.0000 0.16373  0.46364  0.58650  Biso   1.000  H
  C29      1.0000 0.60740  0.10760  0.13093  Biso   1.000  C
  C30      1.0000 0.89260  0.60760  0.36907  Biso   1.000  C
  C31      1.0000 0.39260  0.89240  0.86907  Biso   1.000  C
  C32      1.0000 0.10740  0.39240  0.63093  Biso   1.000  C
  H29      1.0000 0.58326  0.18271  0.10454  Biso   1.000  H
  H30      1.0000 0.91674  0.68271  0.39546  Biso   1.000  H
  H31      1.0000 0.41674  0.81729  0.89546  Biso   1.000  H
  H32      1.0000 0.08326  0.31729  0.60454  Biso   1.000  H
  C33      1.0000 0.59501  0.08190  0.18057  Biso   1.000  C
  C34      1.0000 0.90499  0.58190  0.31943  Biso   1.000  C
  C35      1.0000 0.40499  0.91810  0.81943  Biso   1.000  C
  C36      1.0000 0.09501  0.41810  0.68057  Biso   1.000  C
  H33      1.0000 0.56121  0.13878  0.18722  Biso   1.000  H
  H34      1.0000 0.93879  0.63878  0.31278  Biso   1.000  H
  H35      1.0000 0.43879  0.86122  0.81278  Biso   1.000  H
  H36      1.0000 0.06121  0.36122  0.68722  Biso   1.000  H
  C37      1.0000 0.63101  0.97520  0.22036  Biso   1.000  C
  C38      1.0000 0.86899  0.47520  0.27964  Biso   1.000  C
  C39      1.0000 0.36899  0.02480  0.77964  Biso   1.000  C
  C40      1.0000 0.13101  0.52480  0.72036  Biso   1.000  C
  C41      1.0000 0.61594  0.94430  0.27321  Biso   1.000  C
  C42      1.0000 0.88406  0.44430  0.22679  Biso   1.000  C
  C43      1.0000 0.38406  0.05570  0.72679  Biso   1.000  C
  C44      1.0000 0.11594  0.55570  0.77321  Biso   1.000  C
  H37      1.0000 0.58466  0.85917  0.26490  Biso   1.000  H
  H38      1.0000 0.91534  0.35917  0.23510  Biso   1.000  H
  H39      1.0000 0.41534  0.14083  0.73510  Biso   1.000  H
  H40      1.0000 0.08466  0.64083  0.76490  Biso   1.000  H
  H41      1.0000 0.66061  0.91997  0.30675  Biso   1.000  H
  H42      1.0000 0.83939  0.41997  0.19325  Biso   1.000  H
  H43      1.0000 0.33939  0.08003  0.69325  Biso   1.000  H
  H44      1.0000 0.16061  0.58003  0.80675  Biso   1.000  H
  C45      1.0000 0.51222  0.08340  0.27510  Biso   1.000  C
  C46      1.0000 0.98778  0.58340  0.22490  Biso   1.000  C
  C47      1.0000 0.48778  0.91660  0.72490  Biso   1.000  C
  C48      1.0000 0.01222  0.41660  0.77510  Biso   1.000  C
  H45      1.0000 0.47520  0.01887  0.25355  Biso   1.000  H
  H46      1.0000 0.02480  0.51887  0.24645  Biso   1.000  H
  H47      1.0000 0.52480  0.98113  0.74645  Biso   1.000  H
  H48      1.0000 0.97520  0.48113  0.75355  Biso   1.000  H
  C49      1.0000 0.50631  0.21270  0.29819  Biso   1.000  C
  C50      1.0000 0.99369  0.71270  0.20181  Biso   1.000  C
  C51      1.0000 0.49369  0.78730  0.70181  Biso   1.000  C
  C52      1.0000 0.00631  0.28730  0.79819  Biso   1.000  C
  H49      1.0000 0.46356  0.25453  0.29550  Biso   1.000  H
  H50      1.0000 0.03644  0.75453  0.20450  Biso   1.000  H
  H51      1.0000 0.53644  0.74547  0.70450  Biso   1.000  H
  H52      1.0000 0.96356  0.24547  0.79550  Biso   1.000  H
  C53      1.0000 0.61677  0.18120  0.31966  Biso   1.000  C
  C54      1.0000 0.88323  0.68120  0.18034  Biso   1.000  C
  C55      1.0000 0.38323  0.81880  0.68034  Biso   1.000  C
  C56      1.0000 0.11677  0.31880  0.81966  Biso   1.000  C
  H53      1.0000 0.66618  0.19532  0.33454  Biso   1.000  H
  H54      1.0000 0.83382  0.69532  0.16546  Biso   1.000  H
  H55      1.0000 0.33382  0.80468  0.66546  Biso   1.000  H
  H56      1.0000 0.16618  0.30468  0.83454  Biso   1.000  H
  C57      1.0000 0.66865  0.67620  0.46099  Biso   1.000  C
  C58      1.0000 0.83135  0.17620  0.03901  Biso   1.000  C
  C59      1.0000 0.33135  0.32380  0.53901  Biso   1.000  C
  C60      1.0000 0.16865  0.82380  0.96099  Biso   1.000  C
  H57      1.0000 0.69925  0.60400  0.48505  Biso   1.000  H
  H58      1.0000 0.80075  0.10400  0.01495  Biso   1.000  H
  H59      1.0000 0.30075  0.39600  0.51495  Biso   1.000  H
  H60      1.0000 0.19925  0.89600  0.98505  Biso   1.000  H
  C61      1.0000 0.58914  0.78660  0.38785  Biso   1.000  C
  C62      1.0000 0.91086  0.28660  0.11215  Biso   1.000  C
  C63      1.0000 0.41086  0.21340  0.61215  Biso   1.000  C
  C64      1.0000 0.08914  0.71340  0.88785  Biso   1.000  C
  H61      1.0000 0.55288  0.80521  0.35027  Biso   1.000  H
  H62      1.0000 0.94712  0.30521  0.14973  Biso   1.000  H
  H63      1.0000 0.44712  0.19479  0.64973  Biso   1.000  H
  H64      1.0000 0.05288  0.69479  0.85027  Biso   1.000  H
  C65      1.0000 0.61775  0.88530  0.43146  Biso   1.000  C
  C66      1.0000 0.88225  0.38530  0.06854  Biso   1.000  C
  C67      1.0000 0.38225  0.11470  0.56854  Biso   1.000  C
  C68      1.0000 0.11775  0.61470  0.93146  Biso   1.000  C
  H65      1.0000 0.60541  0.98417  0.43025  Biso   1.000  H
  H66      1.0000 0.89459  0.48417  0.06975  Biso   1.000  H
  H67      1.0000 0.39459  0.01583  0.56975  Biso   1.000  H
  H68      1.0000 0.10541  0.51583  0.93025  Biso   1.000  H
  C69      1.0000 0.71029  0.86970  0.53607  Biso   1.000  C
  C70      1.0000 0.78971  0.36970  0.96393  Biso   1.000  C
  C71      1.0000 0.28971  0.13030  0.46393  Biso   1.000  C
  C72      1.0000 0.21029  0.63030  0.03607  Biso   1.000  C
  H69      1.0000 0.74294  0.94351  0.53315  Biso   1.000  H
  H70      1.0000 0.75706  0.44351  0.96685  Biso   1.000  H
  H71      1.0000 0.25706  0.05649  0.46685  Biso   1.000  H
  H72      1.0000 0.24294  0.55649  0.03315  Biso   1.000  H
  H73      1.0000 0.73906  0.79033  0.56078  Biso   1.000  H
  H74      1.0000 0.76094  0.29033  0.93922  Biso   1.000  H
  H75      1.0000 0.26094  0.20967  0.43922  Biso   1.000  H
  H76      1.0000 0.23906  0.70967  0.06078  Biso   1.000  H
  C73      1.0000 0.66759  0.93620  0.56599  Biso   1.000  C
  C74      1.0000 0.83241  0.43620  0.93401  Biso   1.000  C
  C75      1.0000 0.33241  0.06380  0.43401  Biso   1.000  C
  C76      1.0000 0.16759  0.56380  0.06599  Biso   1.000  C
  C77      1.0000 0.69245  0.06490  0.59609  Biso   1.000  C
  C78      1.0000 0.80755  0.56490  0.90391  Biso   1.000  C
  C79      1.0000 0.30755  0.93510  0.40391  Biso   1.000  C
  C80      1.0000 0.19245  0.43510  0.09609  Biso   1.000  C
  H77      1.0000 0.73200  0.11050  0.59391  Biso   1.000  H
  H78      1.0000 0.76800  0.61050  0.90609  Biso   1.000  H
  H79      1.0000 0.26800  0.88950  0.40609  Biso   1.000  H
  H80      1.0000 0.23200  0.38950  0.09391  Biso   1.000  H
  C81      1.0000 0.66086  0.12800  0.62921  Biso   1.000  C
  C82      1.0000 0.83914  0.62800  0.87079  Biso   1.000  C
  C83      1.0000 0.33914  0.87200  0.37079  Biso   1.000  C
  C84      1.0000 0.16086  0.37200  0.12921  Biso   1.000  C
  H81      1.0000 0.67924  0.21483  0.65003  Biso   1.000  H
  H82      1.0000 0.82076  0.71483  0.84997  Biso   1.000  H
  H83      1.0000 0.32076  0.78517  0.34997  Biso   1.000  H
  H84      1.0000 0.17924  0.28517  0.15003  Biso   1.000  H
  C85      1.0000 0.60229  0.06350  0.63166  Biso   1.000  C
  C86      1.0000 0.89771  0.56350  0.86834  Biso   1.000  C
  C87      1.0000 0.39771  0.93650  0.36834  Biso   1.000  C
  C88      1.0000 0.10229  0.43650  0.13166  Biso   1.000  C
  H85      1.0000 0.58038  0.10553  0.65434  Biso   1.000  H
  H86      1.0000 0.91962  0.60553  0.84566  Biso   1.000  H
  H87      1.0000 0.41962  0.89447  0.34566  Biso   1.000  H
  H88      1.0000 0.08038  0.39447  0.15434  Biso   1.000  H
  C89      1.0000 0.57584  0.93700  0.60074  Biso   1.000  C
  C90      1.0000 0.92416  0.43700  0.89926  Biso   1.000  C
  C91      1.0000 0.42416  0.06300  0.39926  Biso   1.000  C
  C92      1.0000 0.07584  0.56300  0.10074  Biso   1.000  C
  H89      1.0000 0.53493  0.89487  0.60179  Biso   1.000  H
  H90      1.0000 0.96507  0.39487  0.89821  Biso   1.000  H
  H91      1.0000 0.46507  0.10513  0.39821  Biso   1.000  H
  H92      1.0000 0.03493  0.60513  0.10179  Biso   1.000  H
  C93      1.0000 0.60765  0.87000  0.56820  Biso   1.000  C
  C94      1.0000 0.89235  0.37000  0.93180  Biso   1.000  C
  C95      1.0000 0.39235  0.13000  0.43180  Biso   1.000  C
  C96      1.0000 0.10765  0.63000  0.06820  Biso   1.000  C
  C97      1.0000 0.58028  0.72700  0.53777  Biso   1.000  C
  C98      1.0000 0.91972  0.22700  0.96223  Biso   1.000  C
  C99      1.0000 0.41972  0.27300  0.46223  Biso   1.000  C
  C100     1.0000 0.08028  0.77300  0.03777  Biso   1.000  C
  H93      1.0000 0.57242  0.73505  0.49623  Biso   1.000  H
  H94      1.0000 0.92758  0.23505  0.00377  Biso   1.000  H
  H95      1.0000 0.42758  0.26495  0.50377  Biso   1.000  H
  H96      1.0000 0.07242  0.76495  0.99623  Biso   1.000  H
  H97      1.0000 0.61619  0.65146  0.55613  Biso   1.000  H
  H98      1.0000 0.88381  0.15146  0.94387  Biso   1.000  H
  H99      1.0000 0.38381  0.34854  0.44387  Biso   1.000  H
  H100     1.0000 0.11619  0.84854  0.05613  Biso   1.000  H
  C101     1.0000 0.44934  0.73550  0.50502  Biso   1.000  C
  C102     1.0000 0.05066  0.23550  0.99498  Biso   1.000  C
  C103     1.0000 0.55066  0.26450  0.49498  Biso   1.000  C
  C104     1.0000 0.94934  0.76450  0.00502  Biso   1.000  C
  H101     1.0000 0.43822  0.79460  0.47150  Biso   1.000  H
  H102     1.0000 0.06178  0.29460  0.02850  Biso   1.000  H
  H103     1.0000 0.56178  0.20540  0.52850  Biso   1.000  H
  H104     1.0000 0.93822  0.70540  0.97150  Biso   1.000  H
  C105     1.0000 0.40374  0.68500  0.52702  Biso   1.000  C
  C106     1.0000 0.09626  0.18500  0.97298  Biso   1.000  C
  C107     1.0000 0.59626  0.31500  0.47298  Biso   1.000  C
  C108     1.0000 0.90374  0.81500  0.02702  Biso   1.000  C
  H105     1.0000 0.35450  0.70229  0.51066  Biso   1.000  H
  H106     1.0000 0.14550  0.20229  0.98934  Biso   1.000  H
  H107     1.0000 0.64550  0.29771  0.48934  Biso   1.000  H
  H108     1.0000 0.85450  0.79771  0.01066  Biso   1.000  H
  C109     1.0000 0.50712  0.60620  0.58373  Biso   1.000  C
  C110     1.0000 0.99288  0.10620  0.91627  Biso   1.000  C
  C111     1.0000 0.49288  0.39380  0.41627  Biso   1.000  C
  C112     1.0000 0.00712  0.89380  0.08373  Biso   1.000  C
  H109     1.0000 0.54468  0.55915  0.61455  Biso   1.000  H
  H110     1.0000 0.95532  0.05915  0.88545  Biso   1.000  H
  H111     1.0000 0.45532  0.44085  0.38545  Biso   1.000  H
  H112     1.0000 0.04468  0.94085  0.11455  Biso   1.000  H
  S1       1.0000 0.42193  0.63200  0.26559  Biso   1.000  S
  S2       1.0000 0.07807  0.13200  0.23441  Biso   1.000  S
  S3       1.0000 0.57807  0.36800  0.73441  Biso   1.000  S
  S4       1.0000 0.92193  0.86800  0.76559  Biso   1.000  S
  F1       1.0000 0.35966  0.41390  0.19761  Biso   1.000  F
  F2       1.0000 0.14034  0.91390  0.30239  Biso   1.000  F
  F3       1.0000 0.64034  0.58610  0.80239  Biso   1.000  F
  F4       1.0000 0.85966  0.08610  0.69761  Biso   1.000  F
  F5       1.0000 0.33615  0.62060  0.15505  Biso   1.000  F
  F6       1.0000 0.16385  0.12060  0.34495  Biso   1.000  F
  F7       1.0000 0.66385  0.37940  0.84495  Biso   1.000  F
  F8       1.0000 0.83615  0.87940  0.65505  Biso   1.000  F
  F9       1.0000 0.43601  0.52150  0.17539  Biso   1.000  F
  F10      1.0000 0.06399  0.02150  0.32461  Biso   1.000  F
  F11      1.0000 0.56399  0.47850  0.82461  Biso   1.000  F
  F12      1.0000 0.93601  0.97850  0.67539  Biso   1.000  F
  O1       1.0000 0.47616  0.53630  0.30172  Biso   1.000  O
  O2       1.0000 0.02384  0.03630  0.19828  Biso   1.000  O
  O3       1.0000 0.52384  0.46370  0.69828  Biso   1.000  O
  O4       1.0000 0.97616  0.96370  0.80172  Biso   1.000  O
  O5       1.0000 0.36253  0.63880  0.28036  Biso   1.000  O
  O6       1.0000 0.13747  0.13880  0.21964  Biso   1.000  O
  O7       1.0000 0.63747  0.36120  0.71964  Biso   1.000  O
  O8       1.0000 0.86253  0.86120  0.78036  Biso   1.000  O
  O9       1.0000 0.44607  0.76800  0.25432  Biso   1.000  O
  O10      1.0000 0.05393  0.26800  0.24568  Biso   1.000  O
  O11      1.0000 0.55393  0.23200  0.74568  Biso   1.000  O
  O12      1.0000 0.94607  0.73200  0.75432  Biso   1.000  O
  C113     1.0000 0.38710  0.54200  0.19497  Biso   1.000  C
  C114     1.0000 0.11290  0.04200  0.30503  Biso   1.000  C
  C115     1.0000 0.61290  0.45800  0.80503  Biso   1.000  C
  C116     1.0000 0.88710  0.95800  0.69497  Biso   1.000  C
  O13      1.0000 0.71739  0.37080  0.43061  Biso   1.000  O
  O14      1.0000 0.78261  0.87080  0.06939  Biso   1.000  O
  O15      1.0000 0.28261  0.62920  0.56939  Biso   1.000  O
  O16      1.0000 0.21739  0.12920  0.93061  Biso   1.000  O
  H113     1.0000 0.74899  0.41208  0.45992  Biso   1.000  H
  H114     1.0000 0.75101  0.91208  0.04008  Biso   1.000  H
  H115     1.0000 0.25101  0.58792  0.54008  Biso   1.000  H
  H116     1.0000 0.24899  0.08792  0.95992  Biso   1.000  H
  H117     1.0000 0.73139  0.28413  0.43258  Biso   1.000  H
  H118     1.0000 0.76861  0.78413  0.06742  Biso   1.000  H
  H119     1.0000 0.26861  0.71587  0.56742  Biso   1.000  H
  H120     1.0000 0.23139  0.21587  0.93258  Biso   1.000  H
  O17      1.0000 0.82420  0.53170  0.51620  Biso   1.000  O
  O18      1.0000 0.67580  0.03170  0.98380  Biso   1.000  O
  O19      1.0000 0.17580  0.46830  0.48380  Biso   1.000  O
  O20      1.0000 0.32420  0.96830  0.01620  Biso   1.000  O
  C117     1.0000 0.87010  0.50160  0.56280  Biso   1.000  C
  C118     1.0000 0.62990  0.00160  0.93720  Biso   1.000  C
  C119     1.0000 0.12990  0.49840  0.43720  Biso   1.000  C
  C120     1.0000 0.37010  0.99840  0.06280  Biso   1.000  C
  C121     1.0000 0.91530  0.60940  0.60270  Biso   1.000  C
  C122     1.0000 0.58470  0.10940  0.89730  Biso   1.000  C
  C123     1.0000 0.08470  0.39060  0.39730  Biso   1.000  C
  C124     1.0000 0.41530  0.89060  0.10270  Biso   1.000  C
  H121     1.0000 0.90690  0.70323  0.58301  Biso   1.000  H
  H122     1.0000 0.59310  0.20323  0.91699  Biso   1.000  H
  H123     1.0000 0.09310  0.29677  0.41699  Biso   1.000  H
  H124     1.0000 0.40690  0.79677  0.08301  Biso   1.000  H
  H125     1.0000 0.96465  0.58186  0.61474  Biso   1.000  H
  H126     1.0000 0.53535  0.08186  0.88526  Biso   1.000  H
  H127     1.0000 0.03535  0.41814  0.38526  Biso   1.000  H
  H128     1.0000 0.46465  0.91814  0.11474  Biso   1.000  H
  H129     1.0000 0.90492  0.61594  0.63723  Biso   1.000  H
  H130     1.0000 0.59508  0.11594  0.86277  Biso   1.000  H
  H131     1.0000 0.09508  0.38406  0.36277  Biso   1.000  H
  H132     1.0000 0.40492  0.88406  0.13723  Biso   1.000  H
  C125     1.0000 0.88440  0.34770  0.58400  Biso   1.000  C
  C126     1.0000 0.61560  0.84770  0.91600  Biso   1.000  C
  C127     1.0000 0.11560  0.65230  0.41600  Biso   1.000  C
  C128     1.0000 0.38440  0.15230  0.08400  Biso   1.000  C
  H133     1.0000 0.84243  0.28900  0.56301  Biso   1.000  H
  H134     1.0000 0.65757  0.78900  0.93699  Biso   1.000  H
  H135     1.0000 0.15757  0.71100  0.43699  Biso   1.000  H
  H136     1.0000 0.34243  0.21100  0.06301  Biso   1.000  H
  H137     1.0000 0.89616  0.34457  0.62604  Biso   1.000  H
  H138     1.0000 0.60384  0.84457  0.87396  Biso   1.000  H
  H139     1.0000 0.10384  0.65543  0.37396  Biso   1.000  H
  H140     1.0000 0.39616  0.15543  0.12604  Biso   1.000  H
  H141     1.0000 0.92385  0.30976  0.57684  Biso   1.000  H
  H142     1.0000 0.57615  0.80976  0.92316  Biso   1.000  H
  H143     1.0000 0.07615  0.69024  0.42316  Biso   1.000  H
  H144     1.0000 0.42385  0.19024  0.07684  Biso   1.000  H
  O21      1.0000 0.77830  0.42270  0.55000  Biso   1.000  O
  O22      1.0000 0.72170  0.92270  0.95000  Biso   1.000  O
  O23      1.0000 0.22170  0.57730  0.45000  Biso   1.000  O
  O24      1.0000 0.27830  0.07730  0.05000  Biso   1.000  O
  H145     1.0000 0.80359  0.36550  0.57698  Biso   1.000  H
  H146     1.0000 0.69641  0.86550  0.92302  Biso   1.000  H
  H147     1.0000 0.19641  0.63450  0.42302  Biso   1.000  H
  H148     1.0000 0.30359  0.13450  0.07698  Biso   1.000  H
  O25      1.0000 0.72750  0.54020  0.61487  Biso   1.000  O
  O26      1.0000 0.77250  0.04020  0.88513  Biso   1.000  O
  O27      1.0000 0.27250  0.45980  0.38513  Biso   1.000  O
  O28      1.0000 0.22750  0.95980  0.11487  Biso   1.000  O
  C129     1.0000 0.75020  0.54730  0.66800  Biso   1.000  C
  C130     1.0000 0.74980  0.04730  0.83200  Biso   1.000  C
  C131     1.0000 0.24980  0.45270  0.33200  Biso   1.000  C
  C132     1.0000 0.25020  0.95270  0.16800  Biso   1.000  C
  C133     1.0000 0.72200  0.65370  0.69730  Biso   1.000  C
  C134     1.0000 0.77800  0.15370  0.80270  Biso   1.000  C
  C135     1.0000 0.27800  0.34630  0.30270  Biso   1.000  C
  C136     1.0000 0.22200  0.84630  0.19730  Biso   1.000  C
  H149     1.0000 0.68765  0.71629  0.66781  Biso   1.000  H
  H150     1.0000 0.81235  0.21629  0.83219  Biso   1.000  H
  H151     1.0000 0.31235  0.28371  0.33219  Biso   1.000  H
  H152     1.0000 0.18765  0.78371  0.16781  Biso   1.000  H
  H153     1.0000 0.76064  0.71240  0.72464  Biso   1.000  H
  H154     1.0000 0.73936  0.21240  0.77536  Biso   1.000  H
  H155     1.0000 0.23936  0.28760  0.27536  Biso   1.000  H
  H156     1.0000 0.26064  0.78760  0.22464  Biso   1.000  H
  H157     1.0000 0.69906  0.60236  0.71877  Biso   1.000  H
  H158     1.0000 0.80094  0.10236  0.78123  Biso   1.000  H
  H159     1.0000 0.30094  0.39764  0.28123  Biso   1.000  H
  H160     1.0000 0.19906  0.89764  0.21877  Biso   1.000  H
  C137     1.0000 0.80730  0.45240  0.70630  Biso   1.000  C
  C138     1.0000 0.69270  0.95240  0.79370  Biso   1.000  C
  C139     1.0000 0.19270  0.54760  0.29370  Biso   1.000  C
  C140     1.0000 0.30730  0.04760  0.20630  Biso   1.000  C
  H161     1.0000 0.81628  0.37763  0.68266  Biso   1.000  H
  H162     1.0000 0.68372  0.87763  0.81734  Biso   1.000  H
  H163     1.0000 0.18372  0.62237  0.31734  Biso   1.000  H
  H164     1.0000 0.31628  0.12237  0.18266  Biso   1.000  H
  H165     1.0000 0.79358  0.40702  0.73518  Biso   1.000  H
  H166     1.0000 0.70642  0.90702  0.76482  Biso   1.000  H
  H167     1.0000 0.20642  0.59298  0.26482  Biso   1.000  H
  H168     1.0000 0.29358  0.09298  0.23518  Biso   1.000  H
  H169     1.0000 0.85013  0.50945  0.72645  Biso   1.000  H
  H170     1.0000 0.64987  0.00945  0.77355  Biso   1.000  H
  H171     1.0000 0.14987  0.49055  0.27355  Biso   1.000  H
  H172     1.0000 0.35013  0.99055  0.22645  Biso   1.000  H
  S5       1.0000 0.79146  0.99881  0.42149  Biso   1.000  S
  S6       1.0000 0.70854  0.49881  0.07851  Biso   1.000  S
  S7       1.0000 0.20854  0.00119  0.57851  Biso   1.000  S
  S8       1.0000 0.29146  0.50119  0.92149  Biso   1.000  S
  F13      1.0000 0.90008  0.16880  0.46426  Biso   1.000  F
  F14      1.0000 0.59992  0.66880  0.03574  Biso   1.000  F
  F15      1.0000 0.09992  0.83120  0.53574  Biso   1.000  F
  F16      1.0000 0.40008  0.33120  0.96426  Biso   1.000  F
  F17      1.0000 0.90658  0.98470  0.51740  Biso   1.000  F
  F18      1.0000 0.59342  0.48470  0.98260  Biso   1.000  F
  F19      1.0000 0.09342  0.01530  0.48260  Biso   1.000  F
  F20      1.0000 0.40658  0.51530  0.01740  Biso   1.000  F
  F21      1.0000 0.92247  0.96100  0.43856  Biso   1.000  F
  F22      1.0000 0.57753  0.46100  0.06144  Biso   1.000  F
  F23      1.0000 0.07753  0.03900  0.56144  Biso   1.000  F
  F24      1.0000 0.42247  0.53900  0.93856  Biso   1.000  F
  O29      1.0000 0.75985  0.08120  0.45325  Biso   1.000  O
  O30      1.0000 0.74015  0.58120  0.04675  Biso   1.000  O
  O31      1.0000 0.24015  0.91880  0.54675  Biso   1.000  O
  O32      1.0000 0.25985  0.41880  0.95325  Biso   1.000  O
  O33      1.0000 0.78372  0.84580  0.42351  Biso   1.000  O
  O34      1.0000 0.71628  0.34580  0.07649  Biso   1.000  O
  O35      1.0000 0.21628  0.15420  0.57649  Biso   1.000  O
  O36      1.0000 0.28372  0.65420  0.92351  Biso   1.000  O
  O37      1.0000 0.77787  0.05550  0.36446  Biso   1.000  O
  O38      1.0000 0.72213  0.55550  0.13554  Biso   1.000  O
  O39      1.0000 0.22213  0.94450  0.63554  Biso   1.000  O
  O40      1.0000 0.27787  0.44450  0.86446  Biso   1.000  O
  C141     1.0000 0.88520  0.02960  0.46310  Biso   1.000  C
  C142     1.0000 0.61480  0.52960  0.03690  Biso   1.000  C
  C143     1.0000 0.11480  0.97040  0.53690  Biso   1.000  C
  C144     1.0000 0.38520  0.47040  0.96310  Biso   1.000  C
  O41      1.0000 0.91520  0.53450  0.61890  Biso   1.000  O
  O42      1.0000 0.58480  0.03450  0.88110  Biso   1.000  O
  O43      1.0000 0.08480  0.46550  0.38110  Biso   1.000  O
  O44      1.0000 0.41520  0.96550  0.11890  Biso   1.000  O
  C145     1.0000 0.94270  0.61300  0.59140  Biso   1.000  C
  C146     1.0000 0.55730  0.11300  0.90860  Biso   1.000  C
  C147     1.0000 0.05730  0.38700  0.40860  Biso   1.000  C
  C148     1.0000 0.44270  0.88700  0.09140  Biso   1.000  C
  C149     1.0000 0.92910  0.58900  0.53060  Biso   1.000  C
  C150     1.0000 0.57090  0.08900  0.96940  Biso   1.000  C
  C151     1.0000 0.07090  0.41100  0.46940  Biso   1.000  C
  C152     1.0000 0.42910  0.91100  0.03060  Biso   1.000  C
  H173     1.0000 0.91159  0.49044  0.51940  Biso   1.000  H
  H174     1.0000 0.58841  0.99044  0.98060  Biso   1.000  H
  H175     1.0000 0.08841  0.50956  0.48060  Biso   1.000  H
  H176     1.0000 0.41159  0.00956  0.01940  Biso   1.000  H
  H177     1.0000 0.97274  0.60188  0.52551  Biso   1.000  H
  H178     1.0000 0.52726  0.10188  0.97449  Biso   1.000  H
  H179     1.0000 0.02726  0.39812  0.47449  Biso   1.000  H
  H180     1.0000 0.47274  0.89812  0.02551  Biso   1.000  H
  H181     1.0000 0.89377  0.65792  0.50597  Biso   1.000  H
  H182     1.0000 0.60623  0.15792  0.99403  Biso   1.000  H
  H183     1.0000 0.10623  0.34208  0.49403  Biso   1.000  H
  H184     1.0000 0.39377  0.84208  0.00597  Biso   1.000  H
  C153     1.0000 0.99170  0.72500  0.62330  Biso   1.000  C
  C154     1.0000 0.50830  0.22500  0.87670  Biso   1.000  C
  C155     1.0000 0.00830  0.27500  0.37670  Biso   1.000  C
  C156     1.0000 0.49170  0.77500  0.12330  Biso   1.000  C
  H185     1.0000 0.99799  0.72450  0.66416  Biso   1.000  H
  H186     1.0000 0.50201  0.22450  0.83584  Biso   1.000  H
  H187     1.0000 0.00201  0.27550  0.33584  Biso   1.000  H
  H188     1.0000 0.49799  0.77550  0.16416  Biso   1.000  H
  H189     1.0000 0.97332  0.81883  0.60572  Biso   1.000  H
  H190     1.0000 0.52668  0.31883  0.89428  Biso   1.000  H
  H191     1.0000 0.02668  0.18117  0.39428  Biso   1.000  H
  H192     1.0000 0.47332  0.68117  0.10572  Biso   1.000  H
  H193     1.0000 0.03712  0.70747  0.62162  Biso   1.000  H
  H194     1.0000 0.46288  0.20747  0.87838  Biso   1.000  H
  H195     1.0000 0.96288  0.29253  0.37838  Biso   1.000  H
  H196     1.0000 0.53712  0.79253  0.12162  Biso   1.000  H
  H197     1.0000 0.80635  0.48908  0.55007  Biso   1.000  H
  H198     1.0000 0.69365  0.98908  0.94993  Biso   1.000  H
  H199     1.0000 0.19365  0.51092  0.44993  Biso   1.000  H
  H200     1.0000 0.30635  0.01092  0.05007  Biso   1.000  H
