data_image0
_cell_length_a       7.5555
_cell_length_b       21.9603
_cell_length_c       9.8497
_cell_angle_alpha    90
_cell_angle_beta     105.259
_cell_angle_gamma    90

_symmetry_space_group_name_H-M    "P 1"
_symmetry_int_tables_number       1

loop_
  _symmetry_equiv_pos_as_xyz
  'x, y, z'

loop_
  _atom_site_label
  _atom_site_occupancy
  _atom_site_fract_x
  _atom_site_fract_y
  _atom_site_fract_z
  _atom_site_thermal_displace_type
  _atom_site_B_iso_or_equiv
  _atom_site_type_symbol
  Cu1      1.0000 0.00000  0.00000  0.00000  Biso   1.000  Cu
  Cu2      1.0000 0.50000  0.50000  0.50000  Biso   1.000  Cu
  O1       1.0000 0.88650  0.01891  0.79910  Biso   1.000  O
  O2       1.0000 0.61350  0.51891  0.70090  Biso   1.000  O
  O3       1.0000 0.11350  0.98109  0.20090  Biso   1.000  O
  O4       1.0000 0.38650  0.48109  0.29910  Biso   1.000  O
  O5       1.0000 0.04070  0.10340  0.87240  Biso   1.000  O
  O6       1.0000 0.45930  0.60340  0.62760  Biso   1.000  O
  O7       1.0000 0.95930  0.89660  0.12760  Biso   1.000  O
  O8       1.0000 0.54070  0.39660  0.37240  Biso   1.000  O
  C1       1.0000 0.92500  0.07429  0.78130  Biso   1.000  C
  C2       1.0000 0.57500  0.57429  0.71870  Biso   1.000  C
  C3       1.0000 0.07500  0.92571  0.21870  Biso   1.000  C
  C4       1.0000 0.42500  0.42571  0.28130  Biso   1.000  C
  C5       1.0000 0.81880  0.10403  0.64710  Biso   1.000  C
  C6       1.0000 0.68120  0.60403  0.85290  Biso   1.000  C
  C7       1.0000 0.18120  0.89597  0.35290  Biso   1.000  C
  C8       1.0000 0.31880  0.39597  0.14710  Biso   1.000  C
  C9       1.0000 0.81100  0.16732  0.63680  Biso   1.000  C
  C10      1.0000 0.68900  0.66732  0.86320  Biso   1.000  C
  C11      1.0000 0.18900  0.83268  0.36320  Biso   1.000  C
  C12      1.0000 0.31100  0.33268  0.13680  Biso   1.000  C
  H1       1.0000 0.87640  0.19150  0.71360  Biso   1.000  H
  H2       1.0000 0.62360  0.69150  0.78640  Biso   1.000  H
  H3       1.0000 0.12360  0.80850  0.28640  Biso   1.000  H
  H4       1.0000 0.37640  0.30850  0.21360  Biso   1.000  H
  C13      1.0000 0.70840  0.19521  0.51490  Biso   1.000  C
  C14      1.0000 0.79160  0.69521  0.98510  Biso   1.000  C
  C15      1.0000 0.29160  0.80479  0.48510  Biso   1.000  C
  C16      1.0000 0.20840  0.30479  0.01490  Biso   1.000  C
  C17      1.0000 0.70490  0.26335  0.50990  Biso   1.000  C
  C18      1.0000 0.79510  0.76335  0.99010  Biso   1.000  C
  C19      1.0000 0.29510  0.73665  0.49010  Biso   1.000  C
  C20      1.0000 0.20490  0.23665  0.00990  Biso   1.000  C
  O9       1.0000 0.76520  0.29491  0.61090  Biso   1.000  O
  O10      1.0000 0.73480  0.79491  0.88910  Biso   1.000  O
  O11      1.0000 0.23480  0.70509  0.38910  Biso   1.000  O
  O12      1.0000 0.26520  0.20509  0.11090  Biso   1.000  O
  O13      1.0000 0.63670  0.28468  0.38150  Biso   1.000  O
  O14      1.0000 0.86330  0.78468  0.11850  Biso   1.000  O
  O15      1.0000 0.36330  0.71532  0.61850  Biso   1.000  O
  O16      1.0000 0.13670  0.21532  0.88150  Biso   1.000  O
  H5       1.0000 0.60620  0.32130  0.38590  Biso   1.000  H
  H6       1.0000 0.89380  0.82130  0.11410  Biso   1.000  H
  H7       1.0000 0.39380  0.67870  0.61410  Biso   1.000  H
  H8       1.0000 0.10620  0.17870  0.88590  Biso   1.000  H
  C21      1.0000 0.60910  0.16024  0.40240  Biso   1.000  C
  C22      1.0000 0.89090  0.66024  0.09760  Biso   1.000  C
  C23      1.0000 0.39090  0.83976  0.59760  Biso   1.000  C
  C24      1.0000 0.10910  0.33976  0.90240  Biso   1.000  C
  H9       1.0000 0.53910  0.17950  0.31910  Biso   1.000  H
  H10      1.0000 0.96090  0.67950  0.18090  Biso   1.000  H
  H11      1.0000 0.46090  0.82050  0.68090  Biso   1.000  H
  H12      1.0000 0.03910  0.32050  0.81910  Biso   1.000  H
  C25      1.0000 0.61320  0.09634  0.41270  Biso   1.000  C
  C26      1.0000 0.88680  0.59634  0.08730  Biso   1.000  C
  C27      1.0000 0.38680  0.90366  0.58730  Biso   1.000  C
  C28      1.0000 0.11320  0.40366  0.91270  Biso   1.000  C
  C29      1.0000 0.71890  0.06904  0.53410  Biso   1.000  C
  C30      1.0000 0.78110  0.56904  0.96590  Biso   1.000  C
  C31      1.0000 0.28110  0.93096  0.46590  Biso   1.000  C
  C32      1.0000 0.21890  0.43096  0.03410  Biso   1.000  C
  H13      1.0000 0.72340  0.02590  0.54070  Biso   1.000  H
  H14      1.0000 0.77660  0.52590  0.95930  Biso   1.000  H
  H15      1.0000 0.27660  0.97410  0.45930  Biso   1.000  H
  H16      1.0000 0.22340  0.47410  0.04070  Biso   1.000  H
  C33      1.0000 0.50560  0.05795  0.29180  Biso   1.000  C
  C34      1.0000 0.99440  0.55795  0.20820  Biso   1.000  C
  C35      1.0000 0.49440  0.94205  0.70820  Biso   1.000  C
  C36      1.0000 0.00560  0.44205  0.79180  Biso   1.000  C
  H17      1.0000 0.49910  0.01560  0.32470  Biso   1.000  H
  H18      1.0000 0.00090  0.51560  0.17530  Biso   1.000  H
  H19      1.0000 0.50090  0.98440  0.67530  Biso   1.000  H
  H20      1.0000 0.99910  0.48440  0.82470  Biso   1.000  H
  H21      1.0000 0.37880  0.07380  0.25990  Biso   1.000  H
  H22      1.0000 0.12120  0.57380  0.24010  Biso   1.000  H
  H23      1.0000 0.62120  0.92620  0.74010  Biso   1.000  H
  H24      1.0000 0.87880  0.42620  0.75990  Biso   1.000  H
  N1       1.0000 0.58880  0.05786  0.17260  Biso   1.000  N
  N2       1.0000 0.91120  0.55786  0.32740  Biso   1.000  N
  N3       1.0000 0.41120  0.94214  0.82740  Biso   1.000  N
  N4       1.0000 0.08880  0.44214  0.67260  Biso   1.000  N
  C37      1.0000 0.74740  0.03079  0.17260  Biso   1.000  C
  C38      1.0000 0.75260  0.53079  0.32740  Biso   1.000  C
  C39      1.0000 0.25260  0.96921  0.82740  Biso   1.000  C
  C40      1.0000 0.24740  0.46921  0.67260  Biso   1.000  C
  H25      1.0000 0.82340  0.00990  0.25090  Biso   1.000  H
  H26      1.0000 0.67660  0.50990  0.24910  Biso   1.000  H
  H27      1.0000 0.17660  0.99010  0.74910  Biso   1.000  H
  H28      1.0000 0.32340  0.49010  0.75090  Biso   1.000  H
  N5       1.0000 0.78510  0.03691  0.04880  Biso   1.000  N
  N6       1.0000 0.71490  0.53691  0.45120  Biso   1.000  N
  N7       1.0000 0.21490  0.96309  0.95120  Biso   1.000  N
  N8       1.0000 0.28510  0.46309  0.54880  Biso   1.000  N
  C41      1.0000 0.63740  0.06878  0.96550  Biso   1.000  C
  C42      1.0000 0.86260  0.56878  0.53450  Biso   1.000  C
  C43      1.0000 0.36260  0.93122  0.03450  Biso   1.000  C
  C44      1.0000 0.13740  0.43122  0.46550  Biso   1.000  C
  H29      1.0000 0.62270  0.07960  0.86980  Biso   1.000  H
  H30      1.0000 0.87730  0.57960  0.63020  Biso   1.000  H
  H31      1.0000 0.37730  0.92040  0.13020  Biso   1.000  H
  H32      1.0000 0.12270  0.42040  0.36980  Biso   1.000  H
  C45      1.0000 0.51700  0.08215  0.04230  Biso   1.000  C
  C46      1.0000 0.98300  0.58215  0.45770  Biso   1.000  C
  C47      1.0000 0.48300  0.91785  0.95770  Biso   1.000  C
  C48      1.0000 0.01700  0.41785  0.54230  Biso   1.000  C
  H33      1.0000 0.40520  0.10400  0.01140  Biso   1.000  H
  H34      1.0000 0.09480  0.60400  0.48860  Biso   1.000  H
  H35      1.0000 0.59480  0.89600  0.98860  Biso   1.000  H
  H36      1.0000 0.90520  0.39600  0.51140  Biso   1.000  H
  O17      1.0000 0.28570  0.07385  0.60880  Biso   1.000  O
  O18      1.0000 0.21430  0.57385  0.89120  Biso   1.000  O
  O19      1.0000 0.71430  0.92615  0.39120  Biso   1.000  O
  O20      1.0000 0.78570  0.42615  0.10880  Biso   1.000  O
  C49      1.0000 0.29180  0.12950  0.61240  Biso   1.000  C
  C50      1.0000 0.20820  0.62950  0.88760  Biso   1.000  C
  C51      1.0000 0.70820  0.87050  0.38760  Biso   1.000  C
  C52      1.0000 0.79180  0.37050  0.11240  Biso   1.000  C
  H37      1.0000 0.36290  0.14810  0.69620  Biso   1.000  H
  H38      1.0000 0.13710  0.64810  0.80380  Biso   1.000  H
  H39      1.0000 0.63710  0.85190  0.30380  Biso   1.000  H
  H40      1.0000 0.86290  0.35190  0.19620  Biso   1.000  H
  N9       1.0000 0.20680  0.16587  0.50850  Biso   1.000  N
  N10      1.0000 0.29320  0.66587  0.99150  Biso   1.000  N
  N11      1.0000 0.79320  0.83413  0.49150  Biso   1.000  N
  N12      1.0000 0.70680  0.33413  0.00850  Biso   1.000  N
  C53      1.0000 0.21700  0.23110  0.51540  Biso   1.000  C
  C54      1.0000 0.28300  0.73110  0.98460  Biso   1.000  C
  C55      1.0000 0.78300  0.76890  0.48460  Biso   1.000  C
  C56      1.0000 0.71700  0.26890  0.01540  Biso   1.000  C
  H41      1.0000 0.29340  0.24350  0.60790  Biso   1.000  H
  H42      1.0000 0.20660  0.74350  0.89210  Biso   1.000  H
  H43      1.0000 0.70660  0.75650  0.39210  Biso   1.000  H
  H44      1.0000 0.79340  0.25650  0.10790  Biso   1.000  H
  H45      1.0000 0.09340  0.24800  0.50120  Biso   1.000  H
  H46      1.0000 0.40660  0.74800  0.99880  Biso   1.000  H
  H47      1.0000 0.90660  0.75200  0.49880  Biso   1.000  H
  H48      1.0000 0.59340  0.25200  0.00120  Biso   1.000  H
  H49      1.0000 0.27130  0.24630  0.44190  Biso   1.000  H
  H50      1.0000 0.22870  0.74630  0.05810  Biso   1.000  H
  H51      1.0000 0.72870  0.75370  0.55810  Biso   1.000  H
  H52      1.0000 0.77130  0.25370  0.94190  Biso   1.000  H
  C57      1.0000 0.09890  0.14010  0.37840  Biso   1.000  C
  C58      1.0000 0.40110  0.64010  0.12160  Biso   1.000  C
  C59      1.0000 0.90110  0.85990  0.62160  Biso   1.000  C
  C60      1.0000 0.59890  0.35990  0.87840  Biso   1.000  C
  H53      1.0000 0.11380  0.09580  0.38100  Biso   1.000  H
  H54      1.0000 0.38620  0.59580  0.11900  Biso   1.000  H
  H55      1.0000 0.88620  0.90420  0.61900  Biso   1.000  H
  H56      1.0000 0.61380  0.40420  0.88100  Biso   1.000  H
  H57      1.0000 0.14020  0.15680  0.29970  Biso   1.000  H
  H58      1.0000 0.35980  0.65680  0.20030  Biso   1.000  H
  H59      1.0000 0.85980  0.84320  0.70030  Biso   1.000  H
  H60      1.0000 0.64020  0.34320  0.79970  Biso   1.000  H
  H61      1.0000 0.96930  0.15030  0.36620  Biso   1.000  H
  H62      1.0000 0.53070  0.65030  0.13380  Biso   1.000  H
  H63      1.0000 0.03070  0.84970  0.63380  Biso   1.000  H
  H64      1.0000 0.46930  0.34970  0.86620  Biso   1.000  H
