data_image0
_cell_length_a       7.7557
_cell_length_b       21.9826
_cell_length_c       9.816
_cell_angle_alpha    90
_cell_angle_beta     102.92
_cell_angle_gamma    90

_symmetry_space_group_name_H-M    "P 1"
_symmetry_int_tables_number       1

loop_
  _symmetry_equiv_pos_as_xyz
  'x, y, z'

loop_
  _atom_site_label
  _atom_site_occupancy
  _atom_site_fract_x
  _atom_site_fract_y
  _atom_site_fract_z
  _atom_site_thermal_displace_type
  _atom_site_B_iso_or_equiv
  _atom_site_type_symbol
  Cu1      1.0000 0.00000  0.00000  0.00000  Biso   1.000  Cu
  Cu2      1.0000 0.50000  0.50000  0.50000  Biso   1.000  Cu
  O1       1.0000 0.88960  0.01963  0.80335  Biso   1.000  O
  O2       1.0000 0.61040  0.51963  0.69665  Biso   1.000  O
  O3       1.0000 0.11040  0.98037  0.19665  Biso   1.000  O
  O4       1.0000 0.38960  0.48037  0.30335  Biso   1.000  O
  O5       1.0000 0.02980  0.10518  0.87420  Biso   1.000  O
  O6       1.0000 0.47020  0.60518  0.62580  Biso   1.000  O
  O7       1.0000 0.97020  0.89482  0.12580  Biso   1.000  O
  O8       1.0000 0.52980  0.39482  0.37420  Biso   1.000  O
  C1       1.0000 0.92320  0.07523  0.78460  Biso   1.000  C
  C2       1.0000 0.57680  0.57523  0.71540  Biso   1.000  C
  C3       1.0000 0.07680  0.92477  0.21540  Biso   1.000  C
  C4       1.0000 0.42320  0.42477  0.28460  Biso   1.000  C
  C5       1.0000 0.82130  0.10380  0.65120  Biso   1.000  C
  C6       1.0000 0.67870  0.60380  0.84880  Biso   1.000  C
  C7       1.0000 0.17870  0.89620  0.34880  Biso   1.000  C
  C8       1.0000 0.32130  0.39620  0.15120  Biso   1.000  C
  C9       1.0000 0.81260  0.16662  0.63720  Biso   1.000  C
  C10      1.0000 0.68740  0.66662  0.86280  Biso   1.000  C
  C11      1.0000 0.18740  0.83338  0.36280  Biso   1.000  C
  C12      1.0000 0.31260  0.33338  0.13720  Biso   1.000  C
  H1       1.0000 0.88110  0.19180  0.70770  Biso   1.000  H
  H2       1.0000 0.61890  0.69180  0.79230  Biso   1.000  H
  H3       1.0000 0.11890  0.80820  0.29230  Biso   1.000  H
  H4       1.0000 0.38110  0.30820  0.20770  Biso   1.000  H
  C13      1.0000 0.70350  0.19281  0.51980  Biso   1.000  C
  C14      1.0000 0.79650  0.69281  0.98020  Biso   1.000  C
  C15      1.0000 0.29650  0.80719  0.48020  Biso   1.000  C
  C16      1.0000 0.20350  0.30719  0.01980  Biso   1.000  C
  C17      1.0000 0.69350  0.26077  0.51310  Biso   1.000  C
  C18      1.0000 0.80650  0.76077  0.98690  Biso   1.000  C
  C19      1.0000 0.30650  0.73923  0.48690  Biso   1.000  C
  C20      1.0000 0.19350  0.23923  0.01310  Biso   1.000  C
  O9       1.0000 0.78570  0.29380  0.59710  Biso   1.000  O
  O10      1.0000 0.71430  0.79380  0.90290  Biso   1.000  O
  O11      1.0000 0.21430  0.70620  0.40290  Biso   1.000  O
  O12      1.0000 0.28570  0.20620  0.09710  Biso   1.000  O
  O13      1.0000 0.57310  0.28024  0.40620  Biso   1.000  O
  O14      1.0000 0.92690  0.78024  0.09380  Biso   1.000  O
  O15      1.0000 0.42690  0.71976  0.59380  Biso   1.000  O
  O16      1.0000 0.07310  0.21976  0.90620  Biso   1.000  O
  H5       1.0000 0.56730  0.31840  0.40900  Biso   1.000  H
  H6       1.0000 0.93270  0.81840  0.09100  Biso   1.000  H
  H7       1.0000 0.43270  0.68160  0.59100  Biso   1.000  H
  H8       1.0000 0.06730  0.18160  0.90900  Biso   1.000  H
  C21      1.0000 0.60580  0.15605  0.41370  Biso   1.000  C
  C22      1.0000 0.89420  0.65605  0.08630  Biso   1.000  C
  C23      1.0000 0.39420  0.84395  0.58630  Biso   1.000  C
  C24      1.0000 0.10580  0.34395  0.91370  Biso   1.000  C
  H9       1.0000 0.53120  0.17410  0.33390  Biso   1.000  H
  H10      1.0000 0.96880  0.67410  0.16610  Biso   1.000  H
  H11      1.0000 0.46880  0.82590  0.66610  Biso   1.000  H
  H12      1.0000 0.03120  0.32590  0.83390  Biso   1.000  H
  C25      1.0000 0.61840  0.09252  0.42550  Biso   1.000  C
  C26      1.0000 0.88160  0.59252  0.07450  Biso   1.000  C
  C27      1.0000 0.38160  0.90748  0.57450  Biso   1.000  C
  C28      1.0000 0.11840  0.40748  0.92550  Biso   1.000  C
  C29      1.0000 0.72620  0.06708  0.54430  Biso   1.000  C
  C30      1.0000 0.77380  0.56708  0.95570  Biso   1.000  C
  C31      1.0000 0.27380  0.93292  0.45570  Biso   1.000  C
  C32      1.0000 0.22620  0.43292  0.04430  Biso   1.000  C
  H13      1.0000 0.73530  0.02410  0.55280  Biso   1.000  H
  H14      1.0000 0.76470  0.52410  0.94720  Biso   1.000  H
  H15      1.0000 0.26470  0.97590  0.44720  Biso   1.000  H
  H16      1.0000 0.23530  0.47590  0.05280  Biso   1.000  H
  C33      1.0000 0.51770  0.05198  0.31120  Biso   1.000  C
  C34      1.0000 0.98230  0.55198  0.18880  Biso   1.000  C
  C35      1.0000 0.48230  0.94802  0.68880  Biso   1.000  C
  C36      1.0000 0.01770  0.44802  0.81120  Biso   1.000  C
  H17      1.0000 0.51660  0.01000  0.34720  Biso   1.000  H
  H18      1.0000 0.98340  0.51000  0.15280  Biso   1.000  H
  H19      1.0000 0.48340  0.99000  0.65280  Biso   1.000  H
  H20      1.0000 0.01660  0.49000  0.84720  Biso   1.000  H
  H21      1.0000 0.39370  0.06620  0.28310  Biso   1.000  H
  H22      1.0000 0.10630  0.56620  0.21690  Biso   1.000  H
  H23      1.0000 0.60630  0.93380  0.71690  Biso   1.000  H
  H24      1.0000 0.89370  0.43380  0.78310  Biso   1.000  H
  N1       1.0000 0.59680  0.05183  0.18820  Biso   1.000  N
  N2       1.0000 0.90320  0.55183  0.31180  Biso   1.000  N
  N3       1.0000 0.40320  0.94817  0.81180  Biso   1.000  N
  N4       1.0000 0.09680  0.44817  0.68820  Biso   1.000  N
  C37      1.0000 0.74460  0.02185  0.17870  Biso   1.000  C
  C38      1.0000 0.75540  0.52185  0.32130  Biso   1.000  C
  C39      1.0000 0.25540  0.97815  0.82130  Biso   1.000  C
  C40      1.0000 0.24460  0.47815  0.67870  Biso   1.000  C
  H25      1.0000 0.80970  0.99610  0.24970  Biso   1.000  H
  H26      1.0000 0.69030  0.49610  0.25030  Biso   1.000  H
  H27      1.0000 0.19030  0.00390  0.75030  Biso   1.000  H
  H28      1.0000 0.30970  0.50390  0.74970  Biso   1.000  H
  N5       1.0000 0.78820  0.03271  0.05780  Biso   1.000  N
  N6       1.0000 0.71180  0.53271  0.44220  Biso   1.000  N
  N7       1.0000 0.21180  0.96729  0.94220  Biso   1.000  N
  N8       1.0000 0.28820  0.46729  0.55780  Biso   1.000  N
  C41      1.0000 0.65730  0.07157  0.98670  Biso   1.000  C
  C42      1.0000 0.84270  0.57157  0.51330  Biso   1.000  C
  C43      1.0000 0.34270  0.92843  0.01330  Biso   1.000  C
  C44      1.0000 0.15730  0.42843  0.48670  Biso   1.000  C
  H29      1.0000 0.65080  0.08730  0.89550  Biso   1.000  H
  H30      1.0000 0.84920  0.58730  0.60450  Biso   1.000  H
  H31      1.0000 0.34920  0.91270  0.10450  Biso   1.000  H
  H32      1.0000 0.15080  0.41270  0.39550  Biso   1.000  H
  C45      1.0000 0.54070  0.08363  0.06710  Biso   1.000  C
  C46      1.0000 0.95930  0.58363  0.43290  Biso   1.000  C
  C47      1.0000 0.45930  0.91637  0.93290  Biso   1.000  C
  C48      1.0000 0.04070  0.41637  0.56710  Biso   1.000  C
  H33      1.0000 0.43960  0.10920  0.04380  Biso   1.000  H
  H34      1.0000 0.06040  0.60920  0.45620  Biso   1.000  H
  H35      1.0000 0.56040  0.89080  0.95620  Biso   1.000  H
  H36      1.0000 0.93960  0.39080  0.54380  Biso   1.000  H
  O17      1.0000 0.26370  0.07700  0.57370  Biso   1.000  O
  O18      1.0000 0.23630  0.57700  0.92630  Biso   1.000  O
  O19      1.0000 0.73630  0.92300  0.42630  Biso   1.000  O
  O20      1.0000 0.76370  0.42300  0.07370  Biso   1.000  O
  C49      1.0000 0.33330  0.15850  0.68890  Biso   1.000  C
  C50      1.0000 0.16670  0.65850  0.81110  Biso   1.000  C
  C51      1.0000 0.66670  0.84150  0.31110  Biso   1.000  C
  C52      1.0000 0.83330  0.34150  0.18890  Biso   1.000  C
  H37      1.0000 0.31050  0.13780  0.77150  Biso   1.000  H
  H38      1.0000 0.18950  0.63780  0.72850  Biso   1.000  H
  H39      1.0000 0.68950  0.86220  0.22850  Biso   1.000  H
  H40      1.0000 0.81050  0.36220  0.27150  Biso   1.000  H
  H41      1.0000 0.29240  0.20070  0.68750  Biso   1.000  H
  H42      1.0000 0.20760  0.70070  0.81250  Biso   1.000  H
  H43      1.0000 0.70760  0.79930  0.31250  Biso   1.000  H
  H44      1.0000 0.79240  0.29930  0.18750  Biso   1.000  H
  H45      1.0000 0.46050  0.15790  0.69220  Biso   1.000  H
  H46      1.0000 0.03950  0.65790  0.80780  Biso   1.000  H
  H47      1.0000 0.53950  0.84210  0.30780  Biso   1.000  H
  H48      1.0000 0.96050  0.34210  0.19220  Biso   1.000  H
  C53      1.0000 0.23890  0.12730  0.56310  Biso   1.000  C
  C54      1.0000 0.26110  0.62730  0.93690  Biso   1.000  C
  C55      1.0000 0.76110  0.87270  0.43690  Biso   1.000  C
  C56      1.0000 0.73890  0.37270  0.06310  Biso   1.000  C
  N9       1.0000 0.16120  0.16010  0.44770  Biso   1.000  N
  N10      1.0000 0.33880  0.66010  0.05230  Biso   1.000  N
  N11      1.0000 0.83880  0.83990  0.55230  Biso   1.000  N
  N12      1.0000 0.66120  0.33990  0.94770  Biso   1.000  N
  C57      1.0000 0.06410  0.12880  0.32190  Biso   1.000  C
  C58      1.0000 0.43590  0.62880  0.17810  Biso   1.000  C
  C59      1.0000 0.93590  0.87120  0.67810  Biso   1.000  C
  C60      1.0000 0.56410  0.37120  0.82190  Biso   1.000  C
  H49      1.0000 0.05650  0.08530  0.34160  Biso   1.000  H
  H50      1.0000 0.44350  0.58530  0.15840  Biso   1.000  H
  H51      1.0000 0.94350  0.91470  0.65840  Biso   1.000  H
  H52      1.0000 0.55650  0.41470  0.84160  Biso   1.000  H
  H53      1.0000 0.12630  0.13440  0.24620  Biso   1.000  H
  H54      1.0000 0.37370  0.63440  0.25380  Biso   1.000  H
  H55      1.0000 0.87370  0.86560  0.75380  Biso   1.000  H
  H56      1.0000 0.62630  0.36560  0.74620  Biso   1.000  H
  H57      1.0000 0.94470  0.14590  0.29370  Biso   1.000  H
  H58      1.0000 0.55530  0.64590  0.20630  Biso   1.000  H
  H59      1.0000 0.05530  0.85410  0.70630  Biso   1.000  H
  H60      1.0000 0.44470  0.35410  0.79370  Biso   1.000  H
  C61      1.0000 0.16240  0.22660  0.43810  Biso   1.000  C
  C62      1.0000 0.33760  0.72660  0.06190  Biso   1.000  C
  C63      1.0000 0.83760  0.77340  0.56190  Biso   1.000  C
  C64      1.0000 0.66240  0.27340  0.93810  Biso   1.000  C
  H61      1.0000 0.05580  0.24300  0.46270  Biso   1.000  H
  H62      1.0000 0.44420  0.74300  0.03730  Biso   1.000  H
  H63      1.0000 0.94420  0.75700  0.53730  Biso   1.000  H
  H64      1.0000 0.55580  0.25700  0.96270  Biso   1.000  H
  H65      1.0000 0.16460  0.23870  0.34240  Biso   1.000  H
  H66      1.0000 0.33540  0.73870  0.15760  Biso   1.000  H
  H67      1.0000 0.83540  0.76130  0.65760  Biso   1.000  H
  H68      1.0000 0.66460  0.26130  0.84240  Biso   1.000  H
  H69      1.0000 0.26750  0.24270  0.50280  Biso   1.000  H
  H70      1.0000 0.23250  0.74270  0.99720  Biso   1.000  H
  H71      1.0000 0.73250  0.75730  0.49720  Biso   1.000  H
  H72      1.0000 0.76750  0.25730  0.00280  Biso   1.000  H
  O21      1.0000 0.22060  0.07010  0.55180  Biso   1.000  O
  O22      1.0000 0.27940  0.57010  0.94820  Biso   1.000  O
  O23      1.0000 0.77940  0.92990  0.44820  Biso   1.000  O
  O24      1.0000 0.72060  0.42990  0.05180  Biso   1.000  O
  C65      1.0000 0.19880  0.12420  0.50560  Biso   1.000  C
  C66      1.0000 0.30120  0.62420  0.99440  Biso   1.000  C
  C67      1.0000 0.80120  0.87580  0.49440  Biso   1.000  C
  C68      1.0000 0.69880  0.37580  0.00560  Biso   1.000  C
  C69      1.0000 0.08580  0.12680  0.36360  Biso   1.000  C
  C70      1.0000 0.41420  0.62680  0.13640  Biso   1.000  C
  C71      1.0000 0.91420  0.87320  0.63640  Biso   1.000  C
  C72      1.0000 0.58580  0.37320  0.86360  Biso   1.000  C
  H73      1.0000 0.08030  0.08640  0.32040  Biso   1.000  H
  H74      1.0000 0.41970  0.58640  0.17960  Biso   1.000  H
  H75      1.0000 0.91970  0.91360  0.67960  Biso   1.000  H
  H76      1.0000 0.58030  0.41360  0.82040  Biso   1.000  H
  H77      1.0000 0.13540  0.15600  0.30730  Biso   1.000  H
  H78      1.0000 0.36460  0.65600  0.19270  Biso   1.000  H
  H79      1.0000 0.86460  0.84400  0.69270  Biso   1.000  H
  H80      1.0000 0.63540  0.34400  0.80730  Biso   1.000  H
  H81      1.0000 0.96640  0.13970  0.36850  Biso   1.000  H
  H82      1.0000 0.53360  0.63970  0.13150  Biso   1.000  H
  H83      1.0000 0.03360  0.86030  0.63150  Biso   1.000  H
  H84      1.0000 0.46640  0.36030  0.86850  Biso   1.000  H
  N13      1.0000 0.24190  0.17660  0.57200  Biso   1.000  N
  N14      1.0000 0.25810  0.67660  0.92800  Biso   1.000  N
  N15      1.0000 0.75810  0.82340  0.42800  Biso   1.000  N
  N16      1.0000 0.74190  0.32340  0.07200  Biso   1.000  N
  C73      1.0000 0.35590  0.17550  0.71430  Biso   1.000  C
  C74      1.0000 0.14410  0.67550  0.78570  Biso   1.000  C
  C75      1.0000 0.64410  0.82450  0.28570  Biso   1.000  C
  C76      1.0000 0.85590  0.32450  0.21430  Biso   1.000  C
  H85      1.0000 0.29040  0.19170  0.78070  Biso   1.000  H
  H86      1.0000 0.20960  0.69170  0.71930  Biso   1.000  H
  H87      1.0000 0.70960  0.80830  0.21930  Biso   1.000  H
  H88      1.0000 0.79040  0.30830  0.28070  Biso   1.000  H
  H89      1.0000 0.46130  0.20040  0.71670  Biso   1.000  H
  H90      1.0000 0.03870  0.70040  0.78330  Biso   1.000  H
  H91      1.0000 0.53870  0.79960  0.28330  Biso   1.000  H
  H92      1.0000 0.96130  0.29960  0.21670  Biso   1.000  H
  H93      1.0000 0.39190  0.13350  0.73980  Biso   1.000  H
  H94      1.0000 0.10810  0.63350  0.76020  Biso   1.000  H
  H95      1.0000 0.60810  0.86650  0.26020  Biso   1.000  H
  H96      1.0000 0.89190  0.36650  0.23980  Biso   1.000  H
  C77      1.0000 0.18930  0.23580  0.51940  Biso   1.000  C
  C78      1.0000 0.31070  0.73580  0.98060  Biso   1.000  C
  C79      1.0000 0.81070  0.76420  0.48060  Biso   1.000  C
  C80      1.0000 0.68930  0.26420  0.01940  Biso   1.000  C
  H97      1.0000 0.14150  0.25830  0.58880  Biso   1.000  H
  H98      1.0000 0.35850  0.75830  0.91120  Biso   1.000  H
  H99      1.0000 0.85850  0.74170  0.41120  Biso   1.000  H
  H100     1.0000 0.64150  0.24170  0.08880  Biso   1.000  H
  H101     1.0000 0.09820  0.23220  0.43270  Biso   1.000  H
  H102     1.0000 0.40180  0.73220  0.06730  Biso   1.000  H
  H103     1.0000 0.90180  0.76780  0.56730  Biso   1.000  H
  H104     1.0000 0.59820  0.26780  0.93270  Biso   1.000  H
  H105     1.0000 0.29180  0.25750  0.50060  Biso   1.000  H
  H106     1.0000 0.20820  0.75750  0.99940  Biso   1.000  H
  H107     1.0000 0.70820  0.74250  0.49940  Biso   1.000  H
  H108     1.0000 0.79180  0.24250  0.00060  Biso   1.000  H
