data_image0
_cell_length_a       11.6944
_cell_length_b       20.499
_cell_length_c       6.395
_cell_angle_alpha    90
_cell_angle_beta     90
_cell_angle_gamma    90

_symmetry_space_group_name_H-M    "P 1"
_symmetry_int_tables_number       1

loop_
  _symmetry_equiv_pos_as_xyz
  'x, y, z'

loop_
  _atom_site_label
  _atom_site_occupancy
  _atom_site_fract_x
  _atom_site_fract_y
  _atom_site_fract_z
  _atom_site_thermal_displace_type
  _atom_site_B_iso_or_equiv
  _atom_site_type_symbol
  Cu1      1.0000 0.33634  0.63561  0.11110  Biso   1.000  Cu
  Cu2      1.0000 0.83634  0.13561  0.88890  Biso   1.000  Cu
  Cu3      1.0000 0.33634  0.86439  0.61110  Biso   1.000  Cu
  Cu4      1.0000 0.16366  0.63561  0.61110  Biso   1.000  Cu
  Cu5      1.0000 0.66366  0.36439  0.88890  Biso   1.000  Cu
  Cu6      1.0000 0.16366  0.86439  0.11110  Biso   1.000  Cu
  Cu7      1.0000 0.66366  0.13561  0.38890  Biso   1.000  Cu
  Cu8      1.0000 0.83634  0.36439  0.38890  Biso   1.000  Cu
  O1       1.0000 0.40668  0.71973  0.06230  Biso   1.000  O
  O2       1.0000 0.90668  0.21973  0.93770  Biso   1.000  O
  O3       1.0000 0.40668  0.78027  0.56230  Biso   1.000  O
  O4       1.0000 0.09332  0.71973  0.56230  Biso   1.000  O
  O5       1.0000 0.59332  0.28027  0.93770  Biso   1.000  O
  O6       1.0000 0.09332  0.78027  0.06230  Biso   1.000  O
  O7       1.0000 0.59332  0.21973  0.43770  Biso   1.000  O
  O8       1.0000 0.90668  0.28027  0.43770  Biso   1.000  O
  O9       1.0000 0.57160  0.77310  0.09100  Biso   1.000  O
  O10      1.0000 0.07160  0.27310  0.90900  Biso   1.000  O
  O11      1.0000 0.57160  0.72690  0.59100  Biso   1.000  O
  O12      1.0000 0.92840  0.77310  0.59100  Biso   1.000  O
  O13      1.0000 0.42840  0.22690  0.90900  Biso   1.000  O
  O14      1.0000 0.92840  0.72690  0.09100  Biso   1.000  O
  O15      1.0000 0.42840  0.27310  0.40900  Biso   1.000  O
  O16      1.0000 0.07160  0.22690  0.40900  Biso   1.000  O
  O17      1.0000 0.77862  0.45266  0.33180  Biso   1.000  O
  O18      1.0000 0.27862  0.95266  0.66820  Biso   1.000  O
  O19      1.0000 0.77862  0.04734  0.83180  Biso   1.000  O
  O20      1.0000 0.72138  0.45266  0.83180  Biso   1.000  O
  O21      1.0000 0.22138  0.54734  0.66820  Biso   1.000  O
  O22      1.0000 0.72138  0.04734  0.33180  Biso   1.000  O
  O23      1.0000 0.22138  0.95266  0.16820  Biso   1.000  O
  O24      1.0000 0.27862  0.54734  0.16820  Biso   1.000  O
  O25      1.0000 0.59660  0.42456  0.27870  Biso   1.000  O
  O26      1.0000 0.09660  0.92456  0.72130  Biso   1.000  O
  O27      1.0000 0.59660  0.07544  0.77870  Biso   1.000  O
  O28      1.0000 0.90340  0.42456  0.77870  Biso   1.000  O
  O29      1.0000 0.40340  0.57544  0.72130  Biso   1.000  O
  O30      1.0000 0.90340  0.07544  0.27870  Biso   1.000  O
  O31      1.0000 0.40340  0.92456  0.22130  Biso   1.000  O
  O32      1.0000 0.09660  0.57544  0.22130  Biso   1.000  O
  O33      1.0000 0.18936  0.66539  0.99870  Biso   1.000  O
  O34      1.0000 0.68936  0.16539  0.00130  Biso   1.000  O
  O35      1.0000 0.18936  0.83461  0.49870  Biso   1.000  O
  O36      1.0000 0.31064  0.66539  0.49870  Biso   1.000  O
  O37      1.0000 0.81064  0.33461  0.00130  Biso   1.000  O
  O38      1.0000 0.31064  0.83461  0.99870  Biso   1.000  O
  O39      1.0000 0.81064  0.16539  0.50130  Biso   1.000  O
  O40      1.0000 0.68936  0.33461  0.50130  Biso   1.000  O
  H1       1.0000 0.16300  0.70300  0.01000  Biso   1.000  H
  H2       1.0000 0.66300  0.20300  0.99000  Biso   1.000  H
  H3       1.0000 0.16300  0.79700  0.51000  Biso   1.000  H
  H4       1.0000 0.33700  0.70300  0.51000  Biso   1.000  H
  H5       1.0000 0.83700  0.29700  0.99000  Biso   1.000  H
  H6       1.0000 0.33700  0.79700  0.01000  Biso   1.000  H
  H7       1.0000 0.83700  0.20300  0.49000  Biso   1.000  H
  H8       1.0000 0.66300  0.29700  0.49000  Biso   1.000  H
  H9       1.0000 0.13000  0.63600  0.05500  Biso   1.000  H
  H10      1.0000 0.63000  0.13600  0.94500  Biso   1.000  H
  H11      1.0000 0.13000  0.86400  0.55500  Biso   1.000  H
  H12      1.0000 0.37000  0.63600  0.55500  Biso   1.000  H
  H13      1.0000 0.87000  0.36400  0.94500  Biso   1.000  H
  H14      1.0000 0.37000  0.86400  0.05500  Biso   1.000  H
  H15      1.0000 0.87000  0.13600  0.44500  Biso   1.000  H
  H16      1.0000 0.63000  0.36400  0.44500  Biso   1.000  H
  N1       1.0000 0.49390  0.60947  0.17270  Biso   1.000  N
  N2       1.0000 0.99390  0.10947  0.82730  Biso   1.000  N
  N3       1.0000 0.49390  0.89053  0.67270  Biso   1.000  N
  N4       1.0000 0.00610  0.60947  0.67270  Biso   1.000  N
  N5       1.0000 0.50610  0.39053  0.82730  Biso   1.000  N
  N6       1.0000 0.00610  0.89053  0.17270  Biso   1.000  N
  N7       1.0000 0.50610  0.10947  0.32730  Biso   1.000  N
  N8       1.0000 0.99390  0.39053  0.32730  Biso   1.000  N
  C1       1.0000 0.56980  0.65866  0.15390  Biso   1.000  C
  C2       1.0000 0.06980  0.15866  0.84610  Biso   1.000  C
  C3       1.0000 0.56980  0.84134  0.65390  Biso   1.000  C
  C4       1.0000 0.93020  0.65866  0.65390  Biso   1.000  C
  C5       1.0000 0.43020  0.34134  0.84610  Biso   1.000  C
  C6       1.0000 0.93020  0.84134  0.15390  Biso   1.000  C
  C7       1.0000 0.43020  0.15866  0.34610  Biso   1.000  C
  C8       1.0000 0.06980  0.34134  0.34610  Biso   1.000  C
  C9       1.0000 0.68520  0.64856  0.18050  Biso   1.000  C
  C10      1.0000 0.18520  0.14856  0.81950  Biso   1.000  C
  C11      1.0000 0.68520  0.85144  0.68050  Biso   1.000  C
  C12      1.0000 0.81480  0.64856  0.68050  Biso   1.000  C
  C13      1.0000 0.31480  0.35144  0.81950  Biso   1.000  C
  C14      1.0000 0.81480  0.85144  0.18050  Biso   1.000  C
  C15      1.0000 0.31480  0.14856  0.31950  Biso   1.000  C
  C16      1.0000 0.18520  0.35144  0.31950  Biso   1.000  C
  H17      1.0000 0.74100  0.68330  0.16500  Biso   1.000  H
  H18      1.0000 0.24100  0.18330  0.83500  Biso   1.000  H
  H19      1.0000 0.74100  0.81670  0.66500  Biso   1.000  H
  H20      1.0000 0.75900  0.68330  0.66500  Biso   1.000  H
  H21      1.0000 0.25900  0.31670  0.83500  Biso   1.000  H
  H22      1.0000 0.75900  0.81670  0.16500  Biso   1.000  H
  H23      1.0000 0.25900  0.18330  0.33500  Biso   1.000  H
  H24      1.0000 0.24100  0.31670  0.33500  Biso   1.000  H
  C17      1.0000 0.72370  0.58586  0.22610  Biso   1.000  C
  C18      1.0000 0.22370  0.08586  0.77390  Biso   1.000  C
  C19      1.0000 0.72370  0.91414  0.72610  Biso   1.000  C
  C20      1.0000 0.77630  0.58586  0.72610  Biso   1.000  C
  C21      1.0000 0.27630  0.41414  0.77390  Biso   1.000  C
  C22      1.0000 0.77630  0.91414  0.22610  Biso   1.000  C
  C23      1.0000 0.27630  0.08586  0.27390  Biso   1.000  C
  C24      1.0000 0.22370  0.41414  0.27390  Biso   1.000  C
  H25      1.0000 0.80600  0.57660  0.24500  Biso   1.000  H
  H26      1.0000 0.30600  0.07660  0.75500  Biso   1.000  H
  H27      1.0000 0.80600  0.92340  0.74500  Biso   1.000  H
  H28      1.0000 0.69400  0.57660  0.74500  Biso   1.000  H
  H29      1.0000 0.19400  0.42340  0.75500  Biso   1.000  H
  H30      1.0000 0.69400  0.92340  0.24500  Biso   1.000  H
  H31      1.0000 0.19400  0.07660  0.25500  Biso   1.000  H
  H32      1.0000 0.30600  0.42340  0.25500  Biso   1.000  H
  C25      1.0000 0.53010  0.55004  0.21900  Biso   1.000  C
  C26      1.0000 0.03010  0.05004  0.78100  Biso   1.000  C
  C27      1.0000 0.53010  0.94996  0.71900  Biso   1.000  C
  C28      1.0000 0.96990  0.55004  0.71900  Biso   1.000  C
  C29      1.0000 0.46990  0.44996  0.78100  Biso   1.000  C
  C30      1.0000 0.96990  0.94996  0.21900  Biso   1.000  C
  C31      1.0000 0.46990  0.05004  0.28100  Biso   1.000  C
  C32      1.0000 0.03010  0.44996  0.28100  Biso   1.000  C
  H33      1.0000 0.47600  0.52140  0.23300  Biso   1.000  H
  H34      1.0000 0.97600  0.02140  0.76700  Biso   1.000  H
  H35      1.0000 0.47600  0.97860  0.73300  Biso   1.000  H
  H36      1.0000 0.02400  0.52140  0.73300  Biso   1.000  H
  H37      1.0000 0.52400  0.47860  0.76700  Biso   1.000  H
  H38      1.0000 0.02400  0.97860  0.23300  Biso   1.000  H
  H39      1.0000 0.52400  0.02140  0.26700  Biso   1.000  H
  H40      1.0000 0.97600  0.47860  0.26700  Biso   1.000  H
  C33      1.0000 0.51580  0.72329  0.09880  Biso   1.000  C
  C34      1.0000 0.01580  0.22329  0.90120  Biso   1.000  C
  C35      1.0000 0.51580  0.77671  0.59880  Biso   1.000  C
  C36      1.0000 0.98420  0.72329  0.59880  Biso   1.000  C
  C37      1.0000 0.48420  0.27671  0.90120  Biso   1.000  C
  C38      1.0000 0.98420  0.77671  0.09880  Biso   1.000  C
  C39      1.0000 0.48420  0.22329  0.40120  Biso   1.000  C
  C40      1.0000 0.01580  0.27671  0.40120  Biso   1.000  C
  C41      1.0000 0.64480  0.53527  0.24590  Biso   1.000  C
  C42      1.0000 0.14480  0.03527  0.75410  Biso   1.000  C
  C43      1.0000 0.64480  0.96473  0.74590  Biso   1.000  C
  C44      1.0000 0.85520  0.53527  0.74590  Biso   1.000  C
  C45      1.0000 0.35520  0.46473  0.75410  Biso   1.000  C
  C46      1.0000 0.85520  0.96473  0.24590  Biso   1.000  C
  C47      1.0000 0.35520  0.03527  0.25410  Biso   1.000  C
  C48      1.0000 0.14480  0.46473  0.25410  Biso   1.000  C
  C49      1.0000 0.67550  0.46528  0.28920  Biso   1.000  C
  C50      1.0000 0.17550  0.96528  0.71080  Biso   1.000  C
  C51      1.0000 0.67550  0.03472  0.78920  Biso   1.000  C
  C52      1.0000 0.82450  0.46528  0.78920  Biso   1.000  C
  C53      1.0000 0.32450  0.53472  0.71080  Biso   1.000  C
  C54      1.0000 0.82450  0.03472  0.28920  Biso   1.000  C
  C55      1.0000 0.32450  0.96528  0.21080  Biso   1.000  C
  C56      1.0000 0.17550  0.53472  0.21080  Biso   1.000  C
