data_image0
_cell_length_a       11.685
_cell_length_b       20.497
_cell_length_c       6.396
_cell_angle_alpha    90
_cell_angle_beta     90
_cell_angle_gamma    90

_symmetry_space_group_name_H-M    "P 1"
_symmetry_int_tables_number       1

loop_
  _symmetry_equiv_pos_as_xyz
  'x, y, z'

loop_
  _atom_site_label
  _atom_site_occupancy
  _atom_site_fract_x
  _atom_site_fract_y
  _atom_site_fract_z
  _atom_site_thermal_displace_type
  _atom_site_B_iso_or_equiv
  _atom_site_type_symbol
  Cu1      1.0000 0.83629  0.63555  0.11077  Biso   1.000  Cu
  Cu2      1.0000 0.66371  0.86445  0.11077  Biso   1.000  Cu
  Cu3      1.0000 0.16371  0.13555  0.38923  Biso   1.000  Cu
  Cu4      1.0000 0.33629  0.36445  0.38923  Biso   1.000  Cu
  Cu5      1.0000 0.16371  0.36445  0.88923  Biso   1.000  Cu
  Cu6      1.0000 0.33629  0.13555  0.88923  Biso   1.000  Cu
  Cu7      1.0000 0.83629  0.86445  0.61077  Biso   1.000  Cu
  Cu8      1.0000 0.66371  0.63555  0.61077  Biso   1.000  Cu
  N1       1.0000 0.99370  0.60944  0.17230  Biso   1.000  N
  N2       1.0000 0.50630  0.89056  0.17230  Biso   1.000  N
  N3       1.0000 0.00630  0.10944  0.32770  Biso   1.000  N
  N4       1.0000 0.49370  0.39056  0.32770  Biso   1.000  N
  N5       1.0000 0.00630  0.39056  0.82770  Biso   1.000  N
  N6       1.0000 0.49370  0.10944  0.82770  Biso   1.000  N
  N7       1.0000 0.99370  0.89056  0.67230  Biso   1.000  N
  N8       1.0000 0.50630  0.60944  0.67230  Biso   1.000  N
  O1       1.0000 0.90640  0.71953  0.06170  Biso   1.000  O
  O2       1.0000 0.59360  0.78047  0.06170  Biso   1.000  O
  O3       1.0000 0.09360  0.21953  0.43830  Biso   1.000  O
  O4       1.0000 0.40640  0.28047  0.43830  Biso   1.000  O
  O5       1.0000 0.09360  0.28047  0.93830  Biso   1.000  O
  O6       1.0000 0.40640  0.21953  0.93830  Biso   1.000  O
  O7       1.0000 0.90640  0.78047  0.56170  Biso   1.000  O
  O8       1.0000 0.59360  0.71953  0.56170  Biso   1.000  O
  O9       1.0000 0.07190  0.77309  0.09020  Biso   1.000  O
  O10      1.0000 0.42810  0.72691  0.09020  Biso   1.000  O
  O11      1.0000 0.92810  0.27309  0.40980  Biso   1.000  O
  O12      1.0000 0.57190  0.22691  0.40980  Biso   1.000  O
  O13      1.0000 0.92810  0.22691  0.90980  Biso   1.000  O
  O14      1.0000 0.57190  0.27309  0.90980  Biso   1.000  O
  O15      1.0000 0.07190  0.72691  0.59020  Biso   1.000  O
  O16      1.0000 0.42810  0.77309  0.59020  Biso   1.000  O
  O17      1.0000 0.09700  0.42459  0.28090  Biso   1.000  O
  O18      1.0000 0.40300  0.07541  0.28090  Biso   1.000  O
  O19      1.0000 0.90300  0.92459  0.21910  Biso   1.000  O
  O20      1.0000 0.59700  0.57541  0.21910  Biso   1.000  O
  O21      1.0000 0.90300  0.57541  0.71910  Biso   1.000  O
  O22      1.0000 0.59700  0.92459  0.71910  Biso   1.000  O
  O23      1.0000 0.09700  0.07541  0.78090  Biso   1.000  O
  O24      1.0000 0.40300  0.42459  0.78090  Biso   1.000  O
  O25      1.0000 0.27820  0.45276  0.33170  Biso   1.000  O
  O26      1.0000 0.22180  0.04724  0.33170  Biso   1.000  O
  O27      1.0000 0.72180  0.95276  0.16830  Biso   1.000  O
  O28      1.0000 0.77820  0.54724  0.16830  Biso   1.000  O
  O29      1.0000 0.72180  0.54724  0.66830  Biso   1.000  O
  O30      1.0000 0.77820  0.95276  0.66830  Biso   1.000  O
  O31      1.0000 0.27820  0.04724  0.83170  Biso   1.000  O
  O32      1.0000 0.22180  0.45276  0.83170  Biso   1.000  O
  O33      1.0000 0.68900  0.66531  0.99850  Biso   1.000  O
  O34      1.0000 0.81100  0.83469  0.99850  Biso   1.000  O
  O35      1.0000 0.31100  0.16531  0.50150  Biso   1.000  O
  O36      1.0000 0.18900  0.33469  0.50150  Biso   1.000  O
  O37      1.0000 0.31100  0.33469  0.00150  Biso   1.000  O
  O38      1.0000 0.18900  0.16531  0.00150  Biso   1.000  O
  O39      1.0000 0.68900  0.83469  0.49850  Biso   1.000  O
  O40      1.0000 0.81100  0.66531  0.49850  Biso   1.000  O
  C1       1.0000 0.06950  0.65870  0.15260  Biso   1.000  C
  C2       1.0000 0.43050  0.84130  0.15260  Biso   1.000  C
  C3       1.0000 0.93050  0.15870  0.34740  Biso   1.000  C
  C4       1.0000 0.56950  0.34130  0.34740  Biso   1.000  C
  C5       1.0000 0.93050  0.34130  0.84740  Biso   1.000  C
  C6       1.0000 0.56950  0.15870  0.84740  Biso   1.000  C
  C7       1.0000 0.06950  0.84130  0.65260  Biso   1.000  C
  C8       1.0000 0.43050  0.65870  0.65260  Biso   1.000  C
  C9       1.0000 0.18490  0.64820  0.18170  Biso   1.000  C
  C10      1.0000 0.31510  0.85180  0.18170  Biso   1.000  C
  C11      1.0000 0.81510  0.14820  0.31830  Biso   1.000  C
  C12      1.0000 0.68490  0.35180  0.31830  Biso   1.000  C
  C13      1.0000 0.81510  0.35180  0.81830  Biso   1.000  C
  C14      1.0000 0.68490  0.14820  0.81830  Biso   1.000  C
  C15      1.0000 0.18490  0.85180  0.68170  Biso   1.000  C
  C16      1.0000 0.31510  0.64820  0.68170  Biso   1.000  C
  H1       1.0000 0.23660  0.68260  0.17200  Biso   1.000  H
  H2       1.0000 0.26340  0.81740  0.17200  Biso   1.000  H
  H3       1.0000 0.76340  0.18260  0.32800  Biso   1.000  H
  H4       1.0000 0.73660  0.31740  0.32800  Biso   1.000  H
  H5       1.0000 0.76340  0.31740  0.82800  Biso   1.000  H
  H6       1.0000 0.73660  0.18260  0.82800  Biso   1.000  H
  H7       1.0000 0.23660  0.81740  0.67200  Biso   1.000  H
  H8       1.0000 0.26340  0.68260  0.67200  Biso   1.000  H
  C17      1.0000 0.22260  0.58580  0.22560  Biso   1.000  C
  C18      1.0000 0.27740  0.91420  0.22560  Biso   1.000  C
  C19      1.0000 0.77740  0.08580  0.27440  Biso   1.000  C
  C20      1.0000 0.72260  0.41420  0.27440  Biso   1.000  C
  C21      1.0000 0.77740  0.41420  0.77440  Biso   1.000  C
  C22      1.0000 0.72260  0.08580  0.77440  Biso   1.000  C
  C23      1.0000 0.22260  0.91420  0.72560  Biso   1.000  C
  C24      1.0000 0.27740  0.58580  0.72560  Biso   1.000  C
  H9       1.0000 0.30040  0.57760  0.24120  Biso   1.000  H
  H10      1.0000 0.19960  0.92240  0.24120  Biso   1.000  H
  H11      1.0000 0.69960  0.07760  0.25880  Biso   1.000  H
  H12      1.0000 0.80040  0.42240  0.25880  Biso   1.000  H
  H13      1.0000 0.69960  0.42240  0.75880  Biso   1.000  H
  H14      1.0000 0.80040  0.07760  0.75880  Biso   1.000  H
  H15      1.0000 0.30040  0.92240  0.74120  Biso   1.000  H
  H16      1.0000 0.19960  0.57760  0.74120  Biso   1.000  H
  C25      1.0000 0.14420  0.53570  0.24620  Biso   1.000  C
  C26      1.0000 0.35580  0.96430  0.24620  Biso   1.000  C
  C27      1.0000 0.85580  0.03570  0.25380  Biso   1.000  C
  C28      1.0000 0.64420  0.46430  0.25380  Biso   1.000  C
  C29      1.0000 0.85580  0.46430  0.75380  Biso   1.000  C
  C30      1.0000 0.64420  0.03570  0.75380  Biso   1.000  C
  C31      1.0000 0.14420  0.96430  0.74620  Biso   1.000  C
  C32      1.0000 0.35580  0.53570  0.74620  Biso   1.000  C
  C33      1.0000 0.02950  0.55020  0.21790  Biso   1.000  C
  C34      1.0000 0.47050  0.94980  0.21790  Biso   1.000  C
  C35      1.0000 0.97050  0.05020  0.28210  Biso   1.000  C
  C36      1.0000 0.52950  0.44980  0.28210  Biso   1.000  C
  C37      1.0000 0.97050  0.44980  0.78210  Biso   1.000  C
  C38      1.0000 0.52950  0.05020  0.78210  Biso   1.000  C
  C39      1.0000 0.02950  0.94980  0.71790  Biso   1.000  C
  C40      1.0000 0.47050  0.55020  0.71790  Biso   1.000  C
  H17      1.0000 0.97590  0.51690  0.23150  Biso   1.000  H
  H18      1.0000 0.52410  0.98310  0.23150  Biso   1.000  H
  H19      1.0000 0.02410  0.01690  0.26850  Biso   1.000  H
  H20      1.0000 0.47590  0.48310  0.26850  Biso   1.000  H
  H21      1.0000 0.02410  0.48310  0.76850  Biso   1.000  H
  H22      1.0000 0.47590  0.01690  0.76850  Biso   1.000  H
  H23      1.0000 0.97590  0.98310  0.73150  Biso   1.000  H
  H24      1.0000 0.52410  0.51690  0.73150  Biso   1.000  H
  C41      1.0000 0.01630  0.72340  0.09980  Biso   1.000  C
  C42      1.0000 0.48370  0.77660  0.09980  Biso   1.000  C
  C43      1.0000 0.98370  0.22340  0.40020  Biso   1.000  C
  C44      1.0000 0.51630  0.27660  0.40020  Biso   1.000  C
  C45      1.0000 0.98370  0.27660  0.90020  Biso   1.000  C
  C46      1.0000 0.51630  0.22340  0.90020  Biso   1.000  C
  C47      1.0000 0.01630  0.77660  0.59980  Biso   1.000  C
  C48      1.0000 0.48370  0.72340  0.59980  Biso   1.000  C
  C49      1.0000 0.17470  0.46540  0.28860  Biso   1.000  C
  C50      1.0000 0.32530  0.03460  0.28860  Biso   1.000  C
  C51      1.0000 0.82530  0.96540  0.21140  Biso   1.000  C
  C52      1.0000 0.67470  0.53460  0.21140  Biso   1.000  C
  C53      1.0000 0.82530  0.53460  0.71140  Biso   1.000  C
  C54      1.0000 0.67470  0.96540  0.71140  Biso   1.000  C
  C55      1.0000 0.17470  0.03460  0.78860  Biso   1.000  C
  C56      1.0000 0.32530  0.46540  0.78860  Biso   1.000  C
  H25      1.0000 0.64700  0.64200  0.06800  Biso   1.000  H
  H26      1.0000 0.85300  0.85800  0.06800  Biso   1.000  H
  H27      1.0000 0.35300  0.14200  0.43200  Biso   1.000  H
  H28      1.0000 0.14700  0.35800  0.43200  Biso   1.000  H
  H29      1.0000 0.35300  0.35800  0.93200  Biso   1.000  H
  H30      1.0000 0.14700  0.14200  0.93200  Biso   1.000  H
  H31      1.0000 0.64700  0.85800  0.56800  Biso   1.000  H
  H32      1.0000 0.85300  0.64200  0.56800  Biso   1.000  H
  H33      1.0000 0.67000  0.70390  0.00800  Biso   1.000  H
  H34      1.0000 0.83000  0.79610  0.00800  Biso   1.000  H
  H35      1.0000 0.33000  0.20390  0.49200  Biso   1.000  H
  H36      1.0000 0.17000  0.29610  0.49200  Biso   1.000  H
  H37      1.0000 0.33000  0.29610  0.99200  Biso   1.000  H
  H38      1.0000 0.17000  0.20390  0.99200  Biso   1.000  H
  H39      1.0000 0.67000  0.79610  0.50800  Biso   1.000  H
  H40      1.0000 0.83000  0.70390  0.50800  Biso   1.000  H
