data_image0
_cell_length_a       11.1496
_cell_length_b       11.9034
_cell_length_c       20.6542
_cell_angle_alpha    90
_cell_angle_beta     99.227
_cell_angle_gamma    90

_symmetry_space_group_name_H-M    "P 1"
_symmetry_int_tables_number       1

loop_
  _symmetry_equiv_pos_as_xyz
  'x, y, z'

loop_
  _atom_site_label
  _atom_site_occupancy
  _atom_site_fract_x
  _atom_site_fract_y
  _atom_site_fract_z
  _atom_site_thermal_displace_type
  _atom_site_B_iso_or_equiv
  _atom_site_type_symbol
  Cu1      1.0000 0.99778  0.61915  0.24754  Biso   1.000  Cu
  Cu2      1.0000 0.49778  0.88085  0.74754  Biso   1.000  Cu
  Cu3      1.0000 0.00222  0.38085  0.75246  Biso   1.000  Cu
  Cu4      1.0000 0.50222  0.11915  0.25246  Biso   1.000  Cu
  O1       1.0000 0.08470  0.67060  0.17980  Biso   1.000  O
  O2       1.0000 0.58470  0.82940  0.67980  Biso   1.000  O
  O3       1.0000 0.91530  0.32940  0.82020  Biso   1.000  O
  O4       1.0000 0.41530  0.17060  0.32020  Biso   1.000  O
  O5       1.0000 0.87050  0.56450  0.18110  Biso   1.000  O
  O6       1.0000 0.37050  0.93550  0.68110  Biso   1.000  O
  O7       1.0000 0.12950  0.43550  0.81890  Biso   1.000  O
  O8       1.0000 0.62950  0.06450  0.31890  Biso   1.000  O
  O9       1.0000 0.90850  0.56860  0.31420  Biso   1.000  O
  O10      1.0000 0.40850  0.93140  0.81420  Biso   1.000  O
  O11      1.0000 0.09150  0.43140  0.68580  Biso   1.000  O
  O12      1.0000 0.59150  0.06860  0.18580  Biso   1.000  O
  O13      1.0000 0.12810  0.67240  0.31300  Biso   1.000  O
  O14      1.0000 0.62810  0.82760  0.81300  Biso   1.000  O
  O15      1.0000 0.87190  0.32760  0.68700  Biso   1.000  O
  O16      1.0000 0.37190  0.17240  0.18700  Biso   1.000  O
  N1       1.0000 0.41260  0.91830  0.24400  Biso   1.000  N
  N2       1.0000 0.91260  0.58170  0.74400  Biso   1.000  N
  N3       1.0000 0.58740  0.08170  0.75600  Biso   1.000  N
  N4       1.0000 0.08740  0.41830  0.25600  Biso   1.000  N
  N5       1.0000 0.58640  0.31660  0.25020  Biso   1.000  N
  N6       1.0000 0.08640  0.18340  0.75020  Biso   1.000  N
  N7       1.0000 0.41360  0.68340  0.74980  Biso   1.000  N
  N8       1.0000 0.91360  0.81660  0.24980  Biso   1.000  N
  C1       1.0000 0.28880  0.77590  0.37280  Biso   1.000  C
  C2       1.0000 0.78880  0.72410  0.87280  Biso   1.000  C
  C3       1.0000 0.71120  0.22410  0.62720  Biso   1.000  C
  C4       1.0000 0.21120  0.27590  0.12720  Biso   1.000  C
  C5       1.0000 0.23610  0.72340  0.42970  Biso   1.000  C
  C6       1.0000 0.73610  0.77660  0.92970  Biso   1.000  C
  C7       1.0000 0.76390  0.27660  0.57030  Biso   1.000  C
  C8       1.0000 0.26390  0.22340  0.07030  Biso   1.000  C
  H1       1.0000 0.15390  0.74840  0.42830  Biso   1.000  H
  H2       1.0000 0.65390  0.75160  0.92830  Biso   1.000  H
  H3       1.0000 0.84610  0.25160  0.57170  Biso   1.000  H
  H4       1.0000 0.34610  0.24840  0.07170  Biso   1.000  H
  H5       1.0000 0.28390  0.74590  0.47050  Biso   1.000  H
  H6       1.0000 0.78390  0.75410  0.97050  Biso   1.000  H
  H7       1.0000 0.71610  0.25410  0.52950  Biso   1.000  H
  H8       1.0000 0.21610  0.24590  0.02950  Biso   1.000  H
  H9       1.0000 0.23750  0.64310  0.42600  Biso   1.000  H
  H10      1.0000 0.73750  0.85690  0.92600  Biso   1.000  H
  H11      1.0000 0.76250  0.35690  0.57400  Biso   1.000  H
  H12      1.0000 0.26250  0.14310  0.07400  Biso   1.000  H
  C9       1.0000 0.28230  0.90490  0.38020  Biso   1.000  C
  C10      1.0000 0.78230  0.59510  0.88020  Biso   1.000  C
  C11      1.0000 0.71770  0.09510  0.61980  Biso   1.000  C
  C12      1.0000 0.21770  0.40490  0.11980  Biso   1.000  C
  H13      1.0000 0.31480  0.94040  0.34500  Biso   1.000  H
  H14      1.0000 0.81480  0.55960  0.84500  Biso   1.000  H
  H15      1.0000 0.68520  0.05960  0.65500  Biso   1.000  H
  H16      1.0000 0.18520  0.44040  0.15500  Biso   1.000  H
  H17      1.0000 0.32890  0.92710  0.42140  Biso   1.000  H
  H18      1.0000 0.82890  0.57290  0.92140  Biso   1.000  H
  H19      1.0000 0.67110  0.07290  0.57860  Biso   1.000  H
  H20      1.0000 0.17110  0.42710  0.07860  Biso   1.000  H
  H21      1.0000 0.19920  0.92740  0.37870  Biso   1.000  H
  H22      1.0000 0.69920  0.57260  0.87870  Biso   1.000  H
  H23      1.0000 0.80080  0.07260  0.62130  Biso   1.000  H
  H24      1.0000 0.30080  0.42740  0.12130  Biso   1.000  H
  C13      1.0000 0.42040  0.73580  0.37570  Biso   1.000  C
  C14      1.0000 0.92040  0.76420  0.87570  Biso   1.000  C
  C15      1.0000 0.57960  0.26420  0.62430  Biso   1.000  C
  C16      1.0000 0.07960  0.23580  0.12430  Biso   1.000  C
  H25      1.0000 0.45420  0.76870  0.34020  Biso   1.000  H
  H26      1.0000 0.95420  0.73130  0.84020  Biso   1.000  H
  H27      1.0000 0.54580  0.23130  0.65980  Biso   1.000  H
  H28      1.0000 0.04580  0.26870  0.15980  Biso   1.000  H
  H29      1.0000 0.42170  0.65550  0.37200  Biso   1.000  H
  H30      1.0000 0.92170  0.84450  0.87200  Biso   1.000  H
  H31      1.0000 0.57830  0.34450  0.62800  Biso   1.000  H
  H32      1.0000 0.07830  0.15550  0.12800  Biso   1.000  H
  H33      1.0000 0.46760  0.75820  0.41670  Biso   1.000  H
  H34      1.0000 0.96760  0.74180  0.91670  Biso   1.000  H
  H35      1.0000 0.53240  0.24180  0.58330  Biso   1.000  H
  H36      1.0000 0.03240  0.25820  0.08330  Biso   1.000  H
  C17      1.0000 0.21310  0.73940  0.30740  Biso   1.000  C
  C18      1.0000 0.71310  0.76060  0.80740  Biso   1.000  C
  C19      1.0000 0.78690  0.26060  0.69260  Biso   1.000  C
  C20      1.0000 0.28690  0.23940  0.19260  Biso   1.000  C
  C21      1.0000 0.23680  0.77630  0.24490  Biso   1.000  C
  C22      1.0000 0.73680  0.72370  0.74490  Biso   1.000  C
  C23      1.0000 0.76320  0.22370  0.75510  Biso   1.000  C
  C24      1.0000 0.26320  0.27630  0.25510  Biso   1.000  C
  C25      1.0000 0.17190  0.73850  0.18350  Biso   1.000  C
  C26      1.0000 0.67190  0.76150  0.68350  Biso   1.000  C
  C27      1.0000 0.82810  0.26150  0.81650  Biso   1.000  C
  C28      1.0000 0.32810  0.23850  0.31650  Biso   1.000  C
  C29      1.0000 0.20220  0.77610  0.11720  Biso   1.000  C
  C30      1.0000 0.70220  0.72390  0.61720  Biso   1.000  C
  C31      1.0000 0.79780  0.22390  0.88280  Biso   1.000  C
  C32      1.0000 0.29780  0.27610  0.38280  Biso   1.000  C
  C33      1.0000 0.33050  0.73620  0.10880  Biso   1.000  C
  C34      1.0000 0.83050  0.76380  0.60880  Biso   1.000  C
  C35      1.0000 0.66950  0.26380  0.89120  Biso   1.000  C
  C36      1.0000 0.16950  0.23620  0.39120  Biso   1.000  C
  H37      1.0000 0.38940  0.76800  0.14290  Biso   1.000  H
  H38      1.0000 0.88940  0.73200  0.64290  Biso   1.000  H
  H39      1.0000 0.61060  0.23200  0.85710  Biso   1.000  H
  H40      1.0000 0.11060  0.26800  0.35710  Biso   1.000  H
  H41      1.0000 0.34770  0.76000  0.06690  Biso   1.000  H
  H42      1.0000 0.84770  0.74000  0.56690  Biso   1.000  H
  H43      1.0000 0.65230  0.24000  0.93310  Biso   1.000  H
  H44      1.0000 0.15230  0.26000  0.43310  Biso   1.000  H
  H45      1.0000 0.33420  0.65570  0.11140  Biso   1.000  H
  H46      1.0000 0.83420  0.84430  0.61140  Biso   1.000  H
  H47      1.0000 0.66580  0.34430  0.88860  Biso   1.000  H
  H48      1.0000 0.16580  0.15570  0.38860  Biso   1.000  H
  C37      1.0000 0.19190  0.90480  0.11030  Biso   1.000  C
  C38      1.0000 0.69190  0.59520  0.61030  Biso   1.000  C
  C39      1.0000 0.80810  0.09520  0.88970  Biso   1.000  C
  C40      1.0000 0.30810  0.40480  0.38970  Biso   1.000  C
  H49      1.0000 0.24820  0.93980  0.14440  Biso   1.000  H
  H50      1.0000 0.74820  0.56020  0.64440  Biso   1.000  H
  H51      1.0000 0.75180  0.06020  0.85560  Biso   1.000  H
  H52      1.0000 0.25180  0.43980  0.35560  Biso   1.000  H
  H53      1.0000 0.11070  0.92780  0.11390  Biso   1.000  H
  H54      1.0000 0.61070  0.57220  0.61390  Biso   1.000  H
  H55      1.0000 0.88930  0.07220  0.88610  Biso   1.000  H
  H56      1.0000 0.38930  0.42780  0.38610  Biso   1.000  H
  H57      1.0000 0.21050  0.92710  0.06830  Biso   1.000  H
  H58      1.0000 0.71050  0.57290  0.56830  Biso   1.000  H
  H59      1.0000 0.78950  0.07290  0.93170  Biso   1.000  H
  H60      1.0000 0.28950  0.42710  0.43170  Biso   1.000  H
  C41      1.0000 0.11150  0.72410  0.06180  Biso   1.000  C
  C42      1.0000 0.61150  0.77590  0.56180  Biso   1.000  C
  C43      1.0000 0.88850  0.27590  0.93820  Biso   1.000  C
  C44      1.0000 0.38850  0.22410  0.43820  Biso   1.000  C
  H61      1.0000 0.13050  0.74810  0.02030  Biso   1.000  H
  H62      1.0000 0.63050  0.75190  0.52030  Biso   1.000  H
  H63      1.0000 0.86950  0.25190  0.97970  Biso   1.000  H
  H64      1.0000 0.36950  0.24810  0.47970  Biso   1.000  H
  H65      1.0000 0.03070  0.74790  0.06580  Biso   1.000  H
  H66      1.0000 0.53070  0.75210  0.56580  Biso   1.000  H
  H67      1.0000 0.96930  0.25210  0.93420  Biso   1.000  H
  H68      1.0000 0.46930  0.24790  0.43420  Biso   1.000  H
  H69      1.0000 0.11630  0.64370  0.06470  Biso   1.000  H
  H70      1.0000 0.61630  0.85630  0.56470  Biso   1.000  H
  H71      1.0000 0.88370  0.35630  0.93530  Biso   1.000  H
  H72      1.0000 0.38370  0.14370  0.43530  Biso   1.000  H
  C45      1.0000 0.33380  0.85530  0.24410  Biso   1.000  C
  C46      1.0000 0.83380  0.64470  0.74410  Biso   1.000  C
  C47      1.0000 0.66620  0.14470  0.75590  Biso   1.000  C
  C48      1.0000 0.16620  0.35530  0.25590  Biso   1.000  C
  C49      1.0000 0.79240  0.45720  0.37640  Biso   1.000  C
  C50      1.0000 0.29240  0.04280  0.87640  Biso   1.000  C
  C51      1.0000 0.20760  0.54280  0.62360  Biso   1.000  C
  C52      1.0000 0.70760  0.95720  0.12360  Biso   1.000  C
  C53      1.0000 0.80860  0.32860  0.38220  Biso   1.000  C
  C54      1.0000 0.30860  0.17140  0.88220  Biso   1.000  C
  C55      1.0000 0.19140  0.67140  0.61780  Biso   1.000  C
  C56      1.0000 0.69140  0.82860  0.11780  Biso   1.000  C
  H73      1.0000 0.75380  0.29260  0.34780  Biso   1.000  H
  H74      1.0000 0.25380  0.20740  0.84780  Biso   1.000  H
  H75      1.0000 0.24620  0.70740  0.65220  Biso   1.000  H
  H76      1.0000 0.74620  0.79260  0.15220  Biso   1.000  H
  H77      1.0000 0.79130  0.30420  0.42400  Biso   1.000  H
  H78      1.0000 0.29130  0.19580  0.92400  Biso   1.000  H
  H79      1.0000 0.20870  0.69580  0.57600  Biso   1.000  H
  H80      1.0000 0.70870  0.80420  0.07600  Biso   1.000  H
  H81      1.0000 0.89070  0.30920  0.37830  Biso   1.000  H
  H82      1.0000 0.39070  0.19080  0.87830  Biso   1.000  H
  H83      1.0000 0.10930  0.69080  0.62170  Biso   1.000  H
  H84      1.0000 0.60930  0.80920  0.12170  Biso   1.000  H
  C57      1.0000 0.88020  0.51210  0.43180  Biso   1.000  C
  C58      1.0000 0.38020  0.98790  0.93180  Biso   1.000  C
  C59      1.0000 0.11980  0.48790  0.56820  Biso   1.000  C
  C60      1.0000 0.61980  0.01210  0.06820  Biso   1.000  C
  H85      1.0000 0.87140  0.59220  0.42900  Biso   1.000  H
  H86      1.0000 0.37140  0.90780  0.92900  Biso   1.000  H
  H87      1.0000 0.12860  0.40780  0.57100  Biso   1.000  H
  H88      1.0000 0.62860  0.09220  0.07100  Biso   1.000  H
  H89      1.0000 0.96210  0.49190  0.42780  Biso   1.000  H
  H90      1.0000 0.46210  0.00810  0.92780  Biso   1.000  H
  H91      1.0000 0.03790  0.50810  0.57220  Biso   1.000  H
  H92      1.0000 0.53790  0.99190  0.07220  Biso   1.000  H
  H93      1.0000 0.86230  0.48650  0.47330  Biso   1.000  H
  H94      1.0000 0.36230  0.01350  0.97330  Biso   1.000  H
  H95      1.0000 0.13770  0.51350  0.52670  Biso   1.000  H
  H96      1.0000 0.63770  0.98650  0.02670  Biso   1.000  H
  C61      1.0000 0.66260  0.49400  0.38430  Biso   1.000  C
  C62      1.0000 0.16260  0.00600  0.88430  Biso   1.000  C
  C63      1.0000 0.33740  0.50600  0.61570  Biso   1.000  C
  C64      1.0000 0.83740  0.99400  0.11570  Biso   1.000  C
  H97      1.0000 0.60490  0.46070  0.35020  Biso   1.000  H
  H98      1.0000 0.10490  0.03930  0.85020  Biso   1.000  H
  H99      1.0000 0.39510  0.53930  0.64980  Biso   1.000  H
  H100     1.0000 0.89510  0.96070  0.14980  Biso   1.000  H
  H101     1.0000 0.65650  0.57440  0.38130  Biso   1.000  H
  H102     1.0000 0.15650  0.92560  0.88130  Biso   1.000  H
  H103     1.0000 0.34350  0.42560  0.61870  Biso   1.000  H
  H104     1.0000 0.84350  0.07440  0.11870  Biso   1.000  H
  H105     1.0000 0.64570  0.46990  0.42630  Biso   1.000  H
  H106     1.0000 0.14570  0.03010  0.92630  Biso   1.000  H
  H107     1.0000 0.35430  0.53010  0.57370  Biso   1.000  H
  H108     1.0000 0.85430  0.96990  0.07370  Biso   1.000  H
  C65      1.0000 0.82260  0.49870  0.30970  Biso   1.000  C
  C66      1.0000 0.32260  0.00130  0.80970  Biso   1.000  C
  C67      1.0000 0.17740  0.50130  0.69030  Biso   1.000  C
  C68      1.0000 0.67740  0.99870  0.19030  Biso   1.000  C
  C69      1.0000 0.75910  0.45980  0.24850  Biso   1.000  C
  C70      1.0000 0.25910  0.04020  0.74850  Biso   1.000  C
  C71      1.0000 0.24090  0.54020  0.75150  Biso   1.000  C
  C72      1.0000 0.74090  0.95980  0.25150  Biso   1.000  C
  C73      1.0000 0.78520  0.49730  0.18650  Biso   1.000  C
  C74      1.0000 0.28520  0.00270  0.68650  Biso   1.000  C
  C75      1.0000 0.21480  0.50270  0.81350  Biso   1.000  C
  C76      1.0000 0.71480  0.99730  0.31350  Biso   1.000  C
  C77      1.0000 0.71190  0.45830  0.12070  Biso   1.000  C
  C78      1.0000 0.21190  0.04170  0.62070  Biso   1.000  C
  C79      1.0000 0.28810  0.54170  0.87930  Biso   1.000  C
  C80      1.0000 0.78810  0.95830  0.37930  Biso   1.000  C
  C81      1.0000 0.76480  0.51220  0.06390  Biso   1.000  C
  C82      1.0000 0.26480  0.98780  0.56390  Biso   1.000  C
  C83      1.0000 0.23520  0.48780  0.93610  Biso   1.000  C
  C84      1.0000 0.73520  0.01220  0.43610  Biso   1.000  C
  H109     1.0000 0.76160  0.59250  0.06750  Biso   1.000  H
  H110     1.0000 0.26160  0.90750  0.56750  Biso   1.000  H
  H111     1.0000 0.23840  0.40750  0.93250  Biso   1.000  H
  H112     1.0000 0.73840  0.09250  0.43250  Biso   1.000  H
  H113     1.0000 0.71820  0.48900  0.02290  Biso   1.000  H
  H114     1.0000 0.21820  0.01100  0.52290  Biso   1.000  H
  H115     1.0000 0.28180  0.51100  0.97710  Biso   1.000  H
  H116     1.0000 0.78180  0.98900  0.47710  Biso   1.000  H
  H117     1.0000 0.84770  0.48890  0.06570  Biso   1.000  H
  H118     1.0000 0.34770  0.01110  0.56570  Biso   1.000  H
  H119     1.0000 0.15230  0.51110  0.93430  Biso   1.000  H
  H120     1.0000 0.65230  0.98890  0.43430  Biso   1.000  H
  C85      1.0000 0.57900  0.49830  0.11590  Biso   1.000  C
  C86      1.0000 0.07900  0.00170  0.61590  Biso   1.000  C
  C87      1.0000 0.42100  0.50170  0.88410  Biso   1.000  C
  C88      1.0000 0.92100  0.99830  0.38410  Biso   1.000  C
  H121     1.0000 0.54350  0.46580  0.15090  Biso   1.000  H
  H122     1.0000 0.04350  0.03420  0.65090  Biso   1.000  H
  H123     1.0000 0.45650  0.53420  0.84910  Biso   1.000  H
  H124     1.0000 0.95650  0.96580  0.34910  Biso   1.000  H
  H125     1.0000 0.53350  0.47540  0.07450  Biso   1.000  H
  H126     1.0000 0.03350  0.02460  0.57450  Biso   1.000  H
  H127     1.0000 0.46650  0.52460  0.92550  Biso   1.000  H
  H128     1.0000 0.96650  0.97540  0.42550  Biso   1.000  H
  H129     1.0000 0.57720  0.57870  0.11920  Biso   1.000  H
  H130     1.0000 0.07720  0.92130  0.61920  Biso   1.000  H
  H131     1.0000 0.42280  0.42130  0.88080  Biso   1.000  H
  H132     1.0000 0.92280  0.07870  0.38080  Biso   1.000  H
  C89      1.0000 0.71860  0.33000  0.11280  Biso   1.000  C
  C90      1.0000 0.21860  0.17000  0.61280  Biso   1.000  C
  C91      1.0000 0.28140  0.67000  0.88720  Biso   1.000  C
  C92      1.0000 0.78140  0.83000  0.38720  Biso   1.000  C
  H133     1.0000 0.68590  0.29390  0.14770  Biso   1.000  H
  H134     1.0000 0.18590  0.20610  0.64770  Biso   1.000  H
  H135     1.0000 0.31410  0.70610  0.85230  Biso   1.000  H
  H136     1.0000 0.81410  0.79390  0.35230  Biso   1.000  H
  H137     1.0000 0.80180  0.30780  0.11430  Biso   1.000  H
  H138     1.0000 0.30180  0.19220  0.61430  Biso   1.000  H
  H139     1.0000 0.19820  0.69220  0.88570  Biso   1.000  H
  H140     1.0000 0.69820  0.80780  0.38570  Biso   1.000  H
  H141     1.0000 0.67230  0.30830  0.07140  Biso   1.000  H
  H142     1.0000 0.17230  0.19170  0.57140  Biso   1.000  H
  H143     1.0000 0.32770  0.69170  0.92860  Biso   1.000  H
  H144     1.0000 0.82770  0.80830  0.42860  Biso   1.000  H
  C93      1.0000 0.66280  0.38110  0.24940  Biso   1.000  C
  C94      1.0000 0.16280  0.11890  0.74940  Biso   1.000  C
  C95      1.0000 0.33720  0.61890  0.75060  Biso   1.000  C
  C96      1.0000 0.83720  0.88110  0.25060  Biso   1.000  C
