data_image0
_cell_length_a       11.392
_cell_length_b       15.0023
_cell_length_c       23.349
_cell_angle_alpha    90
_cell_angle_beta     90
_cell_angle_gamma    90

_symmetry_space_group_name_H-M    "P 1"
_symmetry_int_tables_number       1

loop_
  _symmetry_equiv_pos_as_xyz
  'x, y, z'

loop_
  _atom_site_label
  _atom_site_occupancy
  _atom_site_fract_x
  _atom_site_fract_y
  _atom_site_fract_z
  _atom_site_thermal_displace_type
  _atom_site_B_iso_or_equiv
  _atom_site_type_symbol
  Cu1      1.0000 0.51451  0.62599  0.24159  Biso   1.000  Cu
  Cu2      1.0000 0.98549  0.37401  0.74159  Biso   1.000  Cu
  Cu3      1.0000 0.48549  0.12599  0.25841  Biso   1.000  Cu
  Cu4      1.0000 0.01451  0.87401  0.75841  Biso   1.000  Cu
  N1       1.0000 0.66020  0.62260  0.29018  Biso   1.000  N
  N2       1.0000 0.83980  0.37740  0.79018  Biso   1.000  N
  N3       1.0000 0.33980  0.12260  0.20982  Biso   1.000  N
  N4       1.0000 0.16020  0.87740  0.70982  Biso   1.000  N
  C1       1.0000 0.76880  0.62690  0.26790  Biso   1.000  C
  C2       1.0000 0.73120  0.37310  0.76790  Biso   1.000  C
  C3       1.0000 0.23120  0.12690  0.23210  Biso   1.000  C
  C4       1.0000 0.26880  0.87310  0.73210  Biso   1.000  C
  H1       1.0000 0.77620  0.62920  0.22830  Biso   1.000  H
  H2       1.0000 0.72380  0.37080  0.72830  Biso   1.000  H
  H3       1.0000 0.22380  0.12920  0.27170  Biso   1.000  H
  H4       1.0000 0.27620  0.87080  0.77170  Biso   1.000  H
  C5       1.0000 0.86850  0.62810  0.29998  Biso   1.000  C
  C6       1.0000 0.63150  0.37190  0.79998  Biso   1.000  C
  C7       1.0000 0.13150  0.12810  0.20002  Biso   1.000  C
  C8       1.0000 0.36850  0.87190  0.70002  Biso   1.000  C
  H5       1.0000 0.94160  0.62880  0.28230  Biso   1.000  H
  H6       1.0000 0.55840  0.37120  0.78230  Biso   1.000  H
  H7       1.0000 0.05840  0.12880  0.21770  Biso   1.000  H
  H8       1.0000 0.44160  0.87120  0.71770  Biso   1.000  H
  C9       1.0000 0.86030  0.62840  0.35990  Biso   1.000  C
  C10      1.0000 0.63970  0.37160  0.85990  Biso   1.000  C
  C11      1.0000 0.13970  0.12840  0.14010  Biso   1.000  C
  C12      1.0000 0.36030  0.87160  0.64010  Biso   1.000  C
  C13      1.0000 0.74810  0.62040  0.38280  Biso   1.000  C
  C14      1.0000 0.75190  0.37960  0.88280  Biso   1.000  C
  C15      1.0000 0.25190  0.12040  0.11720  Biso   1.000  C
  C16      1.0000 0.24810  0.87960  0.61720  Biso   1.000  C
  H9       1.0000 0.73790  0.61600  0.42220  Biso   1.000  H
  H10      1.0000 0.76210  0.38400  0.92220  Biso   1.000  H
  H11      1.0000 0.26210  0.11600  0.07780  Biso   1.000  H
  H12      1.0000 0.23790  0.88400  0.57780  Biso   1.000  H
  C17      1.0000 0.65290  0.61910  0.34720  Biso   1.000  C
  C18      1.0000 0.84710  0.38090  0.84720  Biso   1.000  C
  C19      1.0000 0.34710  0.11910  0.15280  Biso   1.000  C
  C20      1.0000 0.15290  0.88090  0.65280  Biso   1.000  C
  H13      1.0000 0.57870  0.61560  0.36370  Biso   1.000  H
  H14      1.0000 0.92130  0.38440  0.86370  Biso   1.000  H
  H15      1.0000 0.42130  0.11560  0.13630  Biso   1.000  H
  H16      1.0000 0.07870  0.88440  0.63630  Biso   1.000  H
  C21      1.0000 0.96420  0.63500  0.39590  Biso   1.000  C
  C22      1.0000 0.53580  0.36500  0.89590  Biso   1.000  C
  C23      1.0000 0.03580  0.13500  0.10410  Biso   1.000  C
  C24      1.0000 0.46420  0.86500  0.60410  Biso   1.000  C
  N5       1.0000 0.07700  0.62700  0.37957  Biso   1.000  N
  N6       1.0000 0.42300  0.37300  0.87957  Biso   1.000  N
  N7       1.0000 0.92300  0.12700  0.12043  Biso   1.000  N
  N8       1.0000 0.57700  0.87300  0.62043  Biso   1.000  N
  O1       1.0000 0.11190  0.60340  0.33001  Biso   1.000  O
  O2       1.0000 0.38810  0.39660  0.83001  Biso   1.000  O
  O3       1.0000 0.88810  0.10340  0.16999  Biso   1.000  O
  O4       1.0000 0.61190  0.89660  0.66999  Biso   1.000  O
  N9       1.0000 0.96240  0.65440  0.45312  Biso   1.000  N
  N10      1.0000 0.53760  0.34560  0.95312  Biso   1.000  N
  N11      1.0000 0.03760  0.15440  0.04688  Biso   1.000  N
  N12      1.0000 0.46240  0.84560  0.54688  Biso   1.000  N
  O5       1.0000 0.87210  0.66660  0.48382  Biso   1.000  O
  O6       1.0000 0.62790  0.33340  0.98382  Biso   1.000  O
  O7       1.0000 0.12790  0.16660  0.01618  Biso   1.000  O
  O8       1.0000 0.37210  0.83340  0.51618  Biso   1.000  O
  C25      1.0000 0.16060  0.66180  0.42430  Biso   1.000  C
  C26      1.0000 0.33940  0.33820  0.92430  Biso   1.000  C
  C27      1.0000 0.83940  0.16180  0.07570  Biso   1.000  C
  C28      1.0000 0.66060  0.83820  0.57570  Biso   1.000  C
  C29      1.0000 0.08230  0.65250  0.47880  Biso   1.000  C
  C30      1.0000 0.41770  0.34750  0.97880  Biso   1.000  C
  C31      1.0000 0.91770  0.15250  0.02120  Biso   1.000  C
  C32      1.0000 0.58230  0.84750  0.52120  Biso   1.000  C
  C33      1.0000 0.27440  0.61080  0.42400  Biso   1.000  C
  C34      1.0000 0.22560  0.38920  0.92400  Biso   1.000  C
  C35      1.0000 0.72560  0.11080  0.07600  Biso   1.000  C
  C36      1.0000 0.77440  0.88920  0.57600  Biso   1.000  C
  H17      1.0000 0.26000  0.55020  0.43520  Biso   1.000  H
  H18      1.0000 0.24000  0.44980  0.93520  Biso   1.000  H
  H19      1.0000 0.74000  0.05020  0.06480  Biso   1.000  H
  H20      1.0000 0.76000  0.94980  0.56480  Biso   1.000  H
  H21      1.0000 0.32830  0.63780  0.45050  Biso   1.000  H
  H22      1.0000 0.17170  0.36220  0.95050  Biso   1.000  H
  H23      1.0000 0.67170  0.13780  0.04950  Biso   1.000  H
  H24      1.0000 0.82830  0.86220  0.54950  Biso   1.000  H
  H25      1.0000 0.30750  0.61190  0.38620  Biso   1.000  H
  H26      1.0000 0.19250  0.38810  0.88620  Biso   1.000  H
  H27      1.0000 0.69250  0.11190  0.11380  Biso   1.000  H
  H28      1.0000 0.80750  0.88810  0.61380  Biso   1.000  H
  C37      1.0000 0.18450  0.75800  0.40640  Biso   1.000  C
  C38      1.0000 0.31550  0.24200  0.90640  Biso   1.000  C
  C39      1.0000 0.81550  0.25800  0.09360  Biso   1.000  C
  C40      1.0000 0.68450  0.74200  0.59360  Biso   1.000  C
  H29      1.0000 0.11230  0.79100  0.40670  Biso   1.000  H
  H30      1.0000 0.38770  0.20900  0.90670  Biso   1.000  H
  H31      1.0000 0.88770  0.29100  0.09330  Biso   1.000  H
  H32      1.0000 0.61230  0.70900  0.59330  Biso   1.000  H
  H33      1.0000 0.21750  0.75880  0.36860  Biso   1.000  H
  H34      1.0000 0.28250  0.24120  0.86860  Biso   1.000  H
  H35      1.0000 0.78250  0.25880  0.13140  Biso   1.000  H
  H36      1.0000 0.71750  0.74120  0.63140  Biso   1.000  H
  H37      1.0000 0.23880  0.78460  0.43280  Biso   1.000  H
  H38      1.0000 0.26120  0.21540  0.93280  Biso   1.000  H
  H39      1.0000 0.76120  0.28460  0.06720  Biso   1.000  H
  H40      1.0000 0.73880  0.71540  0.56720  Biso   1.000  H
  C41      1.0000 0.09340  0.72720  0.52170  Biso   1.000  C
  C42      1.0000 0.40660  0.27280  0.02170  Biso   1.000  C
  C43      1.0000 0.90660  0.22720  0.97830  Biso   1.000  C
  C44      1.0000 0.59340  0.77280  0.47830  Biso   1.000  C
  H41      1.0000 0.08450  0.78340  0.50250  Biso   1.000  H
  H42      1.0000 0.41550  0.21660  0.00250  Biso   1.000  H
  H43      1.0000 0.91550  0.28340  0.99750  Biso   1.000  H
  H44      1.0000 0.58450  0.71660  0.49750  Biso   1.000  H
  H45      1.0000 0.16930  0.72460  0.53950  Biso   1.000  H
  H46      1.0000 0.33070  0.27540  0.03950  Biso   1.000  H
  H47      1.0000 0.83070  0.22460  0.96050  Biso   1.000  H
  H48      1.0000 0.66930  0.77540  0.46050  Biso   1.000  H
  H49      1.0000 0.03360  0.72110  0.55040  Biso   1.000  H
  H50      1.0000 0.46640  0.27890  0.05040  Biso   1.000  H
  H51      1.0000 0.96640  0.22110  0.94960  Biso   1.000  H
  H52      1.0000 0.53360  0.77890  0.44960  Biso   1.000  H
  C45      1.0000 0.09590  0.56210  0.50800  Biso   1.000  C
  C46      1.0000 0.40410  0.43790  0.00800  Biso   1.000  C
  C47      1.0000 0.90410  0.06210  0.99200  Biso   1.000  C
  C48      1.0000 0.59590  0.93790  0.49200  Biso   1.000  C
  H53      1.0000 0.08900  0.51560  0.48010  Biso   1.000  H
  H54      1.0000 0.41100  0.48440  0.98010  Biso   1.000  H
  H55      1.0000 0.91100  0.01560  0.01990  Biso   1.000  H
  H56      1.0000 0.58900  0.98440  0.51990  Biso   1.000  H
  H57      1.0000 0.03580  0.55520  0.53650  Biso   1.000  H
  H58      1.0000 0.46420  0.44480  0.03650  Biso   1.000  H
  H59      1.0000 0.96420  0.05520  0.96350  Biso   1.000  H
  H60      1.0000 0.53580  0.94480  0.46350  Biso   1.000  H
  H61      1.0000 0.17160  0.55880  0.52600  Biso   1.000  H
  H62      1.0000 0.32840  0.44120  0.02600  Biso   1.000  H
  H63      1.0000 0.82840  0.05880  0.97400  Biso   1.000  H
  H64      1.0000 0.67160  0.94120  0.47400  Biso   1.000  H
  N13      1.0000 0.36970  0.62930  0.19242  Biso   1.000  N
  N14      1.0000 0.13030  0.37070  0.69242  Biso   1.000  N
  N15      1.0000 0.63030  0.12930  0.30758  Biso   1.000  N
  N16      1.0000 0.86970  0.87070  0.80758  Biso   1.000  N
  C49      1.0000 0.37700  0.62640  0.13554  Biso   1.000  C
  C50      1.0000 0.12300  0.37360  0.63554  Biso   1.000  C
  C51      1.0000 0.62300  0.12640  0.36446  Biso   1.000  C
  C52      1.0000 0.87700  0.87360  0.86446  Biso   1.000  C
  H65      1.0000 0.45130  0.62550  0.11910  Biso   1.000  H
  H66      1.0000 0.04870  0.37450  0.61910  Biso   1.000  H
  H67      1.0000 0.54870  0.12550  0.38090  Biso   1.000  H
  H68      1.0000 0.95130  0.87450  0.88090  Biso   1.000  H
  C53      1.0000 0.28120  0.62460  0.09962  Biso   1.000  C
  C54      1.0000 0.21880  0.37540  0.59962  Biso   1.000  C
  C55      1.0000 0.71880  0.12460  0.40038  Biso   1.000  C
  C56      1.0000 0.78120  0.87540  0.90038  Biso   1.000  C
  H69      1.0000 0.29140  0.62140  0.06020  Biso   1.000  H
  H70      1.0000 0.20860  0.37860  0.56020  Biso   1.000  H
  H71      1.0000 0.70860  0.12140  0.43980  Biso   1.000  H
  H72      1.0000 0.79140  0.87860  0.93980  Biso   1.000  H
  C57      1.0000 0.17000  0.62770  0.12282  Biso   1.000  C
  C58      1.0000 0.33000  0.37230  0.62282  Biso   1.000  C
  C59      1.0000 0.83000  0.12770  0.37718  Biso   1.000  C
  C60      1.0000 0.67000  0.87230  0.87718  Biso   1.000  C
  C61      1.0000 0.16140  0.62910  0.18260  Biso   1.000  C
  C62      1.0000 0.33860  0.37090  0.68260  Biso   1.000  C
  C63      1.0000 0.83860  0.12910  0.31740  Biso   1.000  C
  C64      1.0000 0.66140  0.87090  0.81740  Biso   1.000  C
  H73      1.0000 0.08820  0.62920  0.20030  Biso   1.000  H
  H74      1.0000 0.41180  0.37080  0.70030  Biso   1.000  H
  H75      1.0000 0.91180  0.12920  0.29970  Biso   1.000  H
  H76      1.0000 0.58820  0.87080  0.79970  Biso   1.000  H
  C65      1.0000 0.26240  0.63020  0.21500  Biso   1.000  C
  C66      1.0000 0.23760  0.36980  0.71500  Biso   1.000  C
  C67      1.0000 0.73760  0.13020  0.28500  Biso   1.000  C
  C68      1.0000 0.76240  0.86980  0.78500  Biso   1.000  C
  H77      1.0000 0.25530  0.63180  0.25470  Biso   1.000  H
  H78      1.0000 0.24470  0.36820  0.75470  Biso   1.000  H
  H79      1.0000 0.74470  0.13180  0.24530  Biso   1.000  H
  H80      1.0000 0.75530  0.86820  0.74530  Biso   1.000  H
  C69      1.0000 0.06640  0.62230  0.08669  Biso   1.000  C
  C70      1.0000 0.43360  0.37770  0.58669  Biso   1.000  C
  C71      1.0000 0.93360  0.12230  0.41331  Biso   1.000  C
  C72      1.0000 0.56640  0.87770  0.91331  Biso   1.000  C
  N17      1.0000 0.06640  0.60460  0.02924  Biso   1.000  N
  N18      1.0000 0.43360  0.39540  0.52924  Biso   1.000  N
  N19      1.0000 0.93360  0.10460  0.47076  Biso   1.000  N
  N20      1.0000 0.56640  0.89540  0.97076  Biso   1.000  N
  O9       1.0000 0.15550  0.59190  0.99775  Biso   1.000  O
  O10      1.0000 0.34450  0.40810  0.49775  Biso   1.000  O
  O11      1.0000 0.84450  0.09190  0.50225  Biso   1.000  O
  O12      1.0000 0.65550  0.90810  0.00225  Biso   1.000  O
  N21      1.0000 0.95280  0.63020  0.10342  Biso   1.000  N
  N22      1.0000 0.54720  0.36980  0.60342  Biso   1.000  N
  N23      1.0000 0.04720  0.13020  0.39658  Biso   1.000  N
  N24      1.0000 0.45280  0.86980  0.89658  Biso   1.000  N
  O13      1.0000 0.91830  0.65170  0.15367  Biso   1.000  O
  O14      1.0000 0.58170  0.34830  0.65367  Biso   1.000  O
  O15      1.0000 0.08170  0.15170  0.34633  Biso   1.000  O
  O16      1.0000 0.41830  0.84830  0.84633  Biso   1.000  O
  C73      1.0000 0.94550  0.60940  0.00390  Biso   1.000  C
  C74      1.0000 0.55450  0.39060  0.50390  Biso   1.000  C
  C75      1.0000 0.05450  0.10940  0.49610  Biso   1.000  C
  C76      1.0000 0.44550  0.89060  0.99610  Biso   1.000  C
  C77      1.0000 0.86750  0.60310  0.05770  Biso   1.000  C
  C78      1.0000 0.63250  0.39690  0.55770  Biso   1.000  C
  C79      1.0000 0.13250  0.10310  0.44230  Biso   1.000  C
  C80      1.0000 0.36750  0.89690  0.94230  Biso   1.000  C
  C81      1.0000 0.93990  0.70020  0.97440  Biso   1.000  C
  C82      1.0000 0.56010  0.29980  0.47440  Biso   1.000  C
  C83      1.0000 0.06010  0.20020  0.52560  Biso   1.000  C
  C84      1.0000 0.43990  0.79980  0.02560  Biso   1.000  C
  H81      1.0000 0.95140  0.74650  0.00220  Biso   1.000  H
  H82      1.0000 0.54860  0.25350  0.50220  Biso   1.000  H
  H83      1.0000 0.04860  0.24650  0.49780  Biso   1.000  H
  H84      1.0000 0.45140  0.75350  0.99780  Biso   1.000  H
  H85      1.0000 0.86450  0.70750  0.95660  Biso   1.000  H
  H86      1.0000 0.63550  0.29250  0.45660  Biso   1.000  H
  H87      1.0000 0.13550  0.20750  0.54340  Biso   1.000  H
  H88      1.0000 0.36450  0.79250  0.04340  Biso   1.000  H
  H89      1.0000 0.00020  0.70380  0.94570  Biso   1.000  H
  H90      1.0000 0.49980  0.29620  0.44570  Biso   1.000  H
  H91      1.0000 0.99980  0.20380  0.55430  Biso   1.000  H
  H92      1.0000 0.50020  0.79620  0.05430  Biso   1.000  H
  C85      1.0000 0.92850  0.53600  0.96010  Biso   1.000  C
  C86      1.0000 0.57150  0.46400  0.46010  Biso   1.000  C
  C87      1.0000 0.07150  0.03600  0.53990  Biso   1.000  C
  C88      1.0000 0.42850  0.96400  0.03990  Biso   1.000  C
  H93      1.0000 0.93190  0.47910  0.97890  Biso   1.000  H
  H94      1.0000 0.56810  0.52090  0.47890  Biso   1.000  H
  H95      1.0000 0.06810  0.97910  0.52110  Biso   1.000  H
  H96      1.0000 0.43190  0.02090  0.02110  Biso   1.000  H
  H97      1.0000 0.98940  0.53950  0.93180  Biso   1.000  H
  H98      1.0000 0.51060  0.46050  0.43180  Biso   1.000  H
  H99      1.0000 0.01060  0.03950  0.56820  Biso   1.000  H
  H100     1.0000 0.48940  0.96050  0.06820  Biso   1.000  H
  H101     1.0000 0.85350  0.54300  0.94200  Biso   1.000  H
  H102     1.0000 0.64650  0.45700  0.44200  Biso   1.000  H
  H103     1.0000 0.14650  0.04300  0.55800  Biso   1.000  H
  H104     1.0000 0.35350  0.95700  0.05800  Biso   1.000  H
  C89      1.0000 0.76210  0.66260  0.05970  Biso   1.000  C
  C90      1.0000 0.73790  0.33740  0.55970  Biso   1.000  C
  C91      1.0000 0.23790  0.16260  0.44030  Biso   1.000  C
  C92      1.0000 0.26210  0.83740  0.94030  Biso   1.000  C
  H105     1.0000 0.78500  0.72250  0.05070  Biso   1.000  H
  H106     1.0000 0.71500  0.27750  0.55070  Biso   1.000  H
  H107     1.0000 0.21500  0.22250  0.44930  Biso   1.000  H
  H108     1.0000 0.28500  0.77750  0.94930  Biso   1.000  H
  H109     1.0000 0.72840  0.66090  0.09740  Biso   1.000  H
  H110     1.0000 0.77160  0.33910  0.59740  Biso   1.000  H
  H111     1.0000 0.27160  0.16090  0.40260  Biso   1.000  H
  H112     1.0000 0.22840  0.83910  0.90260  Biso   1.000  H
  H113     1.0000 0.70520  0.64240  0.03230  Biso   1.000  H
  H114     1.0000 0.79480  0.35760  0.53230  Biso   1.000  H
  H115     1.0000 0.29480  0.14240  0.46770  Biso   1.000  H
  H116     1.0000 0.20520  0.85760  0.96770  Biso   1.000  H
  C93      1.0000 0.83020  0.50790  0.07200  Biso   1.000  C
  C94      1.0000 0.66980  0.49210  0.57200  Biso   1.000  C
  C95      1.0000 0.16980  0.00790  0.42800  Biso   1.000  C
  C96      1.0000 0.33020  0.99210  0.92800  Biso   1.000  C
  H117     1.0000 0.89760  0.46950  0.07090  Biso   1.000  H
  H118     1.0000 0.60240  0.53050  0.57090  Biso   1.000  H
  H119     1.0000 0.10240  0.96950  0.42910  Biso   1.000  H
  H120     1.0000 0.39760  0.03050  0.92910  Biso   1.000  H
  H121     1.0000 0.77340  0.48790  0.04450  Biso   1.000  H
  H122     1.0000 0.72660  0.51210  0.54450  Biso   1.000  H
  H123     1.0000 0.22660  0.98790  0.45550  Biso   1.000  H
  H124     1.0000 0.27340  0.01210  0.95550  Biso   1.000  H
  H125     1.0000 0.79630  0.50650  0.10970  Biso   1.000  H
  H126     1.0000 0.70370  0.49350  0.60970  Biso   1.000  H
  H127     1.0000 0.20370  0.00650  0.39030  Biso   1.000  H
  H128     1.0000 0.29630  0.99350  0.89030  Biso   1.000  H
  N25      1.0000 0.43570  0.52130  0.29380  Biso   1.000  N
  N26      1.0000 0.06430  0.47870  0.79380  Biso   1.000  N
  N27      1.0000 0.56430  0.02130  0.20620  Biso   1.000  N
  N28      1.0000 0.93570  0.97870  0.70620  Biso   1.000  N
  C97      1.0000 0.40470  0.45560  0.31030  Biso   1.000  C
  C98      1.0000 0.09530  0.54440  0.81030  Biso   1.000  C
  C99      1.0000 0.59530  0.95560  0.18970  Biso   1.000  C
  C100     1.0000 0.90470  0.04440  0.68970  Biso   1.000  C
  N29      1.0000 0.55210  0.37440  0.15000  Biso   1.000  N
  N30      1.0000 0.94790  0.62560  0.65000  Biso   1.000  N
  N31      1.0000 0.44790  0.87440  0.35000  Biso   1.000  N
  N32      1.0000 0.05210  0.12560  0.85000  Biso   1.000  N
  C101     1.0000 0.57380  0.45130  0.17160  Biso   1.000  C
  C102     1.0000 0.92620  0.54870  0.67160  Biso   1.000  C
  C103     1.0000 0.42620  0.95130  0.32840  Biso   1.000  C
  C104     1.0000 0.07380  0.04870  0.82840  Biso   1.000  C
  N33      1.0000 0.58830  0.52070  0.18520  Biso   1.000  N
  N34      1.0000 0.91170  0.47930  0.68520  Biso   1.000  N
  N35      1.0000 0.41170  0.02070  0.31480  Biso   1.000  N
  N36      1.0000 0.08830  0.97930  0.81480  Biso   1.000  N
  N37      1.0000 0.55760  0.23000  0.20080  Biso   1.000  N
  N38      1.0000 0.94240  0.77000  0.70080  Biso   1.000  N
  N39      1.0000 0.44240  0.73000  0.29920  Biso   1.000  N
  N40      1.0000 0.05760  0.27000  0.79920  Biso   1.000  N
  C105     1.0000 0.55570  0.30020  0.17930  Biso   1.000  C
  C106     1.0000 0.94430  0.69980  0.67930  Biso   1.000  C
  C107     1.0000 0.44430  0.80020  0.32070  Biso   1.000  C
  C108     1.0000 0.05570  0.19980  0.82070  Biso   1.000  C
  N41      1.0000 0.35770  0.38520  0.33170  Biso   1.000  N
  N42      1.0000 0.14230  0.61480  0.83170  Biso   1.000  N
  N43      1.0000 0.64230  0.88520  0.16830  Biso   1.000  N
  N44      1.0000 0.85770  0.11480  0.66830  Biso   1.000  N
  C109     1.0000 0.38900  0.30600  0.31850  Biso   1.000  C
  C110     1.0000 0.11100  0.69400  0.81850  Biso   1.000  C
  C111     1.0000 0.61100  0.80600  0.18150  Biso   1.000  C
  C112     1.0000 0.88900  0.19400  0.68150  Biso   1.000  C
  N45      1.0000 0.40950  0.23140  0.31130  Biso   1.000  N
  N46      1.0000 0.09050  0.76860  0.81130  Biso   1.000  N
  N47      1.0000 0.59050  0.73140  0.18870  Biso   1.000  N
  N48      1.0000 0.90950  0.26860  0.68870  Biso   1.000  N
  N49      1.0000 0.89250  0.37850  0.42140  Biso   1.000  N
  N50      1.0000 0.60750  0.62150  0.92140  Biso   1.000  N
  N51      1.0000 0.10750  0.87850  0.07860  Biso   1.000  N
  N52      1.0000 0.39250  0.12150  0.57860  Biso   1.000  N
  N53      1.0000 0.11490  0.38450  0.08850  Biso   1.000  N
  N54      1.0000 0.38510  0.61550  0.58850  Biso   1.000  N
  N55      1.0000 0.88510  0.88450  0.41150  Biso   1.000  N
  N56      1.0000 0.61490  0.11550  0.91150  Biso   1.000  N
  N57      1.0000 0.90950  0.36080  0.24040  Biso   1.000  N
  N58      1.0000 0.59050  0.63920  0.74040  Biso   1.000  N
  N59      1.0000 0.09050  0.86080  0.25960  Biso   1.000  N
  N60      1.0000 0.40950  0.13920  0.75960  Biso   1.000  N
  C113     1.0000 0.97840  0.37870  0.39780  Biso   1.000  C
  C114     1.0000 0.52160  0.62130  0.89780  Biso   1.000  C
  C115     1.0000 0.02160  0.87870  0.10220  Biso   1.000  C
  C116     1.0000 0.47840  0.12130  0.60220  Biso   1.000  C
  C117     1.0000 0.08800  0.37980  0.36610  Biso   1.000  C
  C118     1.0000 0.41200  0.62020  0.86610  Biso   1.000  C
  C119     1.0000 0.91200  0.87980  0.13390  Biso   1.000  C
  C120     1.0000 0.58800  0.12020  0.63390  Biso   1.000  C
  H129     1.0000 0.08860  0.42970  0.34040  Biso   1.000  H
  H130     1.0000 0.41140  0.57030  0.84040  Biso   1.000  H
  H131     1.0000 0.91140  0.92970  0.15960  Biso   1.000  H
  H132     1.0000 0.58860  0.07030  0.65960  Biso   1.000  H
  H133     1.0000 0.09550  0.32550  0.34460  Biso   1.000  H
  H134     1.0000 0.40450  0.67450  0.84460  Biso   1.000  H
  H135     1.0000 0.90450  0.82550  0.15540  Biso   1.000  H
  H136     1.0000 0.59550  0.17450  0.65540  Biso   1.000  H
  H137     1.0000 0.15250  0.38480  0.39230  Biso   1.000  H
  H138     1.0000 0.34750  0.61520  0.89230  Biso   1.000  H
  H139     1.0000 0.84750  0.88480  0.10770  Biso   1.000  H
  H140     1.0000 0.65250  0.11520  0.60770  Biso   1.000  H
  C121     1.0000 0.81750  0.37030  0.26640  Biso   1.000  C
  C122     1.0000 0.68250  0.62970  0.76640  Biso   1.000  C
  C123     1.0000 0.18250  0.87030  0.23360  Biso   1.000  C
  C124     1.0000 0.31750  0.12970  0.73360  Biso   1.000  C
  C125     1.0000 0.21940  0.37610  0.18400  Biso   1.000  C
  C126     1.0000 0.28060  0.62390  0.68400  Biso   1.000  C
  C127     1.0000 0.78060  0.87610  0.31600  Biso   1.000  C
  C128     1.0000 0.71940  0.12390  0.81600  Biso   1.000  C
  H141     1.0000 0.25010  0.31710  0.18960  Biso   1.000  H
  H142     1.0000 0.24990  0.68290  0.68960  Biso   1.000  H
  H143     1.0000 0.74990  0.81710  0.31040  Biso   1.000  H
  H144     1.0000 0.75010  0.18290  0.81040  Biso   1.000  H
  H145     1.0000 0.16710  0.39070  0.21480  Biso   1.000  H
  H146     1.0000 0.33290  0.60930  0.71480  Biso   1.000  H
  H147     1.0000 0.83290  0.89070  0.28520  Biso   1.000  H
  H148     1.0000 0.66710  0.10930  0.78520  Biso   1.000  H
  H149     1.0000 0.28290  0.41810  0.18310  Biso   1.000  H
  H150     1.0000 0.21710  0.58190  0.68310  Biso   1.000  H
  H151     1.0000 0.71710  0.91810  0.31690  Biso   1.000  H
  H152     1.0000 0.78290  0.08190  0.81690  Biso   1.000  H
  C129     1.0000 0.15690  0.37950  0.13080  Biso   1.000  C
  C130     1.0000 0.34310  0.62050  0.63080  Biso   1.000  C
  C131     1.0000 0.84310  0.87950  0.36920  Biso   1.000  C
  C132     1.0000 0.65690  0.12050  0.86920  Biso   1.000  C
  C133     1.0000 0.72010  0.37880  0.30200  Biso   1.000  C
  C134     1.0000 0.77990  0.62120  0.80200  Biso   1.000  C
  C135     1.0000 0.27990  0.87880  0.19800  Biso   1.000  C
  C136     1.0000 0.22010  0.12120  0.69800  Biso   1.000  C
  H153     1.0000 0.66350  0.33360  0.29260  Biso   1.000  H
  H154     1.0000 0.83650  0.66640  0.79260  Biso   1.000  H
  H155     1.0000 0.33650  0.83360  0.20740  Biso   1.000  H
  H156     1.0000 0.16350  0.16640  0.70740  Biso   1.000  H
  H157     1.0000 0.68550  0.43660  0.29680  Biso   1.000  H
  H158     1.0000 0.81450  0.56340  0.79680  Biso   1.000  H
  H159     1.0000 0.31450  0.93660  0.20320  Biso   1.000  H
  H160     1.0000 0.18550  0.06340  0.70320  Biso   1.000  H
  H161     1.0000 0.74390  0.37190  0.34120  Biso   1.000  H
  H162     1.0000 0.75610  0.62810  0.84120  Biso   1.000  H
  H163     1.0000 0.25610  0.87190  0.15880  Biso   1.000  H
  H164     1.0000 0.24390  0.12810  0.65880  Biso   1.000  H
