data_image0
_cell_length_a       13.378
_cell_length_b       22.459
_cell_length_c       11.977
_cell_angle_alpha    90
_cell_angle_beta     90
_cell_angle_gamma    90

_symmetry_space_group_name_H-M    "P 1"
_symmetry_int_tables_number       1

loop_
  _symmetry_equiv_pos_as_xyz
  'x, y, z'

loop_
  _atom_site_label
  _atom_site_occupancy
  _atom_site_fract_x
  _atom_site_fract_y
  _atom_site_fract_z
  _atom_site_thermal_displace_type
  _atom_site_B_iso_or_equiv
  _atom_site_type_symbol
  Cu1      1.0000 0.00000  0.00000  0.00000  Biso   1.000  Cu
  Cu2      1.0000 0.00000  0.50000  0.50000  Biso   1.000  Cu
  Cu3      1.0000 0.50000  0.50000  0.00000  Biso   1.000  Cu
  Cu4      1.0000 0.50000  0.00000  0.50000  Biso   1.000  Cu
  N1       1.0000 0.00000  0.08990  0.00480  Biso   1.000  N
  N2       1.0000 0.00000  0.41010  0.50480  Biso   1.000  N
  N3       1.0000 0.00000  0.91010  0.99520  Biso   1.000  N
  N4       1.0000 0.00000  0.58990  0.49520  Biso   1.000  N
  N5       1.0000 0.50000  0.58990  0.00480  Biso   1.000  N
  N6       1.0000 0.50000  0.91010  0.50480  Biso   1.000  N
  N7       1.0000 0.50000  0.41010  0.99520  Biso   1.000  N
  N8       1.0000 0.50000  0.08990  0.49520  Biso   1.000  N
  C1       1.0000 0.00000  0.21410  0.99330  Biso   1.000  C
  C2       1.0000 0.00000  0.28590  0.49330  Biso   1.000  C
  C3       1.0000 0.00000  0.78590  0.00670  Biso   1.000  C
  C4       1.0000 0.00000  0.71410  0.50670  Biso   1.000  C
  C5       1.0000 0.50000  0.71410  0.99330  Biso   1.000  C
  C6       1.0000 0.50000  0.78590  0.49330  Biso   1.000  C
  C7       1.0000 0.50000  0.28590  0.00670  Biso   1.000  C
  C8       1.0000 0.50000  0.21410  0.50670  Biso   1.000  C
  C9       1.0000 0.08860  0.18210  0.00170  Biso   1.000  C
  C10      1.0000 0.91140  0.31790  0.50170  Biso   1.000  C
  C11      1.0000 0.08860  0.81790  0.99830  Biso   1.000  C
  C12      1.0000 0.91140  0.68210  0.49830  Biso   1.000  C
  C13      1.0000 0.58860  0.68210  0.00170  Biso   1.000  C
  C14      1.0000 0.41140  0.81790  0.50170  Biso   1.000  C
  C15      1.0000 0.58860  0.31790  0.99830  Biso   1.000  C
  C16      1.0000 0.41140  0.18210  0.49830  Biso   1.000  C
  C17      1.0000 0.91140  0.81790  0.99830  Biso   1.000  C
  C18      1.0000 0.08860  0.68210  0.49830  Biso   1.000  C
  C19      1.0000 0.91140  0.18210  0.00170  Biso   1.000  C
  C20      1.0000 0.08860  0.31790  0.50170  Biso   1.000  C
  C21      1.0000 0.41140  0.31790  0.99830  Biso   1.000  C
  C22      1.0000 0.58860  0.18210  0.49830  Biso   1.000  C
  C23      1.0000 0.41140  0.68210  0.00170  Biso   1.000  C
  C24      1.0000 0.58860  0.81790  0.50170  Biso   1.000  C
  C25      1.0000 0.08530  0.12080  0.00770  Biso   1.000  C
  C26      1.0000 0.91470  0.37920  0.50770  Biso   1.000  C
  C27      1.0000 0.08530  0.87920  0.99230  Biso   1.000  C
  C28      1.0000 0.91470  0.62080  0.49230  Biso   1.000  C
  C29      1.0000 0.58530  0.62080  0.00770  Biso   1.000  C
  C30      1.0000 0.41470  0.87920  0.50770  Biso   1.000  C
  C31      1.0000 0.58530  0.37920  0.99230  Biso   1.000  C
  C32      1.0000 0.41470  0.12080  0.49230  Biso   1.000  C
  C33      1.0000 0.91470  0.87920  0.99230  Biso   1.000  C
  C34      1.0000 0.08530  0.62080  0.49230  Biso   1.000  C
  C35      1.0000 0.91470  0.12080  0.00770  Biso   1.000  C
  C36      1.0000 0.08530  0.37920  0.50770  Biso   1.000  C
  C37      1.0000 0.41470  0.37920  0.99230  Biso   1.000  C
  C38      1.0000 0.58530  0.12080  0.49230  Biso   1.000  C
  C39      1.0000 0.41470  0.62080  0.00770  Biso   1.000  C
  C40      1.0000 0.58530  0.87920  0.50770  Biso   1.000  C
  C41      1.0000 0.00000  0.27880  0.97710  Biso   1.000  C
  C42      1.0000 0.00000  0.22120  0.47710  Biso   1.000  C
  C43      1.0000 0.00000  0.72120  0.02290  Biso   1.000  C
  C44      1.0000 0.00000  0.77880  0.52290  Biso   1.000  C
  C45      1.0000 0.50000  0.77880  0.97710  Biso   1.000  C
  C46      1.0000 0.50000  0.72120  0.47710  Biso   1.000  C
  C47      1.0000 0.50000  0.22120  0.02290  Biso   1.000  C
  C48      1.0000 0.50000  0.27880  0.52290  Biso   1.000  C
  O1       1.0000 0.17170  0.29790  0.97010  Biso   1.000  O
  O2       1.0000 0.82830  0.20210  0.47010  Biso   1.000  O
  O3       1.0000 0.17170  0.70210  0.02990  Biso   1.000  O
  O4       1.0000 0.82830  0.79790  0.52990  Biso   1.000  O
  O5       1.0000 0.67170  0.79790  0.97010  Biso   1.000  O
  O6       1.0000 0.32830  0.70210  0.47010  Biso   1.000  O
  O7       1.0000 0.67170  0.20210  0.02990  Biso   1.000  O
  O8       1.0000 0.32830  0.29790  0.52990  Biso   1.000  O
  O9       1.0000 0.82830  0.70210  0.02990  Biso   1.000  O
  O10      1.0000 0.17170  0.79790  0.52990  Biso   1.000  O
  O11      1.0000 0.82830  0.29790  0.97010  Biso   1.000  O
  O12      1.0000 0.17170  0.20210  0.47010  Biso   1.000  O
  O13      1.0000 0.32830  0.20210  0.02990  Biso   1.000  O
  O14      1.0000 0.67170  0.29790  0.52990  Biso   1.000  O
  O15      1.0000 0.32830  0.79790  0.97010  Biso   1.000  O
  O16      1.0000 0.67170  0.70210  0.47010  Biso   1.000  O
  N9       1.0000 0.08040  0.31340  0.96400  Biso   1.000  N
  N10      1.0000 0.91960  0.18660  0.46400  Biso   1.000  N
  N11      1.0000 0.08040  0.68660  0.03600  Biso   1.000  N
  N12      1.0000 0.91960  0.81340  0.53600  Biso   1.000  N
  N13      1.0000 0.58040  0.81340  0.96400  Biso   1.000  N
  N14      1.0000 0.41960  0.68660  0.46400  Biso   1.000  N
  N15      1.0000 0.58040  0.18660  0.03600  Biso   1.000  N
  N16      1.0000 0.41960  0.31340  0.53600  Biso   1.000  N
  N17      1.0000 0.91960  0.68660  0.03600  Biso   1.000  N
  N18      1.0000 0.08040  0.81340  0.53600  Biso   1.000  N
  N19      1.0000 0.91960  0.31340  0.96400  Biso   1.000  N
  N20      1.0000 0.08040  0.18660  0.46400  Biso   1.000  N
  N21      1.0000 0.41960  0.18660  0.03600  Biso   1.000  N
  N22      1.0000 0.58040  0.31340  0.53600  Biso   1.000  N
  N23      1.0000 0.41960  0.81340  0.96400  Biso   1.000  N
  N24      1.0000 0.58040  0.68660  0.46400  Biso   1.000  N
  N25      1.0000 0.87730  0.99630  0.13050  Biso   1.000  N
  N26      1.0000 0.12270  0.50370  0.63050  Biso   1.000  N
  N27      1.0000 0.87730  0.00370  0.86950  Biso   1.000  N
  N28      1.0000 0.12270  0.49630  0.36950  Biso   1.000  N
  N29      1.0000 0.37730  0.49630  0.13050  Biso   1.000  N
  N30      1.0000 0.62270  0.00370  0.63050  Biso   1.000  N
  N31      1.0000 0.37730  0.50370  0.86950  Biso   1.000  N
  N32      1.0000 0.62270  0.99630  0.36950  Biso   1.000  N
  N33      1.0000 0.12270  0.00370  0.86950  Biso   1.000  N
  N34      1.0000 0.87730  0.49630  0.36950  Biso   1.000  N
  N35      1.0000 0.12270  0.99630  0.13050  Biso   1.000  N
  N36      1.0000 0.87730  0.50370  0.63050  Biso   1.000  N
  N37      1.0000 0.62270  0.50370  0.86950  Biso   1.000  N
  N38      1.0000 0.37730  0.99630  0.36950  Biso   1.000  N
  N39      1.0000 0.62270  0.49630  0.13050  Biso   1.000  N
  N40      1.0000 0.37730  0.00370  0.63050  Biso   1.000  N
  N41      1.0000 0.75000  0.95260  0.25000  Biso   1.000  N
  N42      1.0000 0.25000  0.54740  0.75000  Biso   1.000  N
  N43      1.0000 0.75000  0.04740  0.75000  Biso   1.000  N
  N44      1.0000 0.25000  0.45260  0.25000  Biso   1.000  N
  N45      1.0000 0.25000  0.04740  0.75000  Biso   1.000  N
  N46      1.0000 0.75000  0.45260  0.25000  Biso   1.000  N
  N47      1.0000 0.25000  0.95260  0.25000  Biso   1.000  N
  N48      1.0000 0.75000  0.54740  0.75000  Biso   1.000  N
  C49      1.0000 0.05450  0.37580  0.93720  Biso   1.000  C
  C50      1.0000 0.94550  0.12420  0.43720  Biso   1.000  C
  C51      1.0000 0.05450  0.62420  0.06280  Biso   1.000  C
  C52      1.0000 0.94550  0.87580  0.56280  Biso   1.000  C
  C53      1.0000 0.55450  0.87580  0.93720  Biso   1.000  C
  C54      1.0000 0.44550  0.62420  0.43720  Biso   1.000  C
  C55      1.0000 0.55450  0.12420  0.06280  Biso   1.000  C
  C56      1.0000 0.44550  0.37580  0.56280  Biso   1.000  C
  C57      1.0000 0.94550  0.62420  0.06280  Biso   1.000  C
  C58      1.0000 0.05450  0.87580  0.56280  Biso   1.000  C
  C59      1.0000 0.94550  0.37580  0.93720  Biso   1.000  C
  C60      1.0000 0.05450  0.12420  0.43720  Biso   1.000  C
  C61      1.0000 0.44550  0.12420  0.06280  Biso   1.000  C
  C62      1.0000 0.55450  0.37580  0.56280  Biso   1.000  C
  C63      1.0000 0.44550  0.87580  0.93720  Biso   1.000  C
  C64      1.0000 0.55450  0.62420  0.43720  Biso   1.000  C
  C65      1.0000 0.81640  0.97900  0.18880  Biso   1.000  C
  C66      1.0000 0.18360  0.52100  0.68880  Biso   1.000  C
  C67      1.0000 0.81640  0.02100  0.81120  Biso   1.000  C
  C68      1.0000 0.18360  0.47900  0.31120  Biso   1.000  C
  C69      1.0000 0.31640  0.47900  0.18880  Biso   1.000  C
  C70      1.0000 0.68360  0.02100  0.68880  Biso   1.000  C
  C71      1.0000 0.31640  0.52100  0.81120  Biso   1.000  C
  C72      1.0000 0.68360  0.97900  0.31120  Biso   1.000  C
  C73      1.0000 0.18360  0.02100  0.81120  Biso   1.000  C
  C74      1.0000 0.81640  0.47900  0.31120  Biso   1.000  C
  C75      1.0000 0.18360  0.97900  0.18880  Biso   1.000  C
  C76      1.0000 0.81640  0.52100  0.68880  Biso   1.000  C
  C77      1.0000 0.68360  0.52100  0.81120  Biso   1.000  C
  C78      1.0000 0.31640  0.97900  0.31120  Biso   1.000  C
  C79      1.0000 0.68360  0.47900  0.18880  Biso   1.000  C
  C80      1.0000 0.31640  0.02100  0.68880  Biso   1.000  C
  C81      1.0000 0.13720  0.41670  0.95500  Biso   1.000  C
  C82      1.0000 0.86280  0.08330  0.45500  Biso   1.000  C
  C83      1.0000 0.13720  0.58330  0.04500  Biso   1.000  C
  C84      1.0000 0.86280  0.91670  0.54500  Biso   1.000  C
  C85      1.0000 0.63720  0.91670  0.95500  Biso   1.000  C
  C86      1.0000 0.36280  0.58330  0.45500  Biso   1.000  C
  C87      1.0000 0.63720  0.08330  0.04500  Biso   1.000  C
  C88      1.0000 0.36280  0.41670  0.54500  Biso   1.000  C
  C89      1.0000 0.86280  0.58330  0.04500  Biso   1.000  C
  C90      1.0000 0.13720  0.91670  0.54500  Biso   1.000  C
  C91      1.0000 0.86280  0.41670  0.95500  Biso   1.000  C
  C92      1.0000 0.13720  0.08330  0.45500  Biso   1.000  C
  C93      1.0000 0.36280  0.08330  0.04500  Biso   1.000  C
  C94      1.0000 0.63720  0.41670  0.54500  Biso   1.000  C
  C95      1.0000 0.36280  0.91670  0.95500  Biso   1.000  C
  C96      1.0000 0.63720  0.58330  0.45500  Biso   1.000  C
  C97      1.0000 0.05980  0.36870  0.78640  Biso   1.000  C
  C98      1.0000 0.94020  0.13130  0.28640  Biso   1.000  C
  C99      1.0000 0.05980  0.63130  0.21360  Biso   1.000  C
  C100     1.0000 0.94020  0.86870  0.71360  Biso   1.000  C
  C101     1.0000 0.55980  0.86870  0.78640  Biso   1.000  C
  C102     1.0000 0.44020  0.63130  0.28640  Biso   1.000  C
  C103     1.0000 0.55980  0.13130  0.21360  Biso   1.000  C
  C104     1.0000 0.44020  0.36870  0.71360  Biso   1.000  C
  C105     1.0000 0.94020  0.63130  0.21360  Biso   1.000  C
  C106     1.0000 0.05980  0.86870  0.71360  Biso   1.000  C
  C107     1.0000 0.94020  0.36870  0.78640  Biso   1.000  C
  C108     1.0000 0.05980  0.13130  0.28640  Biso   1.000  C
  C109     1.0000 0.44020  0.13130  0.21360  Biso   1.000  C
  C110     1.0000 0.55980  0.36870  0.71360  Biso   1.000  C
  C111     1.0000 0.44020  0.86870  0.78640  Biso   1.000  C
  C112     1.0000 0.55980  0.63130  0.28640  Biso   1.000  C
  C113     1.0000 0.12210  0.41380  0.89100  Biso   1.000  C
  C114     1.0000 0.87790  0.08620  0.39100  Biso   1.000  C
  C115     1.0000 0.12210  0.58620  0.10900  Biso   1.000  C
  C116     1.0000 0.87790  0.91380  0.60900  Biso   1.000  C
  C117     1.0000 0.62210  0.91380  0.89100  Biso   1.000  C
  C118     1.0000 0.37790  0.58620  0.39100  Biso   1.000  C
  C119     1.0000 0.62210  0.08620  0.10900  Biso   1.000  C
  C120     1.0000 0.37790  0.41380  0.60900  Biso   1.000  C
  C121     1.0000 0.87790  0.58620  0.10900  Biso   1.000  C
  C122     1.0000 0.12210  0.91380  0.60900  Biso   1.000  C
  C123     1.0000 0.87790  0.41380  0.89100  Biso   1.000  C
  C124     1.0000 0.12210  0.08620  0.39100  Biso   1.000  C
  C125     1.0000 0.37790  0.08620  0.10900  Biso   1.000  C
  C126     1.0000 0.62210  0.41380  0.60900  Biso   1.000  C
  C127     1.0000 0.37790  0.91380  0.89100  Biso   1.000  C
  C128     1.0000 0.62210  0.58620  0.39100  Biso   1.000  C
  C129     1.0000 0.05600  0.40360  0.08000  Biso   1.000  C
  C130     1.0000 0.94400  0.09640  0.58000  Biso   1.000  C
  C131     1.0000 0.05600  0.59640  0.92000  Biso   1.000  C
  C132     1.0000 0.94400  0.90360  0.42000  Biso   1.000  C
  C133     1.0000 0.55600  0.90360  0.08000  Biso   1.000  C
  C134     1.0000 0.44400  0.59640  0.58000  Biso   1.000  C
  C135     1.0000 0.55600  0.09640  0.92000  Biso   1.000  C
  C136     1.0000 0.44400  0.40360  0.42000  Biso   1.000  C
  C137     1.0000 0.94400  0.59640  0.92000  Biso   1.000  C
  C138     1.0000 0.05600  0.90360  0.42000  Biso   1.000  C
  C139     1.0000 0.94400  0.40360  0.08000  Biso   1.000  C
  C140     1.0000 0.05600  0.09640  0.58000  Biso   1.000  C
  C141     1.0000 0.44400  0.09640  0.92000  Biso   1.000  C
  C142     1.0000 0.55600  0.40360  0.42000  Biso   1.000  C
  C143     1.0000 0.44400  0.90360  0.08000  Biso   1.000  C
  C144     1.0000 0.55600  0.59640  0.58000  Biso   1.000  C
  N49      1.0000 0.25000  0.28730  0.25000  Biso   1.000  N
  N50      1.0000 0.75000  0.21270  0.75000  Biso   1.000  N
  N51      1.0000 0.25000  0.71270  0.75000  Biso   1.000  N
  N52      1.0000 0.75000  0.78730  0.25000  Biso   1.000  N
  N53      1.0000 0.75000  0.71270  0.75000  Biso   1.000  N
  N54      1.0000 0.25000  0.78730  0.25000  Biso   1.000  N
  N55      1.0000 0.75000  0.28730  0.25000  Biso   1.000  N
  N56      1.0000 0.25000  0.21270  0.75000  Biso   1.000  N
  C145     1.0000 0.05200  0.27950  0.22600  Biso   1.000  C
  C146     1.0000 0.94800  0.22050  0.72600  Biso   1.000  C
  C147     1.0000 0.05200  0.72050  0.77400  Biso   1.000  C
  C148     1.0000 0.94800  0.77950  0.27400  Biso   1.000  C
  C149     1.0000 0.55200  0.77950  0.22600  Biso   1.000  C
  C150     1.0000 0.44800  0.72050  0.72600  Biso   1.000  C
  C151     1.0000 0.55200  0.22050  0.77400  Biso   1.000  C
  C152     1.0000 0.44800  0.27950  0.27400  Biso   1.000  C
  C153     1.0000 0.94800  0.72050  0.77400  Biso   1.000  C
  C154     1.0000 0.05200  0.77950  0.27400  Biso   1.000  C
  C155     1.0000 0.94800  0.27950  0.22600  Biso   1.000  C
  C156     1.0000 0.05200  0.22050  0.72600  Biso   1.000  C
  C157     1.0000 0.44800  0.22050  0.77400  Biso   1.000  C
  C158     1.0000 0.55200  0.27950  0.27400  Biso   1.000  C
  C159     1.0000 0.44800  0.77950  0.22600  Biso   1.000  C
  C160     1.0000 0.55200  0.72050  0.72600  Biso   1.000  C
  C161     1.0000 0.13200  0.28280  0.24000  Biso   1.000  C
  C162     1.0000 0.86800  0.21720  0.74000  Biso   1.000  C
  C163     1.0000 0.13200  0.71720  0.76000  Biso   1.000  C
  C164     1.0000 0.86800  0.78280  0.26000  Biso   1.000  C
  C165     1.0000 0.63200  0.78280  0.24000  Biso   1.000  C
  C166     1.0000 0.36800  0.71720  0.74000  Biso   1.000  C
  C167     1.0000 0.63200  0.21720  0.76000  Biso   1.000  C
  C168     1.0000 0.36800  0.28280  0.26000  Biso   1.000  C
  C169     1.0000 0.86800  0.71720  0.76000  Biso   1.000  C
  C170     1.0000 0.13200  0.78280  0.26000  Biso   1.000  C
  C171     1.0000 0.86800  0.28280  0.24000  Biso   1.000  C
  C172     1.0000 0.13200  0.21720  0.74000  Biso   1.000  C
  C173     1.0000 0.36800  0.21720  0.76000  Biso   1.000  C
  C174     1.0000 0.63200  0.28280  0.26000  Biso   1.000  C
  C175     1.0000 0.36800  0.78280  0.24000  Biso   1.000  C
  C176     1.0000 0.63200  0.71720  0.74000  Biso   1.000  C
  H1       1.0000 0.14500  0.09700  0.01200  Biso   1.000  H
  H2       1.0000 0.85500  0.40300  0.51200  Biso   1.000  H
  H3       1.0000 0.14500  0.90300  0.98800  Biso   1.000  H
  H4       1.0000 0.85500  0.59700  0.48800  Biso   1.000  H
  H5       1.0000 0.64500  0.59700  0.01200  Biso   1.000  H
  H6       1.0000 0.35500  0.90300  0.51200  Biso   1.000  H
  H7       1.0000 0.64500  0.40300  0.98800  Biso   1.000  H
  H8       1.0000 0.35500  0.09700  0.48800  Biso   1.000  H
  H9       1.0000 0.85500  0.90300  0.98800  Biso   1.000  H
  H10      1.0000 0.14500  0.59700  0.48800  Biso   1.000  H
  H11      1.0000 0.85500  0.09700  0.01200  Biso   1.000  H
  H12      1.0000 0.14500  0.40300  0.51200  Biso   1.000  H
  H13      1.0000 0.35500  0.40300  0.98800  Biso   1.000  H
  H14      1.0000 0.64500  0.09700  0.48800  Biso   1.000  H
  H15      1.0000 0.35500  0.59700  0.01200  Biso   1.000  H
  H16      1.0000 0.64500  0.90300  0.51200  Biso   1.000  H
  H17      1.0000 0.15100  0.19800  0.98500  Biso   1.000  H
  H18      1.0000 0.84900  0.30200  0.48500  Biso   1.000  H
  H19      1.0000 0.15100  0.80200  0.01500  Biso   1.000  H
  H20      1.0000 0.84900  0.69800  0.51500  Biso   1.000  H
  H21      1.0000 0.65100  0.69800  0.98500  Biso   1.000  H
  H22      1.0000 0.34900  0.80200  0.48500  Biso   1.000  H
  H23      1.0000 0.65100  0.30200  0.01500  Biso   1.000  H
  H24      1.0000 0.34900  0.19800  0.51500  Biso   1.000  H
  H25      1.0000 0.84900  0.80200  0.01500  Biso   1.000  H
  H26      1.0000 0.15100  0.69800  0.51500  Biso   1.000  H
  H27      1.0000 0.84900  0.19800  0.98500  Biso   1.000  H
  H28      1.0000 0.15100  0.30200  0.48500  Biso   1.000  H
  H29      1.0000 0.34900  0.30200  0.01500  Biso   1.000  H
  H30      1.0000 0.65100  0.19800  0.51500  Biso   1.000  H
  H31      1.0000 0.34900  0.69800  0.98500  Biso   1.000  H
  H32      1.0000 0.65100  0.80200  0.48500  Biso   1.000  H
