data_image0
_cell_length_a       6.9085
_cell_length_b       11.9893
_cell_length_c       15.6103
_cell_angle_alpha    90
_cell_angle_beta     90
_cell_angle_gamma    90

_symmetry_space_group_name_H-M    "P 1"
_symmetry_int_tables_number       1

loop_
  _symmetry_equiv_pos_as_xyz
  'x, y, z'

loop_
  _atom_site_label
  _atom_site_occupancy
  _atom_site_fract_x
  _atom_site_fract_y
  _atom_site_fract_z
  _atom_site_thermal_displace_type
  _atom_site_B_iso_or_equiv
  _atom_site_type_symbol
  Cu1      1.0000 0.88583  0.08716  0.00914  Biso   1.000  Cu
  Cu2      1.0000 0.61417  0.91284  0.50914  Biso   1.000  Cu
  Cu3      1.0000 0.11417  0.58716  0.49086  Biso   1.000  Cu
  Cu4      1.0000 0.38583  0.41284  0.99086  Biso   1.000  Cu
  O1       1.0000 0.70380  0.96356  0.01105  Biso   1.000  O
  O2       1.0000 0.79620  0.03644  0.51105  Biso   1.000  O
  O3       1.0000 0.29620  0.46356  0.48895  Biso   1.000  O
  O4       1.0000 0.20380  0.53644  0.98895  Biso   1.000  O
  O5       1.0000 0.65120  0.79370  0.06192  Biso   1.000  O
  O6       1.0000 0.84880  0.20630  0.56192  Biso   1.000  O
  O7       1.0000 0.34880  0.29370  0.43808  Biso   1.000  O
  O8       1.0000 0.15120  0.70630  0.93808  Biso   1.000  O
  O9       1.0000 0.09280  0.99050  0.90464  Biso   1.000  O
  O10      1.0000 0.40720  0.00950  0.40464  Biso   1.000  O
  O11      1.0000 0.90720  0.49050  0.59536  Biso   1.000  O
  O12      1.0000 0.59280  0.50950  0.09536  Biso   1.000  O
  O13      1.0000 0.40400  0.95340  0.90013  Biso   1.000  O
  O14      1.0000 0.09600  0.04660  0.40013  Biso   1.000  O
  O15      1.0000 0.59600  0.45340  0.59987  Biso   1.000  O
  O16      1.0000 0.90400  0.54660  0.09987  Biso   1.000  O
  H1       1.0000 0.47800  0.95000  0.92200  Biso   1.000  H
  H2       1.0000 0.02200  0.05000  0.42200  Biso   1.000  H
  H3       1.0000 0.52200  0.45000  0.57800  Biso   1.000  H
  H4       1.0000 0.97800  0.55000  0.07800  Biso   1.000  H
  O17      1.0000 0.08040  0.20520  0.01178  Biso   1.000  O
  O18      1.0000 0.41960  0.79480  0.51178  Biso   1.000  O
  O19      1.0000 0.91960  0.70520  0.48822  Biso   1.000  O
  O20      1.0000 0.58040  0.29480  0.98822  Biso   1.000  O
  O21      1.0000 0.21920  0.34611  0.08085  Biso   1.000  O
  O22      1.0000 0.28080  0.65389  0.58085  Biso   1.000  O
  O23      1.0000 0.78080  0.84611  0.41915  Biso   1.000  O
  O24      1.0000 0.71920  0.15389  0.91915  Biso   1.000  O
  O25      1.0000 0.39900  0.21910  0.27817  Biso   1.000  O
  O26      1.0000 0.10100  0.78090  0.77817  Biso   1.000  O
  O27      1.0000 0.60100  0.71910  0.22183  Biso   1.000  O
  O28      1.0000 0.89900  0.28090  0.72183  Biso   1.000  O
  H5       1.0000 0.37600  0.23600  0.33100  Biso   1.000  H
  H6       1.0000 0.12400  0.76400  0.83100  Biso   1.000  H
  H7       1.0000 0.62400  0.73600  0.16900  Biso   1.000  H
  H8       1.0000 0.87600  0.26400  0.66900  Biso   1.000  H
  O29      1.0000 0.70720  0.25850  0.30870  Biso   1.000  O
  O30      1.0000 0.79280  0.74150  0.80870  Biso   1.000  O
  O31      1.0000 0.29280  0.75850  0.19130  Biso   1.000  O
  O32      1.0000 0.20720  0.24150  0.69130  Biso   1.000  O
  N1       1.0000 0.06620  0.98000  0.08025  Biso   1.000  N
  N2       1.0000 0.43380  0.02000  0.58025  Biso   1.000  N
  N3       1.0000 0.93380  0.48000  0.41975  Biso   1.000  N
  N4       1.0000 0.56620  0.52000  0.91975  Biso   1.000  N
  N5       1.0000 0.82910  0.16271  0.14924  Biso   1.000  N
  N6       1.0000 0.67090  0.83729  0.64924  Biso   1.000  N
  N7       1.0000 0.17090  0.66271  0.35076  Biso   1.000  N
  N8       1.0000 0.32910  0.33729  0.85076  Biso   1.000  N
  C1       1.0000 0.09270  0.02710  0.16846  Biso   1.000  C
  C2       1.0000 0.40730  0.97290  0.66846  Biso   1.000  C
  C3       1.0000 0.90730  0.52710  0.33154  Biso   1.000  C
  C4       1.0000 0.59270  0.47290  0.83154  Biso   1.000  C
  H9       1.0000 0.14170  0.96930  0.20620  Biso   1.000  H
  H10      1.0000 0.35830  0.03070  0.70620  Biso   1.000  H
  H11      1.0000 0.85830  0.46930  0.29380  Biso   1.000  H
  H12      1.0000 0.64170  0.53070  0.79380  Biso   1.000  H
  H13      1.0000 0.18770  0.08660  0.16650  Biso   1.000  H
  H14      1.0000 0.31230  0.91340  0.66650  Biso   1.000  H
  H15      1.0000 0.81230  0.58660  0.33350  Biso   1.000  H
  H16      1.0000 0.68770  0.41340  0.83350  Biso   1.000  H
  C5       1.0000 0.90650  0.07170  0.20386  Biso   1.000  C
  C6       1.0000 0.59350  0.92830  0.70386  Biso   1.000  C
  C7       1.0000 0.09350  0.57170  0.29614  Biso   1.000  C
  C8       1.0000 0.40650  0.42830  0.79614  Biso   1.000  C
  H17      1.0000 0.81230  0.01190  0.20720  Biso   1.000  H
  H18      1.0000 0.68770  0.98810  0.70720  Biso   1.000  H
  H19      1.0000 0.18770  0.51190  0.29280  Biso   1.000  H
  H20      1.0000 0.31230  0.48810  0.79280  Biso   1.000  H
  H21      1.0000 0.92820  0.09970  0.26140  Biso   1.000  H
  H22      1.0000 0.57180  0.90030  0.76140  Biso   1.000  H
  H23      1.0000 0.07180  0.59970  0.23860  Biso   1.000  H
  H24      1.0000 0.42820  0.40030  0.73860  Biso   1.000  H
  C9       1.0000 0.96530  0.87070  0.08230  Biso   1.000  C
  C10      1.0000 0.53470  0.12930  0.58230  Biso   1.000  C
  C11      1.0000 0.03470  0.37070  0.41770  Biso   1.000  C
  C12      1.0000 0.46530  0.62930  0.91770  Biso   1.000  C
  H25      1.0000 0.96600  0.84280  0.14060  Biso   1.000  H
  H26      1.0000 0.53400  0.15720  0.64060  Biso   1.000  H
  H27      1.0000 0.03400  0.34280  0.35940  Biso   1.000  H
  H28      1.0000 0.46600  0.65720  0.85940  Biso   1.000  H
  H29      1.0000 0.03670  0.81810  0.04720  Biso   1.000  H
  H30      1.0000 0.46330  0.18190  0.54720  Biso   1.000  H
  H31      1.0000 0.96330  0.31810  0.45280  Biso   1.000  H
  H32      1.0000 0.53670  0.68190  0.95280  Biso   1.000  H
  C13      1.0000 0.75670  0.87550  0.05067  Biso   1.000  C
  C14      1.0000 0.74330  0.12450  0.55067  Biso   1.000  C
  C15      1.0000 0.24330  0.37550  0.44933  Biso   1.000  C
  C16      1.0000 0.25670  0.62450  0.94933  Biso   1.000  C
  C17      1.0000 0.25810  0.96820  0.03915  Biso   1.000  C
  C18      1.0000 0.24190  0.03180  0.53915  Biso   1.000  C
  C19      1.0000 0.74190  0.46820  0.46085  Biso   1.000  C
  C20      1.0000 0.75810  0.53180  0.96085  Biso   1.000  C
  H33      1.0000 0.31660  0.89840  0.05700  Biso   1.000  H
  H34      1.0000 0.18340  0.10160  0.55700  Biso   1.000  H
  H35      1.0000 0.68340  0.39840  0.44300  Biso   1.000  H
  H36      1.0000 0.81660  0.60160  0.94300  Biso   1.000  H
  H37      1.0000 0.34160  0.02850  0.05780  Biso   1.000  H
  H38      1.0000 0.15840  0.97150  0.55780  Biso   1.000  H
  H39      1.0000 0.65840  0.52850  0.44220  Biso   1.000  H
  H40      1.0000 0.84160  0.47150  0.94220  Biso   1.000  H
  C21      1.0000 0.24160  0.97030  0.94232  Biso   1.000  C
  C22      1.0000 0.25840  0.02970  0.44232  Biso   1.000  C
  C23      1.0000 0.75840  0.47030  0.55768  Biso   1.000  C
  C24      1.0000 0.74160  0.52970  0.05768  Biso   1.000  C
  C25      1.0000 0.95120  0.26250  0.14975  Biso   1.000  C
  C26      1.0000 0.54880  0.73750  0.64975  Biso   1.000  C
  C27      1.0000 0.04880  0.76250  0.35025  Biso   1.000  C
  C28      1.0000 0.45120  0.23750  0.85025  Biso   1.000  C
  H41      1.0000 0.02330  0.26440  0.20310  Biso   1.000  H
  H42      1.0000 0.47670  0.73560  0.70310  Biso   1.000  H
  H43      1.0000 0.97670  0.76440  0.29690  Biso   1.000  H
  H44      1.0000 0.52330  0.23560  0.79690  Biso   1.000  H
  H45      1.0000 0.86830  0.32780  0.14850  Biso   1.000  H
  H46      1.0000 0.63170  0.67220  0.64850  Biso   1.000  H
  H47      1.0000 0.13170  0.82780  0.35150  Biso   1.000  H
  H48      1.0000 0.36830  0.17220  0.85150  Biso   1.000  H
  C29      1.0000 0.09490  0.26990  0.07491  Biso   1.000  C
  C30      1.0000 0.40510  0.73010  0.57491  Biso   1.000  C
  C31      1.0000 0.90510  0.76990  0.42509  Biso   1.000  C
  C32      1.0000 0.59490  0.23010  0.92509  Biso   1.000  C
  C33      1.0000 0.62560  0.18510  0.16949  Biso   1.000  C
  C34      1.0000 0.87440  0.81490  0.66949  Biso   1.000  C
  C35      1.0000 0.37440  0.68510  0.33051  Biso   1.000  C
  C36      1.0000 0.12560  0.31490  0.83051  Biso   1.000  C
  H49      1.0000 0.55210  0.11730  0.15990  Biso   1.000  H
  H50      1.0000 0.94790  0.88270  0.65990  Biso   1.000  H
  H51      1.0000 0.44790  0.61730  0.34010  Biso   1.000  H
  H52      1.0000 0.05210  0.38270  0.84010  Biso   1.000  H
  H53      1.0000 0.57770  0.24090  0.12980  Biso   1.000  H
  H54      1.0000 0.92230  0.75910  0.62980  Biso   1.000  H
  H55      1.0000 0.42230  0.74090  0.37020  Biso   1.000  H
  H56      1.0000 0.07770  0.25910  0.87020  Biso   1.000  H
  C37      1.0000 0.58640  0.22520  0.26025  Biso   1.000  C
  C38      1.0000 0.91360  0.77480  0.76025  Biso   1.000  C
  C39      1.0000 0.41360  0.72520  0.23975  Biso   1.000  C
  C40      1.0000 0.08640  0.27480  0.73975  Biso   1.000  C
