data_image0
_cell_length_a       6.551
_cell_length_b       20.589
_cell_length_c       6.832
_cell_angle_alpha    90
_cell_angle_beta     90
_cell_angle_gamma    90

_symmetry_space_group_name_H-M    "P 1"
_symmetry_int_tables_number       1

loop_
  _symmetry_equiv_pos_as_xyz
  'x, y, z'

loop_
  _atom_site_label
  _atom_site_occupancy
  _atom_site_fract_x
  _atom_site_fract_y
  _atom_site_fract_z
  _atom_site_thermal_displace_type
  _atom_site_B_iso_or_equiv
  _atom_site_type_symbol
  Cu1      1.0000 0.00000  0.00000  0.27480  Biso   1.000  Cu
  Cu2      1.0000 0.50000  0.50000  0.72520  Biso   1.000  Cu
  Mg1      1.0000 0.50000  0.00000  0.89090  Biso   1.000  Mg
  Mg2      1.0000 0.00000  0.50000  0.10910  Biso   1.000  Mg
  O1       1.0000 0.98270  0.07160  0.09250  Biso   1.000  O
  O2       1.0000 0.48270  0.42840  0.90750  Biso   1.000  O
  O3       1.0000 0.51730  0.57160  0.90750  Biso   1.000  O
  O4       1.0000 0.01730  0.92840  0.09250  Biso   1.000  O
  O5       1.0000 0.21790  0.04060  0.87600  Biso   1.000  O
  O6       1.0000 0.71790  0.45940  0.12400  Biso   1.000  O
  O7       1.0000 0.28210  0.54060  0.12400  Biso   1.000  O
  O8       1.0000 0.78210  0.95940  0.87600  Biso   1.000  O
  O9       1.0000 0.97630  0.06520  0.47970  Biso   1.000  O
  O10      1.0000 0.47630  0.43480  0.52030  Biso   1.000  O
  O11      1.0000 0.52370  0.56520  0.52030  Biso   1.000  O
  O12      1.0000 0.02370  0.93480  0.47970  Biso   1.000  O
  O13      1.0000 0.30150  0.08720  0.42130  Biso   1.000  O
  O14      1.0000 0.80150  0.41280  0.57870  Biso   1.000  O
  O15      1.0000 0.19850  0.58720  0.57870  Biso   1.000  O
  O16      1.0000 0.69850  0.91280  0.42130  Biso   1.000  O
  O17      1.0000 0.60890  0.06630  0.69210  Biso   1.000  O
  O18      1.0000 0.10890  0.43370  0.30790  Biso   1.000  O
  O19      1.0000 0.89110  0.56630  0.30790  Biso   1.000  O
  O20      1.0000 0.39110  0.93370  0.69210  Biso   1.000  O
  O21      1.0000 0.57090  0.06410  0.11420  Biso   1.000  O
  O22      1.0000 0.07090  0.43590  0.88580  Biso   1.000  O
  O23      1.0000 0.92910  0.56410  0.88580  Biso   1.000  O
  O24      1.0000 0.42910  0.93590  0.11420  Biso   1.000  O
  C1       1.0000 0.07890  0.14550  0.84690  Biso   1.000  C
  C2       1.0000 0.57890  0.35450  0.15310  Biso   1.000  C
  C3       1.0000 0.42110  0.64550  0.15310  Biso   1.000  C
  C4       1.0000 0.92110  0.85450  0.84690  Biso   1.000  C
  C5       1.0000 0.11890  0.15390  0.64600  Biso   1.000  C
  C6       1.0000 0.61890  0.34610  0.35400  Biso   1.000  C
  C7       1.0000 0.38110  0.65390  0.35400  Biso   1.000  C
  C8       1.0000 0.88110  0.84610  0.64600  Biso   1.000  C
  C9       1.0000 0.12650  0.21580  0.57020  Biso   1.000  C
  C10      1.0000 0.62650  0.28420  0.42980  Biso   1.000  C
  C11      1.0000 0.37350  0.71580  0.42980  Biso   1.000  C
  C12      1.0000 0.87350  0.78420  0.57020  Biso   1.000  C
  C13      1.0000 0.09670  0.26960  0.68770  Biso   1.000  C
  C14      1.0000 0.59670  0.23040  0.31230  Biso   1.000  C
  C15      1.0000 0.40330  0.76960  0.31230  Biso   1.000  C
  C16      1.0000 0.90330  0.73040  0.68770  Biso   1.000  C
  C17      1.0000 0.05040  0.26130  0.88350  Biso   1.000  C
  C18      1.0000 0.55040  0.23870  0.11650  Biso   1.000  C
  C19      1.0000 0.44960  0.76130  0.11650  Biso   1.000  C
  C20      1.0000 0.94960  0.73870  0.88350  Biso   1.000  C
  C21      1.0000 0.04210  0.19950  0.96140  Biso   1.000  C
  C22      1.0000 0.54210  0.30050  0.03860  Biso   1.000  C
  C23      1.0000 0.45790  0.69950  0.03860  Biso   1.000  C
  C24      1.0000 0.95790  0.80050  0.96140  Biso   1.000  C
  C25      1.0000 0.09840  0.07990  0.94320  Biso   1.000  C
  C26      1.0000 0.59840  0.42010  0.05680  Biso   1.000  C
  C27      1.0000 0.40160  0.57990  0.05680  Biso   1.000  C
  C28      1.0000 0.90160  0.92010  0.94320  Biso   1.000  C
  C29      1.0000 0.13650  0.09750  0.50580  Biso   1.000  C
  C30      1.0000 0.63650  0.40250  0.49420  Biso   1.000  C
  C31      1.0000 0.36350  0.59750  0.49420  Biso   1.000  C
  C32      1.0000 0.86350  0.90250  0.50580  Biso   1.000  C
  H1       1.0000 0.52100  0.06100  0.58300  Biso   1.000  H
  H2       1.0000 0.02100  0.43900  0.41700  Biso   1.000  H
  H3       1.0000 0.97900  0.56100  0.41700  Biso   1.000  H
  H4       1.0000 0.47900  0.93900  0.58300  Biso   1.000  H
  H5       1.0000 0.70900  0.07700  0.63700  Biso   1.000  H
  H6       1.0000 0.20900  0.42300  0.36300  Biso   1.000  H
  H7       1.0000 0.79100  0.57700  0.36300  Biso   1.000  H
  H8       1.0000 0.29100  0.92300  0.63700  Biso   1.000  H
  H9       1.0000 0.50100  0.08200  0.22200  Biso   1.000  H
  H10      1.0000 0.00100  0.41800  0.77800  Biso   1.000  H
  H11      1.0000 0.99900  0.58200  0.77800  Biso   1.000  H
  H12      1.0000 0.49900  0.91800  0.22200  Biso   1.000  H
  H13      1.0000 0.69900  0.07400  0.13600  Biso   1.000  H
  H14      1.0000 0.19900  0.42600  0.86400  Biso   1.000  H
  H15      1.0000 0.80100  0.57400  0.86400  Biso   1.000  H
  H16      1.0000 0.30100  0.92600  0.13600  Biso   1.000  H
  H17      1.0000 0.18100  0.22000  0.42400  Biso   1.000  H
  H18      1.0000 0.68100  0.28000  0.57600  Biso   1.000  H
  H19      1.0000 0.31900  0.72000  0.57600  Biso   1.000  H
  H20      1.0000 0.81900  0.78000  0.42400  Biso   1.000  H
  H21      1.0000 0.10900  0.31400  0.61900  Biso   1.000  H
  H22      1.0000 0.60900  0.18600  0.38100  Biso   1.000  H
  H23      1.0000 0.39100  0.81400  0.38100  Biso   1.000  H
  H24      1.0000 0.89100  0.68600  0.61900  Biso   1.000  H
  H25      1.0000 0.98300  0.29800  0.96000  Biso   1.000  H
  H26      1.0000 0.48300  0.20200  0.04000  Biso   1.000  H
  H27      1.0000 0.51700  0.79800  0.04000  Biso   1.000  H
  H28      1.0000 0.01700  0.70200  0.96000  Biso   1.000  H
  H29      1.0000 0.98500  0.19200  0.10000  Biso   1.000  H
  H30      1.0000 0.48500  0.30800  0.90000  Biso   1.000  H
  H31      1.0000 0.51500  0.69200  0.90000  Biso   1.000  H
  H32      1.0000 0.01500  0.80800  0.10000  Biso   1.000  H
