data_image0
_cell_length_a       13.9407
_cell_length_b       16.0084
_cell_length_c       8.8745
_cell_angle_alpha    90
_cell_angle_beta     110.972
_cell_angle_gamma    90

_symmetry_space_group_name_H-M    "P 1"
_symmetry_int_tables_number       1

loop_
  _symmetry_equiv_pos_as_xyz
  'x, y, z'

loop_
  _atom_site_label
  _atom_site_occupancy
  _atom_site_fract_x
  _atom_site_fract_y
  _atom_site_fract_z
  _atom_site_thermal_displace_type
  _atom_site_B_iso_or_equiv
  _atom_site_type_symbol
  Cu1      1.0000 0.00000  0.00000  0.50000  Biso   1.000  Cu
  Cu2      1.0000 0.50000  0.50000  0.50000  Biso   1.000  Cu
  O1       1.0000 0.62920  0.79360  0.31780  Biso   1.000  O
  O2       1.0000 0.37080  0.79360  0.68220  Biso   1.000  O
  O3       1.0000 0.12920  0.29360  0.31780  Biso   1.000  O
  O4       1.0000 0.87080  0.29360  0.68220  Biso   1.000  O
  O5       1.0000 0.37080  0.20640  0.68220  Biso   1.000  O
  O6       1.0000 0.62920  0.20640  0.31780  Biso   1.000  O
  O7       1.0000 0.87080  0.70640  0.68220  Biso   1.000  O
  O8       1.0000 0.12920  0.70640  0.31780  Biso   1.000  O
  O9       1.0000 0.50000  0.83330  0.50000  Biso   1.000  O
  O10      1.0000 0.00000  0.33330  0.50000  Biso   1.000  O
  O11      1.0000 0.50000  0.16670  0.50000  Biso   1.000  O
  O12      1.0000 0.00000  0.66670  0.50000  Biso   1.000  O
  O13      1.0000 0.25050  0.00000  0.26800  Biso   1.000  O
  O14      1.0000 0.74950  0.00000  0.73200  Biso   1.000  O
  O15      1.0000 0.75050  0.50000  0.26800  Biso   1.000  O
  O16      1.0000 0.24950  0.50000  0.73200  Biso   1.000  O
  O17      1.0000 0.09720  0.00000  0.13600  Biso   1.000  O
  O18      1.0000 0.90280  0.00000  0.86400  Biso   1.000  O
  O19      1.0000 0.59720  0.50000  0.13600  Biso   1.000  O
  O20      1.0000 0.40280  0.50000  0.86400  Biso   1.000  O
  O21      1.0000 0.13190  0.00000  0.38500  Biso   1.000  O
  O22      1.0000 0.86810  0.00000  0.61500  Biso   1.000  O
  O23      1.0000 0.63190  0.50000  0.38500  Biso   1.000  O
  O24      1.0000 0.36810  0.50000  0.61500  Biso   1.000  O
  N1       1.0000 0.83970  0.82920  0.14120  Biso   1.000  N
  N2       1.0000 0.16030  0.82920  0.85880  Biso   1.000  N
  N3       1.0000 0.33970  0.32920  0.14120  Biso   1.000  N
  N4       1.0000 0.66030  0.32920  0.85880  Biso   1.000  N
  N5       1.0000 0.16030  0.17080  0.85880  Biso   1.000  N
  N6       1.0000 0.83970  0.17080  0.14120  Biso   1.000  N
  N7       1.0000 0.66030  0.67080  0.85880  Biso   1.000  N
  N8       1.0000 0.33970  0.67080  0.14120  Biso   1.000  N
  N9       1.0000 0.91670  0.91000  0.35310  Biso   1.000  N
  N10      1.0000 0.08330  0.91000  0.64690  Biso   1.000  N
  N11      1.0000 0.41670  0.41000  0.35310  Biso   1.000  N
  N12      1.0000 0.58330  0.41000  0.64690  Biso   1.000  N
  N13      1.0000 0.08330  0.09000  0.64690  Biso   1.000  N
  N14      1.0000 0.91670  0.09000  0.35310  Biso   1.000  N
  N15      1.0000 0.58330  0.59000  0.64690  Biso   1.000  N
  N16      1.0000 0.41670  0.59000  0.35310  Biso   1.000  N
  N17      1.0000 0.82360  0.79930  0.27150  Biso   1.000  N
  N18      1.0000 0.17640  0.79930  0.72850  Biso   1.000  N
  N19      1.0000 0.32360  0.29930  0.27150  Biso   1.000  N
  N20      1.0000 0.67640  0.29930  0.72850  Biso   1.000  N
  N21      1.0000 0.17640  0.20070  0.72850  Biso   1.000  N
  N22      1.0000 0.82360  0.20070  0.27150  Biso   1.000  N
  N23      1.0000 0.67640  0.70070  0.72850  Biso   1.000  N
  N24      1.0000 0.32360  0.70070  0.27150  Biso   1.000  N
  N25      1.0000 0.16370  0.00000  0.27360  Biso   1.000  N
  N26      1.0000 0.83630  0.00000  0.72640  Biso   1.000  N
  N27      1.0000 0.66370  0.50000  0.27360  Biso   1.000  N
  N28      1.0000 0.33630  0.50000  0.72640  Biso   1.000  N
  C1       1.0000 0.89610  0.89510  0.19550  Biso   1.000  C
  C2       1.0000 0.10390  0.89510  0.80450  Biso   1.000  C
  C3       1.0000 0.39610  0.39510  0.19550  Biso   1.000  C
  C4       1.0000 0.60390  0.39510  0.80450  Biso   1.000  C
  C5       1.0000 0.10390  0.10490  0.80450  Biso   1.000  C
  C6       1.0000 0.89610  0.10490  0.19550  Biso   1.000  C
  C7       1.0000 0.60390  0.60490  0.80450  Biso   1.000  C
  C8       1.0000 0.39610  0.60490  0.19550  Biso   1.000  C
  H1       1.0000 0.91996  0.92889  0.13113  Biso   1.000  H
  H2       1.0000 0.08004  0.92889  0.86887  Biso   1.000  H
  H3       1.0000 0.41996  0.42889  0.13113  Biso   1.000  H
  H4       1.0000 0.58004  0.42889  0.86887  Biso   1.000  H
  H5       1.0000 0.08004  0.07111  0.86887  Biso   1.000  H
  H6       1.0000 0.91996  0.07111  0.13113  Biso   1.000  H
  H7       1.0000 0.58004  0.57111  0.86887  Biso   1.000  H
  H8       1.0000 0.41996  0.57111  0.13113  Biso   1.000  H
  C9       1.0000 0.87040  0.84750  0.39560  Biso   1.000  C
  C10      1.0000 0.12960  0.84750  0.60440  Biso   1.000  C
  C11      1.0000 0.37040  0.34750  0.39560  Biso   1.000  C
  C12      1.0000 0.62960  0.34750  0.60440  Biso   1.000  C
  C13      1.0000 0.12960  0.15250  0.60440  Biso   1.000  C
  C14      1.0000 0.87040  0.15250  0.39560  Biso   1.000  C
  C15      1.0000 0.62960  0.65250  0.60440  Biso   1.000  C
  C16      1.0000 0.37040  0.65250  0.39560  Biso   1.000  C
  H9       1.0000 0.87082  0.83877  0.49947  Biso   1.000  H
  H10      1.0000 0.12918  0.83877  0.50053  Biso   1.000  H
  H11      1.0000 0.37082  0.33877  0.49947  Biso   1.000  H
  H12      1.0000 0.62918  0.33877  0.50053  Biso   1.000  H
  H13      1.0000 0.12918  0.16123  0.50053  Biso   1.000  H
  H14      1.0000 0.87082  0.16123  0.49947  Biso   1.000  H
  H15      1.0000 0.62918  0.66123  0.50053  Biso   1.000  H
  H16      1.0000 0.37082  0.66123  0.49947  Biso   1.000  H
  C17      1.0000 0.76130  0.72460  0.26180  Biso   1.000  C
  C18      1.0000 0.23870  0.72460  0.73820  Biso   1.000  C
  C19      1.0000 0.26130  0.22460  0.26180  Biso   1.000  C
  C20      1.0000 0.73870  0.22460  0.73820  Biso   1.000  C
  C21      1.0000 0.23870  0.27540  0.73820  Biso   1.000  C
  C22      1.0000 0.76130  0.27540  0.26180  Biso   1.000  C
  C23      1.0000 0.73870  0.77540  0.73820  Biso   1.000  C
  C24      1.0000 0.26130  0.77540  0.26180  Biso   1.000  C
  H17      1.0000 0.77989  0.69976  0.36813  Biso   1.000  H
  H18      1.0000 0.22011  0.69976  0.63187  Biso   1.000  H
  H19      1.0000 0.27989  0.19976  0.36813  Biso   1.000  H
  H20      1.0000 0.72011  0.19976  0.63187  Biso   1.000  H
  H21      1.0000 0.22011  0.30024  0.63187  Biso   1.000  H
  H22      1.0000 0.77989  0.30024  0.36813  Biso   1.000  H
  H23      1.0000 0.72011  0.80024  0.63187  Biso   1.000  H
  H24      1.0000 0.27989  0.80024  0.36813  Biso   1.000  H
  H25      1.0000 0.77540  0.68408  0.19114  Biso   1.000  H
  H26      1.0000 0.22460  0.68408  0.80886  Biso   1.000  H
  H27      1.0000 0.27540  0.18408  0.19114  Biso   1.000  H
  H28      1.0000 0.72460  0.18408  0.80886  Biso   1.000  H
  H29      1.0000 0.22460  0.31592  0.80886  Biso   1.000  H
  H30      1.0000 0.77540  0.31592  0.19114  Biso   1.000  H
  H31      1.0000 0.72460  0.81592  0.80886  Biso   1.000  H
  H32      1.0000 0.27540  0.81592  0.19114  Biso   1.000  H
  C25      1.0000 0.65020  0.74510  0.19950  Biso   1.000  C
  C26      1.0000 0.34980  0.74510  0.80050  Biso   1.000  C
  C27      1.0000 0.15020  0.24510  0.19950  Biso   1.000  C
  C28      1.0000 0.84980  0.24510  0.80050  Biso   1.000  C
  C29      1.0000 0.34980  0.25490  0.80050  Biso   1.000  C
  C30      1.0000 0.65020  0.25490  0.19950  Biso   1.000  C
  C31      1.0000 0.84980  0.75490  0.80050  Biso   1.000  C
  C32      1.0000 0.15020  0.75490  0.19950  Biso   1.000  C
  H33      1.0000 0.63259  0.77619  0.09948  Biso   1.000  H
  H34      1.0000 0.36741  0.77619  0.90052  Biso   1.000  H
  H35      1.0000 0.13259  0.27619  0.09948  Biso   1.000  H
  H36      1.0000 0.86741  0.27619  0.90052  Biso   1.000  H
  H37      1.0000 0.36741  0.22381  0.90052  Biso   1.000  H
  H38      1.0000 0.63259  0.22381  0.09948  Biso   1.000  H
  H39      1.0000 0.86741  0.72381  0.90052  Biso   1.000  H
  H40      1.0000 0.13259  0.72381  0.09948  Biso   1.000  H
  H41      1.0000 0.60984  0.69414  0.17849  Biso   1.000  H
  H42      1.0000 0.39016  0.69414  0.82151  Biso   1.000  H
  H43      1.0000 0.10984  0.19414  0.17849  Biso   1.000  H
  H44      1.0000 0.89016  0.19414  0.82151  Biso   1.000  H
  H45      1.0000 0.39016  0.30586  0.82151  Biso   1.000  H
  H46      1.0000 0.60984  0.30586  0.17849  Biso   1.000  H
  H47      1.0000 0.89016  0.80586  0.82151  Biso   1.000  H
  H48      1.0000 0.10984  0.80586  0.17849  Biso   1.000  H
  C33      1.0000 0.53410  0.83420  0.25610  Biso   1.000  C
  C34      1.0000 0.46590  0.83420  0.74390  Biso   1.000  C
  C35      1.0000 0.03410  0.33420  0.25610  Biso   1.000  C
  C36      1.0000 0.96590  0.33420  0.74390  Biso   1.000  C
  C37      1.0000 0.46590  0.16580  0.74390  Biso   1.000  C
  C38      1.0000 0.53410  0.16580  0.25610  Biso   1.000  C
  C39      1.0000 0.96590  0.66580  0.74390  Biso   1.000  C
  C40      1.0000 0.03410  0.66580  0.25610  Biso   1.000  C
  H49      1.0000 0.47960  0.79313  0.21770  Biso   1.000  H
  H50      1.0000 0.52040  0.79313  0.78230  Biso   1.000  H
  H51      1.0000 0.97960  0.29313  0.21770  Biso   1.000  H
  H52      1.0000 0.02040  0.29313  0.78230  Biso   1.000  H
  H53      1.0000 0.52040  0.20687  0.78230  Biso   1.000  H
  H54      1.0000 0.47960  0.20687  0.21770  Biso   1.000  H
  H55      1.0000 0.02040  0.70687  0.78230  Biso   1.000  H
  H56      1.0000 0.97960  0.70687  0.21770  Biso   1.000  H
  H57      1.0000 0.53192  0.86910  0.16553  Biso   1.000  H
  H58      1.0000 0.46808  0.86910  0.83447  Biso   1.000  H
  H59      1.0000 0.03192  0.36910  0.16553  Biso   1.000  H
  H60      1.0000 0.96808  0.36910  0.83447  Biso   1.000  H
  H61      1.0000 0.46808  0.13090  0.83447  Biso   1.000  H
  H62      1.0000 0.53192  0.13090  0.16553  Biso   1.000  H
  H63      1.0000 0.96808  0.63090  0.83447  Biso   1.000  H
  H64      1.0000 0.03192  0.63090  0.16553  Biso   1.000  H
  C41      1.0000 0.51800  0.88540  0.37990  Biso   1.000  C
  C42      1.0000 0.48200  0.88540  0.62010  Biso   1.000  C
  C43      1.0000 0.01800  0.38540  0.37990  Biso   1.000  C
  C44      1.0000 0.98200  0.38540  0.62010  Biso   1.000  C
  C45      1.0000 0.48200  0.11460  0.62010  Biso   1.000  C
  C46      1.0000 0.51800  0.11460  0.37990  Biso   1.000  C
  C47      1.0000 0.98200  0.61460  0.62010  Biso   1.000  C
  C48      1.0000 0.01800  0.61460  0.37990  Biso   1.000  C
  H65      1.0000 0.57801  0.92007  0.43086  Biso   1.000  H
  H66      1.0000 0.42199  0.92007  0.56914  Biso   1.000  H
  H67      1.0000 0.07801  0.42007  0.43086  Biso   1.000  H
  H68      1.0000 0.92199  0.42007  0.56914  Biso   1.000  H
  H69      1.0000 0.42199  0.07993  0.56914  Biso   1.000  H
  H70      1.0000 0.57801  0.07993  0.43086  Biso   1.000  H
  H71      1.0000 0.92199  0.57993  0.56914  Biso   1.000  H
  H72      1.0000 0.07801  0.57993  0.43086  Biso   1.000  H
  H73      1.0000 0.45948  0.92183  0.33120  Biso   1.000  H
  H74      1.0000 0.54052  0.92183  0.66880  Biso   1.000  H
  H75      1.0000 0.95948  0.42183  0.33120  Biso   1.000  H
  H76      1.0000 0.04052  0.42183  0.66880  Biso   1.000  H
  H77      1.0000 0.54052  0.07817  0.66880  Biso   1.000  H
  H78      1.0000 0.45948  0.07817  0.33120  Biso   1.000  H
  H79      1.0000 0.04052  0.57817  0.66880  Biso   1.000  H
  H80      1.0000 0.95948  0.57817  0.33120  Biso   1.000  H
  O25      1.0000 0.24040  0.03330  0.37700  Biso   1.000  O
  O26      1.0000 0.75960  0.03330  0.62300  Biso   1.000  O
  O27      1.0000 0.74040  0.53330  0.37700  Biso   1.000  O
  O28      1.0000 0.25960  0.53330  0.62300  Biso   1.000  O
  O29      1.0000 0.75960  0.96670  0.62300  Biso   1.000  O
  O30      1.0000 0.24040  0.96670  0.37700  Biso   1.000  O
  O31      1.0000 0.25960  0.46670  0.62300  Biso   1.000  O
  O32      1.0000 0.74040  0.46670  0.37700  Biso   1.000  O
  O33      1.0000 0.09910  0.03070  0.32300  Biso   1.000  O
  O34      1.0000 0.90090  0.03070  0.67700  Biso   1.000  O
  O35      1.0000 0.59910  0.53070  0.32300  Biso   1.000  O
  O36      1.0000 0.40090  0.53070  0.67700  Biso   1.000  O
  O37      1.0000 0.90090  0.96930  0.67700  Biso   1.000  O
  O38      1.0000 0.09910  0.96930  0.32300  Biso   1.000  O
  O39      1.0000 0.40090  0.46930  0.67700  Biso   1.000  O
  O40      1.0000 0.59910  0.46930  0.32300  Biso   1.000  O
  O41      1.0000 0.18600  0.95550  0.17700  Biso   1.000  O
  O42      1.0000 0.81400  0.95550  0.82300  Biso   1.000  O
  O43      1.0000 0.68600  0.45550  0.17700  Biso   1.000  O
  O44      1.0000 0.31400  0.45550  0.82300  Biso   1.000  O
  O45      1.0000 0.81400  0.04450  0.82300  Biso   1.000  O
  O46      1.0000 0.18600  0.04450  0.17700  Biso   1.000  O
  O47      1.0000 0.31400  0.54450  0.82300  Biso   1.000  O
  O48      1.0000 0.68600  0.54450  0.17700  Biso   1.000  O
