data_image0
_cell_length_a       15.374
_cell_length_b       14.999
_cell_length_c       10.784
_cell_angle_alpha    90
_cell_angle_beta     90
_cell_angle_gamma    90

_symmetry_space_group_name_H-M    "P 1"
_symmetry_int_tables_number       1

loop_
  _symmetry_equiv_pos_as_xyz
  'x, y, z'

loop_
  _atom_site_label
  _atom_site_occupancy
  _atom_site_fract_x
  _atom_site_fract_y
  _atom_site_fract_z
  _atom_site_thermal_displace_type
  _atom_site_B_iso_or_equiv
  _atom_site_type_symbol
  Cu1      1.0000 0.02634  0.77108  0.82427  Biso   1.000  Cu
  Cu2      1.0000 0.97366  0.22892  0.82427  Biso   1.000  Cu
  Cu3      1.0000 0.52634  0.72892  0.17573  Biso   1.000  Cu
  Cu4      1.0000 0.47366  0.27108  0.17573  Biso   1.000  Cu
  Cu5      1.0000 0.06377  0.70339  0.32623  Biso   1.000  Cu
  Cu6      1.0000 0.93623  0.29661  0.32623  Biso   1.000  Cu
  Cu7      1.0000 0.56377  0.79661  0.67377  Biso   1.000  Cu
  Cu8      1.0000 0.43623  0.20339  0.67377  Biso   1.000  Cu
  O1       1.0000 0.09600  0.68050  0.15710  Biso   1.000  O
  O2       1.0000 0.90400  0.31950  0.15710  Biso   1.000  O
  O3       1.0000 0.59600  0.81950  0.84290  Biso   1.000  O
  O4       1.0000 0.40400  0.18050  0.84290  Biso   1.000  O
  O5       1.0000 0.05500  0.81390  0.66070  Biso   1.000  O
  O6       1.0000 0.94500  0.18610  0.66070  Biso   1.000  O
  O7       1.0000 0.55500  0.68610  0.33930  Biso   1.000  O
  O8       1.0000 0.44500  0.31390  0.33930  Biso   1.000  O
  N1       1.0000 0.94970  0.87400  0.86840  Biso   1.000  N
  N2       1.0000 0.05030  0.12600  0.86840  Biso   1.000  N
  N3       1.0000 0.44970  0.62600  0.13160  Biso   1.000  N
  N4       1.0000 0.55030  0.37400  0.13160  Biso   1.000  N
  N5       1.0000 0.03010  0.75860  0.99980  Biso   1.000  N
  N6       1.0000 0.96990  0.24140  0.99980  Biso   1.000  N
  N7       1.0000 0.53010  0.74140  0.00020  Biso   1.000  N
  N8       1.0000 0.46990  0.25860  0.00020  Biso   1.000  N
  N9       1.0000 0.09670  0.65910  0.82830  Biso   1.000  N
  N10      1.0000 0.90330  0.34090  0.82830  Biso   1.000  N
  N11      1.0000 0.59670  0.84090  0.17170  Biso   1.000  N
  N12      1.0000 0.40330  0.15910  0.17170  Biso   1.000  N
  N13      1.0000 0.96250  0.62010  0.33670  Biso   1.000  N
  N14      1.0000 0.03750  0.37990  0.33670  Biso   1.000  N
  N15      1.0000 0.46250  0.87990  0.66330  Biso   1.000  N
  N16      1.0000 0.53750  0.12010  0.66330  Biso   1.000  N
  N17      1.0000 0.04530  0.71560  0.49920  Biso   1.000  N
  N18      1.0000 0.95470  0.28440  0.49920  Biso   1.000  N
  N19      1.0000 0.54530  0.78440  0.50080  Biso   1.000  N
  N20      1.0000 0.45470  0.21560  0.50080  Biso   1.000  N
  N21      1.0000 0.16060  0.78720  0.36670  Biso   1.000  N
  N22      1.0000 0.83940  0.21280  0.36670  Biso   1.000  N
  N23      1.0000 0.66060  0.71280  0.63330  Biso   1.000  N
  N24      1.0000 0.33940  0.28720  0.63330  Biso   1.000  N
  C1       1.0000 0.91330  0.93170  0.78350  Biso   1.000  C
  C2       1.0000 0.08670  0.06830  0.78350  Biso   1.000  C
  C3       1.0000 0.41330  0.56830  0.21650  Biso   1.000  C
  C4       1.0000 0.58670  0.43170  0.21650  Biso   1.000  C
  C5       1.0000 0.86600  0.00290  0.82430  Biso   1.000  C
  C6       1.0000 0.13400  0.99710  0.82430  Biso   1.000  C
  C7       1.0000 0.36600  0.49710  0.17570  Biso   1.000  C
  C8       1.0000 0.63400  0.50290  0.17570  Biso   1.000  C
  C9       1.0000 0.85260  0.01480  0.94790  Biso   1.000  C
  C10      1.0000 0.14740  0.98520  0.94790  Biso   1.000  C
  C11      1.0000 0.35260  0.48520  0.05210  Biso   1.000  C
  C12      1.0000 0.64740  0.51480  0.05210  Biso   1.000  C
  C13      1.0000 0.88880  0.95710  0.03320  Biso   1.000  C
  C14      1.0000 0.11120  0.04290  0.03320  Biso   1.000  C
  C15      1.0000 0.38880  0.54290  0.96680  Biso   1.000  C
  C16      1.0000 0.61120  0.45710  0.96680  Biso   1.000  C
  C17      1.0000 0.93680  0.88600  0.98610  Biso   1.000  C
  C18      1.0000 0.06320  0.11400  0.98610  Biso   1.000  C
  C19      1.0000 0.43680  0.61400  0.01390  Biso   1.000  C
  C20      1.0000 0.56320  0.38600  0.01390  Biso   1.000  C
  C21      1.0000 0.97550  0.81750  0.07210  Biso   1.000  C
  C22      1.0000 0.02450  0.18250  0.07210  Biso   1.000  C
  C23      1.0000 0.47550  0.68250  0.92790  Biso   1.000  C
  C24      1.0000 0.52450  0.31750  0.92790  Biso   1.000  C
  C25      1.0000 0.08110  0.69990  0.04850  Biso   1.000  C
  C26      1.0000 0.91890  0.30010  0.04850  Biso   1.000  C
  C27      1.0000 0.58110  0.80010  0.95150  Biso   1.000  C
  C28      1.0000 0.41890  0.19990  0.95150  Biso   1.000  C
  C29      1.0000 0.13740  0.65200  0.95160  Biso   1.000  C
  C30      1.0000 0.86260  0.34800  0.95160  Biso   1.000  C
  C31      1.0000 0.63740  0.84800  0.04840  Biso   1.000  C
  C32      1.0000 0.36260  0.15200  0.04840  Biso   1.000  C
  C33      1.0000 0.22850  0.69680  0.95060  Biso   1.000  C
  C34      1.0000 0.77150  0.30320  0.95060  Biso   1.000  C
  C35      1.0000 0.72850  0.80320  0.04940  Biso   1.000  C
  C36      1.0000 0.27150  0.19680  0.04940  Biso   1.000  C
  C37      1.0000 0.92440  0.57800  0.24000  Biso   1.000  C
  C38      1.0000 0.07560  0.42200  0.24000  Biso   1.000  C
  C39      1.0000 0.42440  0.92200  0.76000  Biso   1.000  C
  C40      1.0000 0.57560  0.07800  0.76000  Biso   1.000  C
  C41      1.0000 0.85620  0.51980  0.26310  Biso   1.000  C
  C42      1.0000 0.14380  0.48020  0.26310  Biso   1.000  C
  C43      1.0000 0.35620  0.98020  0.73690  Biso   1.000  C
  C44      1.0000 0.64380  0.01980  0.73690  Biso   1.000  C
  C45      1.0000 0.82930  0.50360  0.37650  Biso   1.000  C
  C46      1.0000 0.17070  0.49640  0.37650  Biso   1.000  C
  C47      1.0000 0.32930  0.99640  0.62350  Biso   1.000  C
  C48      1.0000 0.67070  0.00360  0.62350  Biso   1.000  C
  C49      1.0000 0.86840  0.54650  0.47870  Biso   1.000  C
  C50      1.0000 0.13160  0.45350  0.47870  Biso   1.000  C
  C51      1.0000 0.36840  0.95350  0.52130  Biso   1.000  C
  C52      1.0000 0.63160  0.04650  0.52130  Biso   1.000  C
  C53      1.0000 0.93340  0.60700  0.45150  Biso   1.000  C
  C54      1.0000 0.06660  0.39300  0.45150  Biso   1.000  C
  C55      1.0000 0.43340  0.89300  0.54850  Biso   1.000  C
  C56      1.0000 0.56660  0.10700  0.54850  Biso   1.000  C
  C57      1.0000 0.97720  0.65870  0.55360  Biso   1.000  C
  C58      1.0000 0.02280  0.34130  0.55360  Biso   1.000  C
  C59      1.0000 0.47720  0.84130  0.44640  Biso   1.000  C
  C60      1.0000 0.52280  0.15870  0.44640  Biso   1.000  C
  C61      1.0000 0.07330  0.78530  0.55610  Biso   1.000  C
  C62      1.0000 0.92670  0.21470  0.55610  Biso   1.000  C
  C63      1.0000 0.57330  0.71470  0.44390  Biso   1.000  C
  C64      1.0000 0.42670  0.28530  0.44390  Biso   1.000  C
  C65      1.0000 0.13640  0.83920  0.47610  Biso   1.000  C
  C66      1.0000 0.86360  0.16080  0.47610  Biso   1.000  C
  C67      1.0000 0.63640  0.66080  0.52390  Biso   1.000  C
  C68      1.0000 0.36360  0.33920  0.52390  Biso   1.000  C
  C69      1.0000 0.09390  0.92700  0.43730  Biso   1.000  C
  C70      1.0000 0.90610  0.07300  0.43730  Biso   1.000  C
  C71      1.0000 0.59390  0.57300  0.56270  Biso   1.000  C
  C72      1.0000 0.40610  0.42700  0.56270  Biso   1.000  C
  Cl1      1.0000 0.84779  0.60836  0.85140  Biso   1.000  Cl
  Cl2      1.0000 0.15221  0.39164  0.85140  Biso   1.000  Cl
  Cl3      1.0000 0.34779  0.89164  0.14860  Biso   1.000  Cl
  Cl4      1.0000 0.65221  0.10836  0.14860  Biso   1.000  Cl
  O9       1.0000 0.86690  0.69680  0.81160  Biso   1.000  O
  O10      1.0000 0.13310  0.30320  0.81160  Biso   1.000  O
  O11      1.0000 0.36690  0.80320  0.18840  Biso   1.000  O
  O12      1.0000 0.63310  0.19680  0.18840  Biso   1.000  O
  O13      1.0000 0.76720  0.58180  0.80440  Biso   1.000  O
  O14      1.0000 0.23280  0.41820  0.80440  Biso   1.000  O
  O15      1.0000 0.26720  0.91820  0.19560  Biso   1.000  O
  O16      1.0000 0.73280  0.08180  0.19560  Biso   1.000  O
  O17      1.0000 0.91220  0.54900  0.80220  Biso   1.000  O
  O18      1.0000 0.08780  0.45100  0.80220  Biso   1.000  O
  O19      1.0000 0.41220  0.95100  0.19780  Biso   1.000  O
  O20      1.0000 0.58780  0.04900  0.19780  Biso   1.000  O
  O21      1.0000 0.84650  0.60550  0.98000  Biso   1.000  O
  O22      1.0000 0.15350  0.39450  0.98000  Biso   1.000  O
  O23      1.0000 0.34650  0.89450  0.02000  Biso   1.000  O
  O24      1.0000 0.65350  0.10550  0.02000  Biso   1.000  O
  Cl5      1.0000 0.80995  0.82910  0.39500  Biso   1.000  Cl
  Cl6      1.0000 0.19005  0.17090  0.39500  Biso   1.000  Cl
  Cl7      1.0000 0.30995  0.67090  0.60500  Biso   1.000  Cl
  Cl8      1.0000 0.69005  0.32910  0.60500  Biso   1.000  Cl
  O25      1.0000 0.78210  0.74560  0.34620  Biso   1.000  O
  O26      1.0000 0.21790  0.25440  0.34620  Biso   1.000  O
  O27      1.0000 0.28210  0.75440  0.65380  Biso   1.000  O
  O28      1.0000 0.71790  0.24560  0.65380  Biso   1.000  O
  O29      1.0000 0.81510  0.82560  0.52490  Biso   1.000  O
  O30      1.0000 0.18490  0.17440  0.52490  Biso   1.000  O
  O31      1.0000 0.31510  0.67440  0.47510  Biso   1.000  O
  O32      1.0000 0.68490  0.32560  0.47510  Biso   1.000  O
  O33      1.0000 0.74700  0.89220  0.36080  Biso   1.000  O
  O34      1.0000 0.25300  0.10780  0.36080  Biso   1.000  O
  O35      1.0000 0.24700  0.60780  0.63920  Biso   1.000  O
  O36      1.0000 0.75300  0.39220  0.63920  Biso   1.000  O
  O37      1.0000 0.88960  0.85110  0.34110  Biso   1.000  O
  O38      1.0000 0.11040  0.14890  0.34110  Biso   1.000  O
  O39      1.0000 0.38960  0.64890  0.65890  Biso   1.000  O
  O40      1.0000 0.61040  0.35110  0.65890  Biso   1.000  O
  H1       1.0000 0.06230  0.61160  0.81430  Biso   1.000  H
  H2       1.0000 0.93770  0.38840  0.81430  Biso   1.000  H
  H3       1.0000 0.56230  0.88840  0.18570  Biso   1.000  H
  H4       1.0000 0.43770  0.11160  0.18570  Biso   1.000  H
  H5       1.0000 0.13790  0.66070  0.76900  Biso   1.000  H
  H6       1.0000 0.86210  0.33930  0.76900  Biso   1.000  H
  H7       1.0000 0.63790  0.83930  0.23100  Biso   1.000  H
  H8       1.0000 0.36210  0.16070  0.23100  Biso   1.000  H
  H9       1.0000 0.20970  0.75640  0.38180  Biso   1.000  H
  H10      1.0000 0.79030  0.24360  0.38180  Biso   1.000  H
  H11      1.0000 0.70970  0.74360  0.61820  Biso   1.000  H
  H12      1.0000 0.29030  0.25640  0.61820  Biso   1.000  H
  H13      1.0000 0.17040  0.82390  0.30210  Biso   1.000  H
  H14      1.0000 0.82960  0.17610  0.30210  Biso   1.000  H
  H15      1.0000 0.67040  0.67610  0.69790  Biso   1.000  H
  H16      1.0000 0.32960  0.32390  0.69790  Biso   1.000  H
  H17      1.0000 0.92080  0.92210  0.69900  Biso   1.000  H
  H18      1.0000 0.07920  0.07790  0.69900  Biso   1.000  H
  H19      1.0000 0.42080  0.57790  0.30100  Biso   1.000  H
  H20      1.0000 0.57920  0.42210  0.30100  Biso   1.000  H
  H21      1.0000 0.84300  0.04320  0.76760  Biso   1.000  H
  H22      1.0000 0.15700  0.95680  0.76760  Biso   1.000  H
  H23      1.0000 0.34300  0.45680  0.23240  Biso   1.000  H
  H24      1.0000 0.65700  0.54320  0.23240  Biso   1.000  H
  H25      1.0000 0.81860  0.06230  0.97510  Biso   1.000  H
  H26      1.0000 0.18140  0.93770  0.97510  Biso   1.000  H
  H27      1.0000 0.31860  0.43770  0.02490  Biso   1.000  H
  H28      1.0000 0.68140  0.56230  0.02490  Biso   1.000  H
  H29      1.0000 0.88150  0.96530  0.11800  Biso   1.000  H
  H30      1.0000 0.11850  0.03470  0.11800  Biso   1.000  H
  H31      1.0000 0.38150  0.53470  0.88200  Biso   1.000  H
  H32      1.0000 0.61850  0.46530  0.88200  Biso   1.000  H
  H33      1.0000 0.00980  0.84660  0.13590  Biso   1.000  H
  H34      1.0000 0.99020  0.15340  0.13590  Biso   1.000  H
  H35      1.0000 0.50980  0.65340  0.86410  Biso   1.000  H
  H36      1.0000 0.49020  0.34660  0.86410  Biso   1.000  H
  H37      1.0000 0.92960  0.78370  0.11210  Biso   1.000  H
  H38      1.0000 0.07040  0.21630  0.11210  Biso   1.000  H
  H39      1.0000 0.42960  0.71630  0.88790  Biso   1.000  H
  H40      1.0000 0.57040  0.28370  0.88790  Biso   1.000  H
  H41      1.0000 0.14340  0.58900  0.97420  Biso   1.000  H
  H42      1.0000 0.85660  0.41100  0.97420  Biso   1.000  H
  H43      1.0000 0.64340  0.91100  0.02580  Biso   1.000  H
  H44      1.0000 0.35660  0.08900  0.02580  Biso   1.000  H
  H45      1.0000 0.25970  0.68030  0.02420  Biso   1.000  H
  H46      1.0000 0.74030  0.31970  0.02420  Biso   1.000  H
  H47      1.0000 0.75970  0.81970  0.97580  Biso   1.000  H
  H48      1.0000 0.24030  0.18030  0.97580  Biso   1.000  H
  H49      1.0000 0.22180  0.76040  0.94800  Biso   1.000  H
  H50      1.0000 0.77820  0.23960  0.94800  Biso   1.000  H
  H51      1.0000 0.72180  0.73960  0.05200  Biso   1.000  H
  H52      1.0000 0.27820  0.26040  0.05200  Biso   1.000  H
  H53      1.0000 0.26030  0.67730  0.87890  Biso   1.000  H
  H54      1.0000 0.73970  0.32270  0.87890  Biso   1.000  H
  H55      1.0000 0.76030  0.82270  0.12110  Biso   1.000  H
  H56      1.0000 0.23970  0.17730  0.12110  Biso   1.000  H
  H57      1.0000 0.94350  0.58790  0.15940  Biso   1.000  H
  H58      1.0000 0.05650  0.41210  0.15940  Biso   1.000  H
  H59      1.0000 0.44350  0.91210  0.84060  Biso   1.000  H
  H60      1.0000 0.55650  0.08790  0.84060  Biso   1.000  H
  H61      1.0000 0.82890  0.49150  0.19690  Biso   1.000  H
  H62      1.0000 0.17110  0.50850  0.19690  Biso   1.000  H
  H63      1.0000 0.32890  0.00850  0.80310  Biso   1.000  H
  H64      1.0000 0.67110  0.99150  0.80310  Biso   1.000  H
  H65      1.0000 0.78410  0.46360  0.38950  Biso   1.000  H
  H66      1.0000 0.21590  0.53640  0.38950  Biso   1.000  H
  H67      1.0000 0.28410  0.03640  0.61050  Biso   1.000  H
  H68      1.0000 0.71590  0.96360  0.61050  Biso   1.000  H
  H69      1.0000 0.85130  0.53470  0.55980  Biso   1.000  H
  H70      1.0000 0.14870  0.46530  0.55980  Biso   1.000  H
  H71      1.0000 0.35130  0.96530  0.44020  Biso   1.000  H
  H72      1.0000 0.64870  0.03470  0.44020  Biso   1.000  H
  H73      1.0000 0.93480  0.69530  0.59660  Biso   1.000  H
  H74      1.0000 0.06520  0.30470  0.59660  Biso   1.000  H
  H75      1.0000 0.43480  0.80470  0.40340  Biso   1.000  H
  H76      1.0000 0.56520  0.19530  0.40340  Biso   1.000  H
  H77      1.0000 0.00280  0.61790  0.61310  Biso   1.000  H
  H78      1.0000 0.99720  0.38210  0.61310  Biso   1.000  H
  H79      1.0000 0.50280  0.88210  0.38690  Biso   1.000  H
  H80      1.0000 0.49720  0.11790  0.38690  Biso   1.000  H
  H81      1.0000 0.18880  0.85210  0.52450  Biso   1.000  H
  H82      1.0000 0.81120  0.14790  0.52450  Biso   1.000  H
  H83      1.0000 0.68880  0.64790  0.47550  Biso   1.000  H
  H84      1.0000 0.31120  0.35210  0.47550  Biso   1.000  H
  H85      1.0000 0.07640  0.95940  0.50990  Biso   1.000  H
  H86      1.0000 0.92360  0.04060  0.50990  Biso   1.000  H
  H87      1.0000 0.57640  0.54060  0.49010  Biso   1.000  H
  H88      1.0000 0.42360  0.45940  0.49010  Biso   1.000  H
  H89      1.0000 0.04380  0.91470  0.38700  Biso   1.000  H
  H90      1.0000 0.95620  0.08530  0.38700  Biso   1.000  H
  H91      1.0000 0.54380  0.58530  0.61300  Biso   1.000  H
  H92      1.0000 0.45620  0.41470  0.61300  Biso   1.000  H
  H93      1.0000 0.13480  0.96190  0.39070  Biso   1.000  H
  H94      1.0000 0.86520  0.03810  0.39070  Biso   1.000  H
  H95      1.0000 0.63480  0.53810  0.60930  Biso   1.000  H
  H96      1.0000 0.36520  0.46190  0.60930  Biso   1.000  H
