data_image0
_cell_length_a       13.6617
_cell_length_b       20.8888
_cell_length_c       14.3574
_cell_angle_alpha    90
_cell_angle_beta     93.651
_cell_angle_gamma    90

_symmetry_space_group_name_H-M    "P 1"
_symmetry_int_tables_number       1

loop_
  _symmetry_equiv_pos_as_xyz
  'x, y, z'

loop_
  _atom_site_label
  _atom_site_occupancy
  _atom_site_fract_x
  _atom_site_fract_y
  _atom_site_fract_z
  _atom_site_thermal_displace_type
  _atom_site_B_iso_or_equiv
  _atom_site_type_symbol
  Cu1      1.0000 0.31515  0.19705  0.70430  Biso   1.000  Cu
  Cu2      1.0000 0.18485  0.69705  0.79570  Biso   1.000  Cu
  Cu3      1.0000 0.68485  0.80295  0.29570  Biso   1.000  Cu
  Cu4      1.0000 0.81515  0.30295  0.20430  Biso   1.000  Cu
  Cu5      1.0000 0.43741  0.29253  0.75486  Biso   1.000  Cu
  Cu6      1.0000 0.06259  0.79253  0.74514  Biso   1.000  Cu
  Cu7      1.0000 0.56259  0.70747  0.24514  Biso   1.000  Cu
  Cu8      1.0000 0.93741  0.20747  0.25486  Biso   1.000  Cu
  S1       1.0000 0.12142  0.32418  0.48510  Biso   1.000  S
  S2       1.0000 0.37858  0.82418  0.01490  Biso   1.000  S
  S3       1.0000 0.87858  0.67582  0.51490  Biso   1.000  S
  S4       1.0000 0.62142  0.17582  0.98510  Biso   1.000  S
  S5       1.0000 0.62964  0.19627  0.48243  Biso   1.000  S
  S6       1.0000 0.87036  0.69627  0.01757  Biso   1.000  S
  S7       1.0000 0.37036  0.80373  0.51757  Biso   1.000  S
  S8       1.0000 0.12964  0.30373  0.98243  Biso   1.000  S
  O1       1.0000 0.22420  0.27010  0.66820  Biso   1.000  O
  O2       1.0000 0.27580  0.77010  0.83180  Biso   1.000  O
  O3       1.0000 0.77580  0.72990  0.33180  Biso   1.000  O
  O4       1.0000 0.72420  0.22990  0.16820  Biso   1.000  O
  O5       1.0000 0.32760  0.34820  0.71630  Biso   1.000  O
  O6       1.0000 0.17240  0.84820  0.78370  Biso   1.000  O
  O7       1.0000 0.67240  0.65180  0.28370  Biso   1.000  O
  O8       1.0000 0.82760  0.15180  0.21630  Biso   1.000  O
  O9       1.0000 0.03600  0.27240  0.29000  Biso   1.000  O
  O10      1.0000 0.46400  0.77240  0.21000  Biso   1.000  O
  O11      1.0000 0.96400  0.72760  0.71000  Biso   1.000  O
  O12      1.0000 0.53600  0.22760  0.79000  Biso   1.000  O
  O13      1.0000 0.93390  0.35360  0.25040  Biso   1.000  O
  O14      1.0000 0.56610  0.85360  0.24960  Biso   1.000  O
  O15      1.0000 0.06610  0.64640  0.74960  Biso   1.000  O
  O16      1.0000 0.43390  0.14640  0.75040  Biso   1.000  O
  O17      1.0000 0.36430  0.20080  0.57980  Biso   1.000  O
  O18      1.0000 0.13570  0.70080  0.92020  Biso   1.000  O
  O19      1.0000 0.63570  0.79920  0.42020  Biso   1.000  O
  O20      1.0000 0.86430  0.29920  0.07980  Biso   1.000  O
  O21      1.0000 0.46570  0.28290  0.61910  Biso   1.000  O
  O22      1.0000 0.03430  0.78290  0.88090  Biso   1.000  O
  O23      1.0000 0.53430  0.71710  0.38090  Biso   1.000  O
  O24      1.0000 0.96570  0.21710  0.11910  Biso   1.000  O
  O25      1.0000 0.58710  0.16170  0.55550  Biso   1.000  O
  O26      1.0000 0.91290  0.66170  0.94450  Biso   1.000  O
  O27      1.0000 0.41290  0.83830  0.44450  Biso   1.000  O
  O28      1.0000 0.08710  0.33830  0.05550  Biso   1.000  O
  O29      1.0000 0.68330  0.16170  0.41500  Biso   1.000  O
  O30      1.0000 0.81670  0.66170  0.08500  Biso   1.000  O
  O31      1.0000 0.31670  0.83830  0.58500  Biso   1.000  O
  O32      1.0000 0.18330  0.33830  0.91500  Biso   1.000  O
  O33      1.0000 0.77330  0.29630  0.33110  Biso   1.000  O
  O34      1.0000 0.72670  0.79630  0.16890  Biso   1.000  O
  O35      1.0000 0.22670  0.70370  0.66890  Biso   1.000  O
  O36      1.0000 0.27330  0.20370  0.83110  Biso   1.000  O
  O37      1.0000 0.88170  0.22150  0.37840  Biso   1.000  O
  O38      1.0000 0.61830  0.72150  0.12160  Biso   1.000  O
  O39      1.0000 0.11830  0.77850  0.62160  Biso   1.000  O
  O40      1.0000 0.38170  0.27850  0.87840  Biso   1.000  O
  O41      1.0000 0.20510  0.12680  0.66910  Biso   1.000  O
  O42      1.0000 0.29490  0.62680  0.83090  Biso   1.000  O
  O43      1.0000 0.79490  0.87320  0.33090  Biso   1.000  O
  O44      1.0000 0.70510  0.37320  0.16910  Biso   1.000  O
  O45      1.0000 0.53210  0.37160  0.77580  Biso   1.000  O
  O46      1.0000 0.96790  0.87160  0.72420  Biso   1.000  O
  O47      1.0000 0.46790  0.62840  0.22420  Biso   1.000  O
  O48      1.0000 0.03210  0.12840  0.27580  Biso   1.000  O
  H1       1.0000 0.52200  0.39600  0.72900  Biso   1.000  H
  H2       1.0000 0.97800  0.89600  0.77100  Biso   1.000  H
  H3       1.0000 0.47800  0.60400  0.27100  Biso   1.000  H
  H4       1.0000 0.02200  0.10400  0.22900  Biso   1.000  H
  H5       1.0000 0.56900  0.38400  0.82100  Biso   1.000  H
  H6       1.0000 0.93100  0.88400  0.67900  Biso   1.000  H
  H7       1.0000 0.43100  0.61600  0.17900  Biso   1.000  H
  H8       1.0000 0.06900  0.11600  0.32100  Biso   1.000  H
  N1       1.0000 0.05290  0.11170  0.59860  Biso   1.000  N
  N2       1.0000 0.44710  0.61170  0.90140  Biso   1.000  N
  N3       1.0000 0.94710  0.88830  0.40140  Biso   1.000  N
  N4       1.0000 0.55290  0.38830  0.09860  Biso   1.000  N
  C1       1.0000 0.24750  0.32720  0.68210  Biso   1.000  C
  C2       1.0000 0.25250  0.82720  0.81790  Biso   1.000  C
  C3       1.0000 0.75250  0.67280  0.31790  Biso   1.000  C
  C4       1.0000 0.74750  0.17280  0.18210  Biso   1.000  C
  C5       1.0000 0.16940  0.37740  0.66030  Biso   1.000  C
  C6       1.0000 0.33060  0.87740  0.83970  Biso   1.000  C
  C7       1.0000 0.83060  0.62260  0.33970  Biso   1.000  C
  C8       1.0000 0.66940  0.12260  0.16030  Biso   1.000  C
  C9       1.0000 0.15720  0.42410  0.72940  Biso   1.000  C
  C10      1.0000 0.34280  0.92410  0.77060  Biso   1.000  C
  C11      1.0000 0.84280  0.57590  0.27060  Biso   1.000  C
  C12      1.0000 0.65720  0.07590  0.22940  Biso   1.000  C
  H9       1.0000 0.19650  0.42340  0.78470  Biso   1.000  H
  H10      1.0000 0.30350  0.92340  0.71530  Biso   1.000  H
  H11      1.0000 0.80350  0.57660  0.21530  Biso   1.000  H
  H12      1.0000 0.69650  0.07660  0.28470  Biso   1.000  H
  C13      1.0000 0.08690  0.47090  0.71470  Biso   1.000  C
  C14      1.0000 0.41310  0.97090  0.78530  Biso   1.000  C
  C15      1.0000 0.91310  0.52910  0.28530  Biso   1.000  C
  C16      1.0000 0.58690  0.02910  0.21470  Biso   1.000  C
  H13      1.0000 0.07830  0.50140  0.76060  Biso   1.000  H
  H14      1.0000 0.42170  0.00140  0.73940  Biso   1.000  H
  H15      1.0000 0.92170  0.49860  0.23940  Biso   1.000  H
  H16      1.0000 0.57830  0.99860  0.26060  Biso   1.000  H
  C17      1.0000 0.03120  0.47280  0.63530  Biso   1.000  C
  C18      1.0000 0.46880  0.97280  0.86470  Biso   1.000  C
  C19      1.0000 0.96880  0.52720  0.36470  Biso   1.000  C
  C20      1.0000 0.53120  0.02720  0.13530  Biso   1.000  C
  H17      1.0000 0.98380  0.50450  0.62660  Biso   1.000  H
  H18      1.0000 0.51620  0.00450  0.87340  Biso   1.000  H
  H19      1.0000 0.01620  0.49550  0.37340  Biso   1.000  H
  H20      1.0000 0.48380  0.99550  0.12660  Biso   1.000  H
  C21      1.0000 0.04280  0.42910  0.56690  Biso   1.000  C
  C22      1.0000 0.45720  0.92910  0.93310  Biso   1.000  C
  C23      1.0000 0.95720  0.57090  0.43310  Biso   1.000  C
  C24      1.0000 0.54280  0.07090  0.06690  Biso   1.000  C
  H21      1.0000 0.00420  0.43220  0.51140  Biso   1.000  H
  H22      1.0000 0.49580  0.93220  0.98860  Biso   1.000  H
  H23      1.0000 0.99580  0.56780  0.48860  Biso   1.000  H
  H24      1.0000 0.50420  0.06780  0.01140  Biso   1.000  H
  C25      1.0000 0.11100  0.37990  0.57800  Biso   1.000  C
  C26      1.0000 0.38900  0.87990  0.92200  Biso   1.000  C
  C27      1.0000 0.88900  0.62010  0.42200  Biso   1.000  C
  C28      1.0000 0.61100  0.12010  0.07800  Biso   1.000  C
  C29      1.0000 0.14820  0.37730  0.39390  Biso   1.000  C
  C30      1.0000 0.35180  0.87730  0.10610  Biso   1.000  C
  C31      1.0000 0.85180  0.62270  0.60610  Biso   1.000  C
  C32      1.0000 0.64820  0.12270  0.89390  Biso   1.000  C
  C33      1.0000 0.22500  0.42000  0.40810  Biso   1.000  C
  C34      1.0000 0.27500  0.92000  0.09190  Biso   1.000  C
  C35      1.0000 0.77500  0.58000  0.59190  Biso   1.000  C
  C36      1.0000 0.72500  0.08000  0.90810  Biso   1.000  C
  H25      1.0000 0.26050  0.42040  0.46550  Biso   1.000  H
  H26      1.0000 0.23950  0.92040  0.03450  Biso   1.000  H
  H27      1.0000 0.73950  0.57960  0.53450  Biso   1.000  H
  H28      1.0000 0.76050  0.07960  0.96550  Biso   1.000  H
  C37      1.0000 0.25060  0.46190  0.34040  Biso   1.000  C
  C38      1.0000 0.24940  0.96190  0.15960  Biso   1.000  C
  C39      1.0000 0.74940  0.53810  0.65960  Biso   1.000  C
  C40      1.0000 0.75060  0.03810  0.84040  Biso   1.000  C
  H29      1.0000 0.30280  0.49000  0.35180  Biso   1.000  H
  H30      1.0000 0.19720  0.99000  0.14820  Biso   1.000  H
  H31      1.0000 0.69720  0.51000  0.64820  Biso   1.000  H
  H32      1.0000 0.80280  0.01000  0.85180  Biso   1.000  H
  C41      1.0000 0.19840  0.46190  0.25540  Biso   1.000  C
  C42      1.0000 0.30160  0.96190  0.24460  Biso   1.000  C
  C43      1.0000 0.80160  0.53810  0.74460  Biso   1.000  C
  C44      1.0000 0.69840  0.03810  0.75540  Biso   1.000  C
  H33      1.0000 0.21480  0.49030  0.20890  Biso   1.000  H
  H34      1.0000 0.28520  0.99030  0.29110  Biso   1.000  H
  H35      1.0000 0.78520  0.50970  0.79110  Biso   1.000  H
  H36      1.0000 0.71480  0.00970  0.70890  Biso   1.000  H
  C45      1.0000 0.12320  0.42060  0.23960  Biso   1.000  C
  C46      1.0000 0.37680  0.92060  0.26040  Biso   1.000  C
  C47      1.0000 0.87680  0.57940  0.76040  Biso   1.000  C
  C48      1.0000 0.62320  0.07940  0.73960  Biso   1.000  C
  H37      1.0000 0.08800  0.42170  0.18200  Biso   1.000  H
  H38      1.0000 0.41200  0.92170  0.31800  Biso   1.000  H
  H39      1.0000 0.91200  0.57830  0.81800  Biso   1.000  H
  H40      1.0000 0.58800  0.07830  0.68200  Biso   1.000  H
  C49      1.0000 0.09610  0.37660  0.30540  Biso   1.000  C
  C50      1.0000 0.40390  0.87660  0.19460  Biso   1.000  C
  C51      1.0000 0.90390  0.62340  0.69460  Biso   1.000  C
  C52      1.0000 0.59610  0.12340  0.80540  Biso   1.000  C
  C53      1.0000 0.01460  0.33020  0.28080  Biso   1.000  C
  C54      1.0000 0.48540  0.83020  0.21920  Biso   1.000  C
  C55      1.0000 0.98540  0.66980  0.71920  Biso   1.000  C
  C56      1.0000 0.51460  0.16980  0.78080  Biso   1.000  C
  C57      1.0000 0.42570  0.24430  0.56390  Biso   1.000  C
  C58      1.0000 0.07430  0.74430  0.93610  Biso   1.000  C
  C59      1.0000 0.57430  0.75570  0.43610  Biso   1.000  C
  C60      1.0000 0.92570  0.25570  0.06390  Biso   1.000  C
  C61      1.0000 0.44590  0.25120  0.45980  Biso   1.000  C
  C62      1.0000 0.05410  0.75120  0.04020  Biso   1.000  C
  C63      1.0000 0.55410  0.74880  0.54020  Biso   1.000  C
  C64      1.0000 0.94590  0.24880  0.95980  Biso   1.000  C
  C65      1.0000 0.36840  0.27650  0.40430  Biso   1.000  C
  C66      1.0000 0.13160  0.77650  0.09570  Biso   1.000  C
  C67      1.0000 0.63160  0.72350  0.59570  Biso   1.000  C
  C68      1.0000 0.86840  0.22350  0.90430  Biso   1.000  C
  H41      1.0000 0.30890  0.28470  0.43010  Biso   1.000  H
  H42      1.0000 0.19110  0.78470  0.06990  Biso   1.000  H
  H43      1.0000 0.69110  0.71530  0.56990  Biso   1.000  H
  H44      1.0000 0.80890  0.21530  0.93010  Biso   1.000  H
  C69      1.0000 0.37890  0.28950  0.31170  Biso   1.000  C
  C70      1.0000 0.12110  0.78950  0.18830  Biso   1.000  C
  C71      1.0000 0.62110  0.71050  0.68830  Biso   1.000  C
  C72      1.0000 0.87890  0.21050  0.81170  Biso   1.000  C
  H45      1.0000 0.32780  0.30830  0.27560  Biso   1.000  H
  H46      1.0000 0.17220  0.80830  0.22440  Biso   1.000  H
  H47      1.0000 0.67220  0.69170  0.72440  Biso   1.000  H
  H48      1.0000 0.82780  0.19170  0.77560  Biso   1.000  H
  C73      1.0000 0.46570  0.27470  0.27220  Biso   1.000  C
  C74      1.0000 0.03430  0.77470  0.22780  Biso   1.000  C
  C75      1.0000 0.53430  0.72530  0.72780  Biso   1.000  C
  C76      1.0000 0.96570  0.22530  0.77220  Biso   1.000  C
  H49      1.0000 0.47250  0.28300  0.20930  Biso   1.000  H
  H50      1.0000 0.02750  0.78300  0.29070  Biso   1.000  H
  H51      1.0000 0.52750  0.71700  0.79070  Biso   1.000  H
  H52      1.0000 0.97250  0.21700  0.70930  Biso   1.000  H
  C77      1.0000 0.54170  0.24760  0.32510  Biso   1.000  C
  C78      1.0000 0.95830  0.74760  0.17490  Biso   1.000  C
  C79      1.0000 0.45830  0.75240  0.67490  Biso   1.000  C
  C80      1.0000 0.04170  0.25240  0.82510  Biso   1.000  C
  H53      1.0000 0.59940  0.23720  0.29770  Biso   1.000  H
  H54      1.0000 0.90060  0.73720  0.20230  Biso   1.000  H
  H55      1.0000 0.40060  0.76280  0.70230  Biso   1.000  H
  H56      1.0000 0.09940  0.26280  0.79770  Biso   1.000  H
  C81      1.0000 0.53330  0.23560  0.41960  Biso   1.000  C
  C82      1.0000 0.96670  0.73560  0.08040  Biso   1.000  C
  C83      1.0000 0.46670  0.76440  0.58040  Biso   1.000  C
  C84      1.0000 0.03330  0.26440  0.91960  Biso   1.000  C
  C85      1.0000 0.70920  0.25300  0.53500  Biso   1.000  C
  C86      1.0000 0.79080  0.75300  0.96500  Biso   1.000  C
  C87      1.0000 0.29080  0.74700  0.46500  Biso   1.000  C
  C88      1.0000 0.20920  0.24700  0.03500  Biso   1.000  C
  C89      1.0000 0.79140  0.27520  0.49010  Biso   1.000  C
  C90      1.0000 0.70860  0.77520  0.00990  Biso   1.000  C
  C91      1.0000 0.20860  0.72480  0.50990  Biso   1.000  C
  C92      1.0000 0.29140  0.22480  0.99010  Biso   1.000  C
  C93      1.0000 0.85400  0.31760  0.53860  Biso   1.000  C
  C94      1.0000 0.64600  0.81760  0.96140  Biso   1.000  C
  C95      1.0000 0.14600  0.68240  0.46140  Biso   1.000  C
  C96      1.0000 0.35400  0.18240  0.03860  Biso   1.000  C
  H57      1.0000 0.91030  0.33170  0.51160  Biso   1.000  H
  H58      1.0000 0.58970  0.83170  0.98840  Biso   1.000  H
  H59      1.0000 0.08970  0.66830  0.48840  Biso   1.000  H
  H60      1.0000 0.41030  0.16830  0.01160  Biso   1.000  H
  C97      1.0000 0.83420  0.33930  0.62570  Biso   1.000  C
  C98      1.0000 0.66580  0.83930  0.87430  Biso   1.000  C
  C99      1.0000 0.16580  0.66070  0.37430  Biso   1.000  C
  C100     1.0000 0.33420  0.16070  0.12570  Biso   1.000  C
  H61      1.0000 0.87540  0.36920  0.65620  Biso   1.000  H
  H62      1.0000 0.62460  0.86920  0.84380  Biso   1.000  H
  H63      1.0000 0.12460  0.63080  0.34380  Biso   1.000  H
  H64      1.0000 0.37540  0.13080  0.15620  Biso   1.000  H
  C101     1.0000 0.75420  0.31700  0.66760  Biso   1.000  C
  C102     1.0000 0.74580  0.81700  0.83240  Biso   1.000  C
  C103     1.0000 0.24580  0.68300  0.33240  Biso   1.000  C
  C104     1.0000 0.25420  0.18300  0.16760  Biso   1.000  C
  H65      1.0000 0.74200  0.33100  0.72720  Biso   1.000  H
  H66      1.0000 0.75800  0.83100  0.77280  Biso   1.000  H
  H67      1.0000 0.25800  0.66900  0.27280  Biso   1.000  H
  H68      1.0000 0.24200  0.16900  0.22720  Biso   1.000  H
  C105     1.0000 0.69160  0.27420  0.62290  Biso   1.000  C
  C106     1.0000 0.80840  0.77420  0.87710  Biso   1.000  C
  C107     1.0000 0.30840  0.72580  0.37710  Biso   1.000  C
  C108     1.0000 0.19160  0.22580  0.12290  Biso   1.000  C
  H69      1.0000 0.63710  0.25950  0.65210  Biso   1.000  H
  H70      1.0000 0.86290  0.75950  0.84790  Biso   1.000  H
  H71      1.0000 0.36290  0.74050  0.34790  Biso   1.000  H
  H72      1.0000 0.13710  0.24050  0.15210  Biso   1.000  H
  C109     1.0000 0.81760  0.26170  0.39130  Biso   1.000  C
  C110     1.0000 0.68240  0.76170  0.10870  Biso   1.000  C
  C111     1.0000 0.18240  0.73830  0.60870  Biso   1.000  C
  C112     1.0000 0.31760  0.23830  0.89130  Biso   1.000  C
  C113     1.0000 0.13700  0.14170  0.61210  Biso   1.000  C
  C114     1.0000 0.36300  0.64170  0.88790  Biso   1.000  C
  C115     1.0000 0.86300  0.85830  0.38790  Biso   1.000  C
  C116     1.0000 0.63700  0.35830  0.11210  Biso   1.000  C
  H73      1.0000 0.14650  0.17750  0.57530  Biso   1.000  H
  H74      1.0000 0.35350  0.67750  0.92470  Biso   1.000  H
  H75      1.0000 0.85350  0.82250  0.42470  Biso   1.000  H
  H76      1.0000 0.64650  0.32250  0.07530  Biso   1.000  H
  C117     1.0000 0.97930  0.13130  0.52800  Biso   1.000  C
  C118     1.0000 0.52070  0.63130  0.97200  Biso   1.000  C
  C119     1.0000 0.02070  0.86870  0.47200  Biso   1.000  C
  C120     1.0000 0.47930  0.36870  0.02800  Biso   1.000  C
  H77      1.0000 0.99710  0.17200  0.50290  Biso   1.000  H
  H78      1.0000 0.50290  0.67200  0.99710  Biso   1.000  H
  H79      1.0000 0.00290  0.82800  0.49710  Biso   1.000  H
  H80      1.0000 0.49710  0.32800  0.00290  Biso   1.000  H
  H81      1.0000 0.91710  0.13500  0.55520  Biso   1.000  H
  H82      1.0000 0.58290  0.63500  0.94480  Biso   1.000  H
  H83      1.0000 0.08290  0.86500  0.44480  Biso   1.000  H
  H84      1.0000 0.41710  0.36500  0.05520  Biso   1.000  H
  H85      1.0000 0.97460  0.10000  0.47890  Biso   1.000  H
  H86      1.0000 0.52540  0.60000  0.02110  Biso   1.000  H
  H87      1.0000 0.02540  0.90000  0.52110  Biso   1.000  H
  H88      1.0000 0.47460  0.40000  0.97890  Biso   1.000  H
  C121     1.0000 0.03280  0.05590  0.65170  Biso   1.000  C
  C122     1.0000 0.46720  0.55590  0.84830  Biso   1.000  C
  C123     1.0000 0.96720  0.94410  0.34830  Biso   1.000  C
  C124     1.0000 0.53280  0.44410  0.15170  Biso   1.000  C
  H89      1.0000 0.08880  0.04590  0.69280  Biso   1.000  H
  H90      1.0000 0.41120  0.54590  0.80720  Biso   1.000  H
  H91      1.0000 0.91120  0.95410  0.30720  Biso   1.000  H
  H92      1.0000 0.58880  0.45410  0.19280  Biso   1.000  H
  H93      1.0000 0.01880  0.02060  0.61020  Biso   1.000  H
  H94      1.0000 0.48120  0.52060  0.88980  Biso   1.000  H
  H95      1.0000 0.98120  0.97940  0.38980  Biso   1.000  H
  H96      1.0000 0.51880  0.47940  0.11020  Biso   1.000  H
  H97      1.0000 0.97720  0.06380  0.68770  Biso   1.000  H
  H98      1.0000 0.52280  0.56380  0.81230  Biso   1.000  H
  H99      1.0000 0.02280  0.93620  0.31230  Biso   1.000  H
  H100     1.0000 0.47720  0.43620  0.18770  Biso   1.000  H
  O49      1.0000 0.50990  0.47100  0.65200  Biso   1.000  O
  O50      1.0000 0.99010  0.97100  0.84800  Biso   1.000  O
  O51      1.0000 0.49010  0.52900  0.34800  Biso   1.000  O
  O52      1.0000 0.00990  0.02900  0.15200  Biso   1.000  O
  N5       1.0000 0.39050  0.53770  0.59340  Biso   1.000  N
  N6       1.0000 0.10950  0.03770  0.90660  Biso   1.000  N
  N7       1.0000 0.60950  0.46230  0.40660  Biso   1.000  N
  N8       1.0000 0.89050  0.96230  0.09340  Biso   1.000  N
  C125     1.0000 0.42300  0.48430  0.63480  Biso   1.000  C
  C126     1.0000 0.07700  0.98430  0.86520  Biso   1.000  C
  C127     1.0000 0.57700  0.51570  0.36520  Biso   1.000  C
  C128     1.0000 0.92300  0.01570  0.13480  Biso   1.000  C
  H101     1.0000 0.37660  0.45470  0.65200  Biso   1.000  H
  H102     1.0000 0.12340  0.95470  0.84800  Biso   1.000  H
  H103     1.0000 0.62340  0.54530  0.34800  Biso   1.000  H
  H104     1.0000 0.87660  0.04530  0.15200  Biso   1.000  H
  C129     1.0000 0.45250  0.58770  0.56560  Biso   1.000  C
  C130     1.0000 0.04750  0.08770  0.93440  Biso   1.000  C
  C131     1.0000 0.54750  0.41230  0.43440  Biso   1.000  C
  C132     1.0000 0.95250  0.91230  0.06560  Biso   1.000  C
  H105     1.0000 0.51960  0.57400  0.57280  Biso   1.000  H
  H106     1.0000 0.98040  0.07400  0.92720  Biso   1.000  H
  H107     1.0000 0.48040  0.42600  0.42720  Biso   1.000  H
  H108     1.0000 0.01960  0.92600  0.07280  Biso   1.000  H
  H109     1.0000 0.44370  0.62470  0.60390  Biso   1.000  H
  H110     1.0000 0.05630  0.12470  0.89610  Biso   1.000  H
  H111     1.0000 0.55630  0.37530  0.39610  Biso   1.000  H
  H112     1.0000 0.94370  0.87530  0.10390  Biso   1.000  H
  H113     1.0000 0.43620  0.59830  0.50150  Biso   1.000  H
  H114     1.0000 0.06380  0.09830  0.99850  Biso   1.000  H
  H115     1.0000 0.56380  0.40170  0.49850  Biso   1.000  H
  H116     1.0000 0.93620  0.90170  0.00150  Biso   1.000  H
  C133     1.0000 0.28730  0.55160  0.58180  Biso   1.000  C
  C134     1.0000 0.21270  0.05160  0.91820  Biso   1.000  C
  C135     1.0000 0.71270  0.44840  0.41820  Biso   1.000  C
  C136     1.0000 0.78730  0.94840  0.08180  Biso   1.000  C
  H117     1.0000 0.25220  0.52410  0.62170  Biso   1.000  H
  H118     1.0000 0.24780  0.02410  0.87830  Biso   1.000  H
  H119     1.0000 0.74780  0.47590  0.37830  Biso   1.000  H
  H120     1.0000 0.75220  0.97590  0.12170  Biso   1.000  H
  H121     1.0000 0.26460  0.54440  0.51790  Biso   1.000  H
  H122     1.0000 0.23540  0.04440  0.98210  Biso   1.000  H
  H123     1.0000 0.73540  0.45560  0.48210  Biso   1.000  H
  H124     1.0000 0.76460  0.95560  0.01790  Biso   1.000  H
  H125     1.0000 0.27610  0.59540  0.59790  Biso   1.000  H
  H126     1.0000 0.22390  0.09540  0.90210  Biso   1.000  H
  H127     1.0000 0.72390  0.40460  0.40210  Biso   1.000  H
  H128     1.0000 0.77610  0.90460  0.09790  Biso   1.000  H
  O53      1.0000 0.19640  0.10340  0.37560  Biso   1.000  O
  O54      1.0000 0.30360  0.60340  0.12440  Biso   1.000  O
  O55      1.0000 0.80360  0.89660  0.62440  Biso   1.000  O
  O56      1.0000 0.69640  0.39660  0.87560  Biso   1.000  O
  N9       1.0000 0.29230  0.04580  0.47780  Biso   1.000  N
  N10      1.0000 0.20770  0.54580  0.02220  Biso   1.000  N
  N11      1.0000 0.70770  0.95420  0.52220  Biso   1.000  N
  N12      1.0000 0.79230  0.45420  0.97780  Biso   1.000  N
  C137     1.0000 0.27590  0.09530  0.41790  Biso   1.000  C
  C138     1.0000 0.22410  0.59530  0.08210  Biso   1.000  C
  C139     1.0000 0.72410  0.90470  0.58210  Biso   1.000  C
  C140     1.0000 0.77590  0.40470  0.91790  Biso   1.000  C
  H129     1.0000 0.32650  0.12390  0.40870  Biso   1.000  H
  H130     1.0000 0.17350  0.62390  0.09130  Biso   1.000  H
  H131     1.0000 0.67350  0.87610  0.59130  Biso   1.000  H
  H132     1.0000 0.82650  0.37610  0.90870  Biso   1.000  H
  C141     1.0000 0.22760  0.99490  0.49570  Biso   1.000  C
  C142     1.0000 0.27240  0.49490  0.00430  Biso   1.000  C
  C143     1.0000 0.77240  0.00510  0.50430  Biso   1.000  C
  C144     1.0000 0.72760  0.50510  0.99570  Biso   1.000  C
  H133     1.0000 0.22620  0.98870  0.56180  Biso   1.000  H
  H134     1.0000 0.27380  0.48870  0.93820  Biso   1.000  H
  H135     1.0000 0.77380  0.01130  0.43820  Biso   1.000  H
  H136     1.0000 0.72620  0.51130  0.06180  Biso   1.000  H
  H137     1.0000 0.25000  0.95640  0.46740  Biso   1.000  H
  H138     1.0000 0.25000  0.45640  0.03260  Biso   1.000  H
  H139     1.0000 0.75000  0.04360  0.53260  Biso   1.000  H
  H140     1.0000 0.75000  0.54360  0.96740  Biso   1.000  H
  H141     1.0000 0.16290  0.00510  0.47000  Biso   1.000  H
  H142     1.0000 0.33710  0.50510  0.03000  Biso   1.000  H
  H143     1.0000 0.83710  0.99490  0.53000  Biso   1.000  H
  H144     1.0000 0.66290  0.49490  0.97000  Biso   1.000  H
  C145     1.0000 0.38720  0.04670  0.53210  Biso   1.000  C
  C146     1.0000 0.11280  0.54670  0.96790  Biso   1.000  C
  C147     1.0000 0.61280  0.95330  0.46790  Biso   1.000  C
  C148     1.0000 0.88720  0.45330  0.03210  Biso   1.000  C
  H145     1.0000 0.43080  0.01640  0.50620  Biso   1.000  H
  H146     1.0000 0.06920  0.51640  0.99380  Biso   1.000  H
  H147     1.0000 0.56920  0.98360  0.49380  Biso   1.000  H
  H148     1.0000 0.93080  0.48360  0.00620  Biso   1.000  H
  H149     1.0000 0.37780  0.03550  0.59580  Biso   1.000  H
  H150     1.0000 0.12220  0.53550  0.90420  Biso   1.000  H
  H151     1.0000 0.62220  0.96450  0.40420  Biso   1.000  H
  H152     1.0000 0.87780  0.46450  0.09580  Biso   1.000  H
  H153     1.0000 0.41520  0.08880  0.52990  Biso   1.000  H
  H154     1.0000 0.08480  0.58880  0.97010  Biso   1.000  H
  H155     1.0000 0.58480  0.91120  0.47010  Biso   1.000  H
  H156     1.0000 0.91520  0.41120  0.02990  Biso   1.000  H
  O57      1.0000 0.15230  0.07340  0.41230  Biso   1.000  O
  O58      1.0000 0.34770  0.57340  0.08770  Biso   1.000  O
  O59      1.0000 0.84770  0.92660  0.58770  Biso   1.000  O
  O60      1.0000 0.65230  0.42660  0.91230  Biso   1.000  O
  N13      1.0000 0.31440  0.05680  0.46060  Biso   1.000  N
  N14      1.0000 0.18560  0.55680  0.03940  Biso   1.000  N
  N15      1.0000 0.68560  0.94320  0.53940  Biso   1.000  N
  N16      1.0000 0.81440  0.44320  0.96060  Biso   1.000  N
  C149     1.0000 0.23670  0.08890  0.42200  Biso   1.000  C
  C150     1.0000 0.26330  0.58890  0.07800  Biso   1.000  C
  C151     1.0000 0.76330  0.91110  0.57800  Biso   1.000  C
  C152     1.0000 0.73670  0.41110  0.92200  Biso   1.000  C
  H157     1.0000 0.25060  0.12950  0.40010  Biso   1.000  H
  H158     1.0000 0.24940  0.62950  0.09990  Biso   1.000  H
  H159     1.0000 0.74940  0.87050  0.59990  Biso   1.000  H
  H160     1.0000 0.75060  0.37050  0.90010  Biso   1.000  H
  C153     1.0000 0.29500  0.00230  0.51780  Biso   1.000  C
  C154     1.0000 0.20500  0.50230  0.98220  Biso   1.000  C
  C155     1.0000 0.70500  0.99770  0.48220  Biso   1.000  C
  C156     1.0000 0.79500  0.49770  0.01780  Biso   1.000  C
  H161     1.0000 0.22690  0.00130  0.52980  Biso   1.000  H
  H162     1.0000 0.27310  0.50130  0.97020  Biso   1.000  H
  H163     1.0000 0.77310  0.99870  0.47020  Biso   1.000  H
  H164     1.0000 0.72690  0.49870  0.02980  Biso   1.000  H
  H165     1.0000 0.33390  0.00530  0.57580  Biso   1.000  H
  H166     1.0000 0.16610  0.50530  0.92420  Biso   1.000  H
  H167     1.0000 0.66610  0.99470  0.42420  Biso   1.000  H
  H168     1.0000 0.83390  0.49470  0.07580  Biso   1.000  H
  H169     1.0000 0.31200  0.96380  0.48590  Biso   1.000  H
  H170     1.0000 0.18800  0.46380  0.01410  Biso   1.000  H
  H171     1.0000 0.68800  0.03620  0.51410  Biso   1.000  H
  H172     1.0000 0.81200  0.53620  0.98590  Biso   1.000  H
  C157     1.0000 0.41380  0.07550  0.44800  Biso   1.000  C
  C158     1.0000 0.08620  0.57550  0.05200  Biso   1.000  C
  C159     1.0000 0.58620  0.92450  0.55200  Biso   1.000  C
  C160     1.0000 0.91380  0.42450  0.94800  Biso   1.000  C
  H173     1.0000 0.41420  0.11000  0.40400  Biso   1.000  H
  H174     1.0000 0.08580  0.61000  0.09600  Biso   1.000  H
  H175     1.0000 0.58580  0.89000  0.59600  Biso   1.000  H
  H176     1.0000 0.91420  0.39000  0.90400  Biso   1.000  H
  H177     1.0000 0.44920  0.03970  0.42500  Biso   1.000  H
  H178     1.0000 0.05080  0.53970  0.07500  Biso   1.000  H
  H179     1.0000 0.55080  0.96030  0.57500  Biso   1.000  H
  H180     1.0000 0.94920  0.46030  0.92500  Biso   1.000  H
  H181     1.0000 0.44430  0.08920  0.50670  Biso   1.000  H
  H182     1.0000 0.05570  0.58920  0.99330  Biso   1.000  H
  H183     1.0000 0.55570  0.91080  0.49330  Biso   1.000  H
  H184     1.0000 0.94430  0.41080  0.00670  Biso   1.000  H
