data_image0
_cell_length_a       8.5736
_cell_length_b       10.8514
_cell_length_c       12.743
_cell_angle_alpha    86.371
_cell_angle_beta     78.695
_cell_angle_gamma    68.104

_symmetry_space_group_name_H-M    "P 1"
_symmetry_int_tables_number       1

loop_
  _symmetry_equiv_pos_as_xyz
  'x, y, z'

loop_
  _atom_site_label
  _atom_site_occupancy
  _atom_site_fract_x
  _atom_site_fract_y
  _atom_site_fract_z
  _atom_site_thermal_displace_type
  _atom_site_B_iso_or_equiv
  _atom_site_type_symbol
  Cu1      1.0000 0.86200  0.60398  0.53563  Biso   1.000  Cu
  Cu2      1.0000 0.13800  0.39602  0.46437  Biso   1.000  Cu
  S1       1.0000 0.52180  0.33437  0.67011  Biso   1.000  S
  S2       1.0000 0.47820  0.66563  0.32989  Biso   1.000  S
  O1       1.0000 0.00990  0.61880  0.62850  Biso   1.000  O
  O2       1.0000 0.99010  0.38120  0.37150  Biso   1.000  O
  O3       1.0000 0.24550  0.44400  0.56980  Biso   1.000  O
  O4       1.0000 0.75450  0.55600  0.43020  Biso   1.000  O
  O5       1.0000 0.79530  0.48040  0.63780  Biso   1.000  O
  O6       1.0000 0.20470  0.51960  0.36220  Biso   1.000  O
  O7       1.0000 0.03160  0.30500  0.57670  Biso   1.000  O
  O8       1.0000 0.96840  0.69500  0.42330  Biso   1.000  O
  C1       1.0000 0.16060  0.54200  0.63250  Biso   1.000  C
  C2       1.0000 0.83940  0.45800  0.36750  Biso   1.000  C
  C3       1.0000 0.24110  0.56870  0.71910  Biso   1.000  C
  C4       1.0000 0.75890  0.43130  0.28090  Biso   1.000  C
  C5       1.0000 0.15060  0.68680  0.77460  Biso   1.000  C
  C6       1.0000 0.84940  0.31320  0.22540  Biso   1.000  C
  H1       1.0000 0.04970  0.74490  0.75520  Biso   1.000  H
  H2       1.0000 0.95030  0.25510  0.24480  Biso   1.000  H
  C7       1.0000 0.20880  0.72000  0.85960  Biso   1.000  C
  C8       1.0000 0.79120  0.28000  0.14040  Biso   1.000  C
  H3       1.0000 0.14820  0.80020  0.89640  Biso   1.000  H
  H4       1.0000 0.85180  0.19980  0.10360  Biso   1.000  H
  C9       1.0000 0.35600  0.63290  0.88810  Biso   1.000  C
  C10      1.0000 0.64400  0.36710  0.11190  Biso   1.000  C
  H5       1.0000 0.39360  0.65170  0.94660  Biso   1.000  H
  H6       1.0000 0.60640  0.34830  0.05340  Biso   1.000  H
  C11      1.0000 0.44860  0.51770  0.83030  Biso   1.000  C
  C12      1.0000 0.55140  0.48230  0.16970  Biso   1.000  C
  H7       1.0000 0.54970  0.46050  0.85010  Biso   1.000  H
  H8       1.0000 0.45030  0.53950  0.14990  Biso   1.000  H
  C13      1.0000 0.39720  0.48340  0.74370  Biso   1.000  C
  C14      1.0000 0.60280  0.51660  0.25630  Biso   1.000  C
  C15      1.0000 0.68680  0.25610  0.74660  Biso   1.000  C
  C16      1.0000 0.31320  0.74390  0.25340  Biso   1.000  C
  C17      1.0000 0.65870  0.16900  0.82650  Biso   1.000  C
  C18      1.0000 0.34130  0.83100  0.17350  Biso   1.000  C
  H9       1.0000 0.55690  0.15390  0.83830  Biso   1.000  H
  H10      1.0000 0.44310  0.84610  0.16170  Biso   1.000  H
  C19      1.0000 0.78110  0.10440  0.88900  Biso   1.000  C
  C20      1.0000 0.21890  0.89560  0.11100  Biso   1.000  C
  H11      1.0000 0.76070  0.04790  0.94340  Biso   1.000  H
  H12      1.0000 0.23930  0.95210  0.05660  Biso   1.000  H
  C21      1.0000 0.93330  0.12540  0.86920  Biso   1.000  C
  C22      1.0000 0.06670  0.87460  0.13080  Biso   1.000  C
  H13      1.0000 0.01530  0.08340  0.91110  Biso   1.000  H
  H14      1.0000 0.98470  0.91660  0.08890  Biso   1.000  H
  C23      1.0000 0.96500  0.20740  0.78860  Biso   1.000  C
  C24      1.0000 0.03500  0.79260  0.21140  Biso   1.000  C
  H15      1.0000 0.06940  0.21870  0.77550  Biso   1.000  H
  H16      1.0000 0.93060  0.78130  0.22450  Biso   1.000  H
  C25      1.0000 0.84320  0.27390  0.72620  Biso   1.000  C
  C26      1.0000 0.15680  0.72610  0.27380  Biso   1.000  C
  C27      1.0000 0.89140  0.36120  0.63980  Biso   1.000  C
  C28      1.0000 0.10860  0.63880  0.36020  Biso   1.000  C
  O9       1.0000 0.64610  0.77510  0.59790  Biso   1.000  O
  O10      1.0000 0.35390  0.22490  0.40210  Biso   1.000  O
  N1       1.0000 0.37200  0.91040  0.60360  Biso   1.000  N
  N2       1.0000 0.62800  0.08960  0.39640  Biso   1.000  N
  C29      1.0000 0.50060  0.79630  0.58070  Biso   1.000  C
  C30      1.0000 0.49940  0.20370  0.41930  Biso   1.000  C
  H17      1.0000 0.48160  0.72860  0.55040  Biso   1.000  H
  H18      1.0000 0.51840  0.27140  0.44960  Biso   1.000  H
  C31      1.0000 0.20520  0.93230  0.57960  Biso   1.000  C
  C32      1.0000 0.79480  0.06770  0.42040  Biso   1.000  C
  H19      1.0000 0.17800  0.00200  0.52810  Biso   1.000  H
  H20      1.0000 0.82200  0.99800  0.47190  Biso   1.000  H
  H21      1.0000 0.12040  0.95740  0.64390  Biso   1.000  H
  H22      1.0000 0.87960  0.04260  0.35610  Biso   1.000  H
  H23      1.0000 0.20680  0.85220  0.55080  Biso   1.000  H
  H24      1.0000 0.79320  0.14780  0.44920  Biso   1.000  H
  C33      1.0000 0.39290  0.01860  0.65150  Biso   1.000  C
  C34      1.0000 0.60710  0.98140  0.34850  Biso   1.000  C
  H25      1.0000 0.35170  0.02050  0.72730  Biso   1.000  H
  H26      1.0000 0.64830  0.97950  0.27270  Biso   1.000  H
  H27      1.0000 0.32910  0.10090  0.62110  Biso   1.000  H
  H28      1.0000 0.67090  0.89910  0.37890  Biso   1.000  H
  H29      1.0000 0.51190  0.00660  0.63810  Biso   1.000  H
  H30      1.0000 0.48810  0.99340  0.36190  Biso   1.000  H
  O11      1.0000 0.72050  0.86320  0.05860  Biso   1.000  O
  O12      1.0000 0.27950  0.13680  0.94140  Biso   1.000  O
  N3       1.0000 0.74450  0.71300  0.93500  Biso   1.000  N
  N4       1.0000 0.25550  0.28700  0.06500  Biso   1.000  N
  C35      1.0000 0.76880  0.74730  0.02570  Biso   1.000  C
  C36      1.0000 0.23120  0.25270  0.97430  Biso   1.000  C
  H31      1.0000 0.82650  0.67970  0.06850  Biso   1.000  H
  H32      1.0000 0.17350  0.32030  0.93150  Biso   1.000  H
  C37      1.0000 0.81800  0.57370  0.90100  Biso   1.000  C
  C38      1.0000 0.18200  0.42630  0.09900  Biso   1.000  C
  H33      1.0000 0.92760  0.55600  0.85560  Biso   1.000  H
  H34      1.0000 0.07240  0.44400  0.14440  Biso   1.000  H
  H35      1.0000 0.74320  0.55570  0.86240  Biso   1.000  H
  H36      1.0000 0.25680  0.44430  0.13760  Biso   1.000  H
  H37      1.0000 0.83130  0.51800  0.96280  Biso   1.000  H
  H38      1.0000 0.16870  0.48200  0.03720  Biso   1.000  H
  C39      1.0000 0.65240  0.81090  0.86410  Biso   1.000  C
  C40      1.0000 0.34760  0.18910  0.13590  Biso   1.000  C
  H39      1.0000 0.56720  0.88490  0.90550  Biso   1.000  H
  H40      1.0000 0.43280  0.11510  0.09450  Biso   1.000  H
  H41      1.0000 0.59790  0.77170  0.82450  Biso   1.000  H
  H42      1.0000 0.40210  0.22830  0.17550  Biso   1.000  H
  H43      1.0000 0.73100  0.84100  0.81530  Biso   1.000  H
  H44      1.0000 0.26900  0.15900  0.18470  Biso   1.000  H
