data_image0
_cell_length_a       13.6343
_cell_length_b       11.9334
_cell_length_c       13.7862
_cell_angle_alpha    90
_cell_angle_beta     112.796
_cell_angle_gamma    90

_symmetry_space_group_name_H-M    "P 1"
_symmetry_int_tables_number       1

loop_
  _symmetry_equiv_pos_as_xyz
  'x, y, z'

loop_
  _atom_site_label
  _atom_site_occupancy
  _atom_site_fract_x
  _atom_site_fract_y
  _atom_site_fract_z
  _atom_site_thermal_displace_type
  _atom_site_B_iso_or_equiv
  _atom_site_type_symbol
  Cu1      1.0000 0.92809  0.10362  0.60331  Biso   1.000  Cu
  Cu2      1.0000 0.57191  0.60362  0.89669  Biso   1.000  Cu
  Cu3      1.0000 0.07191  0.89638  0.39669  Biso   1.000  Cu
  Cu4      1.0000 0.42809  0.39638  0.10331  Biso   1.000  Cu
  N1       1.0000 0.79821  0.07686  0.67068  Biso   1.000  N
  N2       1.0000 0.70179  0.57686  0.82932  Biso   1.000  N
  N3       1.0000 0.20179  0.92314  0.32932  Biso   1.000  N
  N4       1.0000 0.29821  0.42314  0.17068  Biso   1.000  N
  N5       1.0000 0.54844  0.63770  0.50172  Biso   1.000  N
  N6       1.0000 0.95156  0.13770  0.99828  Biso   1.000  N
  N7       1.0000 0.45156  0.36230  0.49828  Biso   1.000  N
  N8       1.0000 0.04844  0.86230  0.00172  Biso   1.000  N
  S1       1.0000 0.49710  0.98075  0.71991  Biso   1.000  S
  S2       1.0000 0.00290  0.48075  0.78009  Biso   1.000  S
  S3       1.0000 0.50290  0.01925  0.28009  Biso   1.000  S
  S4       1.0000 0.99710  0.51925  0.21991  Biso   1.000  S
  S5       1.0000 0.83233  0.73236  0.41832  Biso   1.000  S
  S6       1.0000 0.66767  0.23236  0.08168  Biso   1.000  S
  S7       1.0000 0.16767  0.26764  0.58168  Biso   1.000  S
  S8       1.0000 0.33233  0.76764  0.91832  Biso   1.000  S
  C1       1.0000 0.62074  0.95036  0.95455  Biso   1.000  C
  C2       1.0000 0.87926  0.45036  0.54545  Biso   1.000  C
  C3       1.0000 0.37926  0.04964  0.04545  Biso   1.000  C
  C4       1.0000 0.12074  0.54964  0.45455  Biso   1.000  C
  H1       1.0000 0.65050  0.93270  0.02990  Biso   1.000  H
  H2       1.0000 0.84950  0.43270  0.47010  Biso   1.000  H
  H3       1.0000 0.34950  0.06730  0.97010  Biso   1.000  H
  H4       1.0000 0.15050  0.56730  0.52990  Biso   1.000  H
  H5       1.0000 0.56170  0.00330  0.93940  Biso   1.000  H
  H6       1.0000 0.93830  0.50330  0.56060  Biso   1.000  H
  H7       1.0000 0.43830  0.99670  0.06060  Biso   1.000  H
  H8       1.0000 0.06170  0.49670  0.43940  Biso   1.000  H
  H9       1.0000 0.67600  0.98410  0.93490  Biso   1.000  H
  H10      1.0000 0.82400  0.48410  0.56510  Biso   1.000  H
  H11      1.0000 0.32400  0.01590  0.06510  Biso   1.000  H
  H12      1.0000 0.17600  0.51590  0.43490  Biso   1.000  H
  C5       1.0000 0.58096  0.84482  0.89246  Biso   1.000  C
  C6       1.0000 0.91904  0.34482  0.60754  Biso   1.000  C
  C7       1.0000 0.41904  0.15518  0.10754  Biso   1.000  C
  C8       1.0000 0.08096  0.65518  0.39246  Biso   1.000  C
  C9       1.0000 0.51896  0.84879  0.78295  Biso   1.000  C
  C10      1.0000 0.98104  0.34879  0.71705  Biso   1.000  C
  C11      1.0000 0.48104  0.15121  0.21705  Biso   1.000  C
  C12      1.0000 0.01896  0.65121  0.28295  Biso   1.000  C
  C13      1.0000 0.46108  0.75427  0.72614  Biso   1.000  C
  C14      1.0000 0.03892  0.25427  0.77386  Biso   1.000  C
  C15      1.0000 0.53892  0.24573  0.27386  Biso   1.000  C
  C16      1.0000 0.96108  0.74573  0.22614  Biso   1.000  C
  C17      1.0000 0.38102  0.76517  0.61500  Biso   1.000  C
  C18      1.0000 0.11898  0.26517  0.88500  Biso   1.000  C
  C19      1.0000 0.61898  0.23483  0.38500  Biso   1.000  C
  C20      1.0000 0.88102  0.73483  0.11500  Biso   1.000  C
  H13      1.0000 0.37830  0.69510  0.57700  Biso   1.000  H
  H14      1.0000 0.12170  0.19510  0.92300  Biso   1.000  H
  H15      1.0000 0.62170  0.30490  0.42300  Biso   1.000  H
  H16      1.0000 0.87830  0.80490  0.07700  Biso   1.000  H
  H17      1.0000 0.40180  0.82670  0.57990  Biso   1.000  H
  H18      1.0000 0.09820  0.32670  0.92010  Biso   1.000  H
  H19      1.0000 0.59820  0.17330  0.42010  Biso   1.000  H
  H20      1.0000 0.90180  0.67330  0.07990  Biso   1.000  H
  H21      1.0000 0.31070  0.78090  0.61570  Biso   1.000  H
  H22      1.0000 0.18930  0.28090  0.88430  Biso   1.000  H
  H23      1.0000 0.68930  0.21910  0.38430  Biso   1.000  H
  H24      1.0000 0.81070  0.71910  0.11570  Biso   1.000  H
  C21      1.0000 0.61659  0.01340  0.70578  Biso   1.000  C
  C22      1.0000 0.88341  0.51340  0.79422  Biso   1.000  C
  C23      1.0000 0.38341  0.98660  0.29422  Biso   1.000  C
  C24      1.0000 0.11659  0.48660  0.20578  Biso   1.000  C
  C25      1.0000 0.70752  0.94709  0.74053  Biso   1.000  C
  C26      1.0000 0.79248  0.44709  0.75947  Biso   1.000  C
  C27      1.0000 0.29248  0.05291  0.25947  Biso   1.000  C
  C28      1.0000 0.20752  0.55291  0.24053  Biso   1.000  C
  H25      1.0000 0.70940  0.87880  0.77660  Biso   1.000  H
  H26      1.0000 0.79060  0.37880  0.72340  Biso   1.000  H
  H27      1.0000 0.29060  0.12120  0.22340  Biso   1.000  H
  H28      1.0000 0.20940  0.62120  0.27660  Biso   1.000  H
  C29      1.0000 0.79523  0.98230  0.72158  Biso   1.000  C
  C30      1.0000 0.70477  0.48230  0.77842  Biso   1.000  C
  C31      1.0000 0.20477  0.01770  0.27842  Biso   1.000  C
  C32      1.0000 0.29523  0.51770  0.22158  Biso   1.000  C
  H29      1.0000 0.85710  0.93650  0.74620  Biso   1.000  H
  H30      1.0000 0.64290  0.43650  0.75380  Biso   1.000  H
  H31      1.0000 0.14290  0.06350  0.25380  Biso   1.000  H
  H32      1.0000 0.35710  0.56350  0.24620  Biso   1.000  H
  C33      1.0000 0.71134  0.14180  0.64095  Biso   1.000  C
  C34      1.0000 0.78866  0.64180  0.85905  Biso   1.000  C
  C35      1.0000 0.28866  0.85820  0.35905  Biso   1.000  C
  C36      1.0000 0.21134  0.35820  0.14095  Biso   1.000  C
  H33      1.0000 0.71250  0.21060  0.60680  Biso   1.000  H
  H34      1.0000 0.78750  0.71060  0.89320  Biso   1.000  H
  H35      1.0000 0.28750  0.78940  0.39320  Biso   1.000  H
  H36      1.0000 0.21250  0.28940  0.10680  Biso   1.000  H
  C37      1.0000 0.62036  0.11496  0.65685  Biso   1.000  C
  C38      1.0000 0.87964  0.61496  0.84315  Biso   1.000  C
  C39      1.0000 0.37964  0.88504  0.34315  Biso   1.000  C
  C40      1.0000 0.12036  0.38504  0.15685  Biso   1.000  C
  H37      1.0000 0.56130  0.16460  0.63490  Biso   1.000  H
  H38      1.0000 0.93870  0.66460  0.86510  Biso   1.000  H
  H39      1.0000 0.43870  0.83540  0.36510  Biso   1.000  H
  H40      1.0000 0.06130  0.33540  0.13490  Biso   1.000  H
  C41      1.0000 0.00496  0.75958  0.63943  Biso   1.000  C
  C42      1.0000 0.49504  0.25958  0.86057  Biso   1.000  C
  C43      1.0000 0.99504  0.24042  0.36057  Biso   1.000  C
  C44      1.0000 0.50496  0.74042  0.13943  Biso   1.000  C
  H41      1.0000 0.05390  0.77690  0.71140  Biso   1.000  H
  H42      1.0000 0.44610  0.27690  0.78860  Biso   1.000  H
  H43      1.0000 0.94610  0.22310  0.28860  Biso   1.000  H
  H44      1.0000 0.55390  0.72310  0.21140  Biso   1.000  H
  H45      1.0000 0.04460  0.72560  0.60090  Biso   1.000  H
  H46      1.0000 0.45540  0.22560  0.89910  Biso   1.000  H
  H47      1.0000 0.95540  0.27440  0.39910  Biso   1.000  H
  H48      1.0000 0.54460  0.77440  0.10090  Biso   1.000  H
  H49      1.0000 0.95050  0.70710  0.64130  Biso   1.000  H
  H50      1.0000 0.54950  0.20710  0.85870  Biso   1.000  H
  H51      1.0000 0.04950  0.29290  0.35870  Biso   1.000  H
  H52      1.0000 0.45050  0.79290  0.14130  Biso   1.000  H
  C45      1.0000 0.95256  0.86573  0.58507  Biso   1.000  C
  C46      1.0000 0.54744  0.36573  0.91493  Biso   1.000  C
  C47      1.0000 0.04744  0.13427  0.41493  Biso   1.000  C
  C48      1.0000 0.45256  0.63427  0.08507  Biso   1.000  C
  C49      1.0000 0.87537  0.86313  0.48074  Biso   1.000  C
  C50      1.0000 0.62463  0.36313  0.01926  Biso   1.000  C
  C51      1.0000 0.12463  0.13687  0.51926  Biso   1.000  C
  C52      1.0000 0.37537  0.63687  0.98074  Biso   1.000  C
  C53      1.0000 0.82934  0.96138  0.42246  Biso   1.000  C
  C54      1.0000 0.67066  0.46138  0.07754  Biso   1.000  C
  C55      1.0000 0.17066  0.03862  0.57754  Biso   1.000  C
  C56      1.0000 0.32934  0.53862  0.92246  Biso   1.000  C
  C57      1.0000 0.75960  0.95415  0.30718  Biso   1.000  C
  C58      1.0000 0.74040  0.45415  0.19282  Biso   1.000  C
  C59      1.0000 0.24040  0.04585  0.69282  Biso   1.000  C
  C60      1.0000 0.25960  0.54585  0.80718  Biso   1.000  C
  H53      1.0000 0.73610  0.02950  0.27970  Biso   1.000  H
  H54      1.0000 0.76390  0.52950  0.22030  Biso   1.000  H
  H55      1.0000 0.26390  0.97050  0.72030  Biso   1.000  H
  H56      1.0000 0.23610  0.47050  0.77970  Biso   1.000  H
  H57      1.0000 0.69740  0.90740  0.29770  Biso   1.000  H
  H58      1.0000 0.80260  0.40740  0.20230  Biso   1.000  H
  H59      1.0000 0.30260  0.09260  0.70230  Biso   1.000  H
  H60      1.0000 0.19740  0.59260  0.79770  Biso   1.000  H
  H61      1.0000 0.79990  0.92080  0.26910  Biso   1.000  H
  H62      1.0000 0.70010  0.42080  0.23090  Biso   1.000  H
  H63      1.0000 0.20010  0.07920  0.73090  Biso   1.000  H
  H64      1.0000 0.29990  0.57920  0.76910  Biso   1.000  H
  C61      1.0000 0.72228  0.70053  0.45136  Biso   1.000  C
  C62      1.0000 0.77772  0.20053  0.04864  Biso   1.000  C
  C63      1.0000 0.27772  0.29947  0.54864  Biso   1.000  C
  C64      1.0000 0.22228  0.79947  0.95136  Biso   1.000  C
  C65      1.0000 0.69604  0.76001  0.52402  Biso   1.000  C
  C66      1.0000 0.80396  0.26001  0.97598  Biso   1.000  C
  C67      1.0000 0.30396  0.23999  0.47598  Biso   1.000  C
  C68      1.0000 0.19604  0.73999  0.02402  Biso   1.000  C
  H65      1.0000 0.73660  0.82350  0.55860  Biso   1.000  H
  H66      1.0000 0.76340  0.32350  0.94140  Biso   1.000  H
  H67      1.0000 0.26340  0.17650  0.44140  Biso   1.000  H
  H68      1.0000 0.23660  0.67650  0.05860  Biso   1.000  H
  C69      1.0000 0.60977  0.72542  0.54550  Biso   1.000  C
  C70      1.0000 0.89023  0.22542  0.95450  Biso   1.000  C
  C71      1.0000 0.39023  0.27458  0.45450  Biso   1.000  C
  C72      1.0000 0.10977  0.77458  0.04550  Biso   1.000  C
  H69      1.0000 0.59300  0.76760  0.59550  Biso   1.000  H
  H70      1.0000 0.90700  0.26760  0.90450  Biso   1.000  H
  H71      1.0000 0.40700  0.23240  0.40450  Biso   1.000  H
  H72      1.0000 0.09300  0.73240  0.09550  Biso   1.000  H
  C73      1.0000 0.57480  0.58084  0.43193  Biso   1.000  C
  C74      1.0000 0.92520  0.08084  0.06807  Biso   1.000  C
  C75      1.0000 0.42520  0.41916  0.56807  Biso   1.000  C
  C76      1.0000 0.07480  0.91916  0.93193  Biso   1.000  C
  H73      1.0000 0.53310  0.51720  0.39950  Biso   1.000  H
  H74      1.0000 0.96690  0.01720  0.10050  Biso   1.000  H
  H75      1.0000 0.46690  0.48280  0.60050  Biso   1.000  H
  H76      1.0000 0.03310  0.98280  0.89950  Biso   1.000  H
  C77      1.0000 0.65862  0.60836  0.40366  Biso   1.000  C
  C78      1.0000 0.84138  0.10836  0.09634  Biso   1.000  C
  C79      1.0000 0.34138  0.39164  0.59634  Biso   1.000  C
  C80      1.0000 0.15862  0.89164  0.90366  Biso   1.000  C
  H77      1.0000 0.67270  0.56530  0.35260  Biso   1.000  H
  H78      1.0000 0.82730  0.06530  0.14740  Biso   1.000  H
  H79      1.0000 0.32730  0.43470  0.64740  Biso   1.000  H
  H80      1.0000 0.17270  0.93470  0.85260  Biso   1.000  H
  O1       1.0000 0.60775  0.75541  0.94557  Biso   1.000  O
  O2       1.0000 0.89225  0.25541  0.55443  Biso   1.000  O
  O3       1.0000 0.39225  0.24459  0.05443  Biso   1.000  O
  O4       1.0000 0.10775  0.74459  0.44557  Biso   1.000  O
  O5       1.0000 0.46810  0.65699  0.76455  Biso   1.000  O
  O6       1.0000 0.03190  0.15699  0.73545  Biso   1.000  O
  O7       1.0000 0.53190  0.34301  0.23545  Biso   1.000  O
  O8       1.0000 0.96810  0.84301  0.26455  Biso   1.000  O
  O9       1.0000 0.98377  0.95416  0.63939  Biso   1.000  O
  O10      1.0000 0.51623  0.45416  0.86061  Biso   1.000  O
  O11      1.0000 0.01623  0.04584  0.36061  Biso   1.000  O
  O12      1.0000 0.48377  0.54584  0.13939  Biso   1.000  O
  O13      1.0000 0.84461  0.05929  0.46055  Biso   1.000  O
  O14      1.0000 0.65539  0.55929  0.03945  Biso   1.000  O
  O15      1.0000 0.15539  0.94071  0.53945  Biso   1.000  O
  O16      1.0000 0.34461  0.44071  0.96055  Biso   1.000  O
