data_image0
_cell_length_a       11.0421
_cell_length_b       14.8315
_cell_length_c       17.5303
_cell_angle_alpha    90
_cell_angle_beta     102.19
_cell_angle_gamma    90

_symmetry_space_group_name_H-M    "P 1"
_symmetry_int_tables_number       1

loop_
  _symmetry_equiv_pos_as_xyz
  'x, y, z'

loop_
  _atom_site_label
  _atom_site_occupancy
  _atom_site_fract_x
  _atom_site_fract_y
  _atom_site_fract_z
  _atom_site_thermal_displace_type
  _atom_site_B_iso_or_equiv
  _atom_site_type_symbol
  O1       1.0000 0.34040  0.81830  0.48260  Biso   1.000  O
  O2       1.0000 0.84040  0.31830  0.48260  Biso   1.000  O
  O3       1.0000 0.15960  0.81830  0.01740  Biso   1.000  O
  O4       1.0000 0.65960  0.31830  0.01740  Biso   1.000  O
  O5       1.0000 0.65960  0.18170  0.51740  Biso   1.000  O
  O6       1.0000 0.15960  0.68170  0.51740  Biso   1.000  O
  O7       1.0000 0.84040  0.18170  0.98260  Biso   1.000  O
  O8       1.0000 0.34040  0.68170  0.98260  Biso   1.000  O
  Cu1      1.0000 0.50000  0.28563  0.75000  Biso   1.000  Cu
  Cu2      1.0000 0.00000  0.78563  0.75000  Biso   1.000  Cu
  Cu3      1.0000 0.00000  0.28563  0.75000  Biso   1.000  Cu
  Cu4      1.0000 0.50000  0.78563  0.75000  Biso   1.000  Cu
  Cu5      1.0000 0.50000  0.71437  0.25000  Biso   1.000  Cu
  Cu6      1.0000 0.00000  0.21437  0.25000  Biso   1.000  Cu
  Cu7      1.0000 0.00000  0.71437  0.25000  Biso   1.000  Cu
  Cu8      1.0000 0.50000  0.21437  0.25000  Biso   1.000  Cu
  N1       1.0000 0.07560  0.88530  0.68330  Biso   1.000  N
  N2       1.0000 0.57560  0.38530  0.68330  Biso   1.000  N
  N3       1.0000 0.42440  0.88530  0.81670  Biso   1.000  N
  N4       1.0000 0.92440  0.38530  0.81670  Biso   1.000  N
  N5       1.0000 0.92440  0.11470  0.31670  Biso   1.000  N
  N6       1.0000 0.42440  0.61470  0.31670  Biso   1.000  N
  N7       1.0000 0.57560  0.11470  0.18330  Biso   1.000  N
  N8       1.0000 0.07560  0.61470  0.18330  Biso   1.000  N
  S1       1.0000 0.26403  0.07379  0.53961  Biso   1.000  S
  S2       1.0000 0.76403  0.57379  0.53961  Biso   1.000  S
  S3       1.0000 0.23597  0.07379  0.96039  Biso   1.000  S
  S4       1.0000 0.73597  0.57379  0.96039  Biso   1.000  S
  S5       1.0000 0.73597  0.92621  0.46039  Biso   1.000  S
  S6       1.0000 0.23597  0.42621  0.46039  Biso   1.000  S
  S7       1.0000 0.76403  0.92621  0.03961  Biso   1.000  S
  S8       1.0000 0.26403  0.42621  0.03961  Biso   1.000  S
  O9       1.0000 0.55260  0.18050  0.68200  Biso   1.000  O
  O10      1.0000 0.05260  0.68050  0.68200  Biso   1.000  O
  O11      1.0000 0.94740  0.18050  0.81800  Biso   1.000  O
  O12      1.0000 0.44740  0.68050  0.81800  Biso   1.000  O
  O13      1.0000 0.44740  0.81950  0.31800  Biso   1.000  O
  O14      1.0000 0.94740  0.31950  0.31800  Biso   1.000  O
  O15      1.0000 0.05260  0.81950  0.18200  Biso   1.000  O
  O16      1.0000 0.55260  0.31950  0.18200  Biso   1.000  O
  O17      1.0000 0.34170  0.28618  0.67579  Biso   1.000  O
  O18      1.0000 0.84170  0.78618  0.67579  Biso   1.000  O
  O19      1.0000 0.15830  0.28618  0.82421  Biso   1.000  O
  O20      1.0000 0.65830  0.78618  0.82421  Biso   1.000  O
  O21      1.0000 0.65830  0.71382  0.32421  Biso   1.000  O
  O22      1.0000 0.15830  0.21382  0.32421  Biso   1.000  O
  O23      1.0000 0.84170  0.71382  0.17579  Biso   1.000  O
  O24      1.0000 0.34170  0.21382  0.17579  Biso   1.000  O
  C1       1.0000 0.53330  0.04040  0.61650  Biso   1.000  C
  C2       1.0000 0.03330  0.54040  0.61650  Biso   1.000  C
  C3       1.0000 0.96670  0.04040  0.88350  Biso   1.000  C
  C4       1.0000 0.46670  0.54040  0.88350  Biso   1.000  C
  C5       1.0000 0.46670  0.95960  0.38350  Biso   1.000  C
  C6       1.0000 0.96670  0.45960  0.38350  Biso   1.000  C
  C7       1.0000 0.03330  0.95960  0.11650  Biso   1.000  C
  C8       1.0000 0.53330  0.45960  0.11650  Biso   1.000  C
  H1       1.0000 0.61550  0.03160  0.64990  Biso   1.000  H
  H2       1.0000 0.11550  0.53160  0.64990  Biso   1.000  H
  H3       1.0000 0.88450  0.03160  0.85010  Biso   1.000  H
  H4       1.0000 0.38450  0.53160  0.85010  Biso   1.000  H
  H5       1.0000 0.38450  0.96840  0.35010  Biso   1.000  H
  H6       1.0000 0.88450  0.46840  0.35010  Biso   1.000  H
  H7       1.0000 0.11550  0.96840  0.14990  Biso   1.000  H
  H8       1.0000 0.61550  0.46840  0.14990  Biso   1.000  H
  H9       1.0000 0.54020  0.04180  0.56170  Biso   1.000  H
  H10      1.0000 0.04020  0.54180  0.56170  Biso   1.000  H
  H11      1.0000 0.95980  0.04180  0.93830  Biso   1.000  H
  H12      1.0000 0.45980  0.54180  0.93830  Biso   1.000  H
  H13      1.0000 0.45980  0.95820  0.43830  Biso   1.000  H
  H14      1.0000 0.95980  0.45820  0.43830  Biso   1.000  H
  H15      1.0000 0.04020  0.95820  0.06170  Biso   1.000  H
  H16      1.0000 0.54020  0.45820  0.06170  Biso   1.000  H
  H17      1.0000 0.47880  0.99070  0.62450  Biso   1.000  H
  H18      1.0000 0.97880  0.49070  0.62450  Biso   1.000  H
  H19      1.0000 0.02120  0.99070  0.87550  Biso   1.000  H
  H20      1.0000 0.52120  0.49070  0.87550  Biso   1.000  H
  H21      1.0000 0.52120  0.00930  0.37550  Biso   1.000  H
  H22      1.0000 0.02120  0.50930  0.37550  Biso   1.000  H
  H23      1.0000 0.97880  0.00930  0.12450  Biso   1.000  H
  H24      1.0000 0.47880  0.50930  0.12450  Biso   1.000  H
  C9       1.0000 0.47930  0.12890  0.63730  Biso   1.000  C
  C10      1.0000 0.97930  0.62890  0.63730  Biso   1.000  C
  C11      1.0000 0.02070  0.12890  0.86270  Biso   1.000  C
  C12      1.0000 0.52070  0.62890  0.86270  Biso   1.000  C
  C13      1.0000 0.52070  0.87110  0.36270  Biso   1.000  C
  C14      1.0000 0.02070  0.37110  0.36270  Biso   1.000  C
  C15      1.0000 0.97930  0.87110  0.13730  Biso   1.000  C
  C16      1.0000 0.47930  0.37110  0.13730  Biso   1.000  C
  C17      1.0000 0.35200  0.14930  0.60680  Biso   1.000  C
  C18      1.0000 0.85200  0.64930  0.60680  Biso   1.000  C
  C19      1.0000 0.14800  0.14930  0.89320  Biso   1.000  C
  C20      1.0000 0.64800  0.64930  0.89320  Biso   1.000  C
  C21      1.0000 0.64800  0.85070  0.39320  Biso   1.000  C
  C22      1.0000 0.14800  0.35070  0.39320  Biso   1.000  C
  C23      1.0000 0.85200  0.85070  0.10680  Biso   1.000  C
  C24      1.0000 0.35200  0.35070  0.10680  Biso   1.000  C
  C25      1.0000 0.29190  0.22700  0.62720  Biso   1.000  C
  C26      1.0000 0.79190  0.72700  0.62720  Biso   1.000  C
  C27      1.0000 0.20810  0.22700  0.87280  Biso   1.000  C
  C28      1.0000 0.70810  0.72700  0.87280  Biso   1.000  C
  C29      1.0000 0.70810  0.77300  0.37280  Biso   1.000  C
  C30      1.0000 0.20810  0.27300  0.37280  Biso   1.000  C
  C31      1.0000 0.79190  0.77300  0.12720  Biso   1.000  C
  C32      1.0000 0.29190  0.27300  0.12720  Biso   1.000  C
  C33      1.0000 0.15860  0.24490  0.59070  Biso   1.000  C
  C34      1.0000 0.65860  0.74490  0.59070  Biso   1.000  C
  C35      1.0000 0.34140  0.24490  0.90930  Biso   1.000  C
  C36      1.0000 0.84140  0.74490  0.90930  Biso   1.000  C
  C37      1.0000 0.84140  0.75510  0.40930  Biso   1.000  C
  C38      1.0000 0.34140  0.25510  0.40930  Biso   1.000  C
  C39      1.0000 0.65860  0.75510  0.09070  Biso   1.000  C
  C40      1.0000 0.15860  0.25510  0.09070  Biso   1.000  C
  H25      1.0000 0.13510  0.30470  0.60660  Biso   1.000  H
  H26      1.0000 0.63510  0.80470  0.60660  Biso   1.000  H
  H27      1.0000 0.36490  0.30470  0.89340  Biso   1.000  H
  H28      1.0000 0.86490  0.80470  0.89340  Biso   1.000  H
  H29      1.0000 0.86490  0.69530  0.39340  Biso   1.000  H
  H30      1.0000 0.36490  0.19530  0.39340  Biso   1.000  H
  H31      1.0000 0.63510  0.69530  0.10660  Biso   1.000  H
  H32      1.0000 0.13510  0.19530  0.10660  Biso   1.000  H
  H33      1.0000 0.10640  0.19900  0.60790  Biso   1.000  H
  H34      1.0000 0.60640  0.69900  0.60790  Biso   1.000  H
  H35      1.0000 0.39360  0.19900  0.89210  Biso   1.000  H
  H36      1.0000 0.89360  0.69900  0.89210  Biso   1.000  H
  H37      1.0000 0.89360  0.80100  0.39210  Biso   1.000  H
  H38      1.0000 0.39360  0.30100  0.39210  Biso   1.000  H
  H39      1.0000 0.60640  0.80100  0.10790  Biso   1.000  H
  H40      1.0000 0.10640  0.30100  0.10790  Biso   1.000  H
  H41      1.0000 0.14710  0.24280  0.53380  Biso   1.000  H
  H42      1.0000 0.64710  0.74280  0.53380  Biso   1.000  H
  H43      1.0000 0.35290  0.24280  0.96620  Biso   1.000  H
  H44      1.0000 0.85290  0.74280  0.96620  Biso   1.000  H
  H45      1.0000 0.85290  0.75720  0.46620  Biso   1.000  H
  H46      1.0000 0.35290  0.25720  0.46620  Biso   1.000  H
  H47      1.0000 0.64710  0.75720  0.03380  Biso   1.000  H
  H48      1.0000 0.14710  0.25720  0.03380  Biso   1.000  H
  C41      1.0000 0.19210  0.00370  0.59770  Biso   1.000  C
  C42      1.0000 0.69210  0.50370  0.59770  Biso   1.000  C
  C43      1.0000 0.30790  0.00370  0.90230  Biso   1.000  C
  C44      1.0000 0.80790  0.50370  0.90230  Biso   1.000  C
  C45      1.0000 0.80790  0.99630  0.40230  Biso   1.000  C
  C46      1.0000 0.30790  0.49630  0.40230  Biso   1.000  C
  C47      1.0000 0.69210  0.99630  0.09770  Biso   1.000  C
  C48      1.0000 0.19210  0.49630  0.09770  Biso   1.000  C
  C49      1.0000 0.21150  0.00980  0.67870  Biso   1.000  C
  C50      1.0000 0.71150  0.50980  0.67870  Biso   1.000  C
  C51      1.0000 0.28850  0.00980  0.82130  Biso   1.000  C
  C52      1.0000 0.78850  0.50980  0.82130  Biso   1.000  C
  C53      1.0000 0.78850  0.99020  0.32130  Biso   1.000  C
  C54      1.0000 0.28850  0.49020  0.32130  Biso   1.000  C
  C55      1.0000 0.71150  0.99020  0.17870  Biso   1.000  C
  C56      1.0000 0.21150  0.49020  0.17870  Biso   1.000  C
  H49      1.0000 0.26470  0.05480  0.70610  Biso   1.000  H
  H50      1.0000 0.76470  0.55480  0.70610  Biso   1.000  H
  H51      1.0000 0.23530  0.05480  0.79390  Biso   1.000  H
  H52      1.0000 0.73530  0.55480  0.79390  Biso   1.000  H
  H53      1.0000 0.73530  0.94520  0.29390  Biso   1.000  H
  H54      1.0000 0.23530  0.44520  0.29390  Biso   1.000  H
  H55      1.0000 0.76470  0.94520  0.20610  Biso   1.000  H
  H56      1.0000 0.26470  0.44520  0.20610  Biso   1.000  H
  C57      1.0000 0.15250  0.94980  0.71820  Biso   1.000  C
  C58      1.0000 0.65250  0.44980  0.71820  Biso   1.000  C
  C59      1.0000 0.34750  0.94980  0.78180  Biso   1.000  C
  C60      1.0000 0.84750  0.44980  0.78180  Biso   1.000  C
  C61      1.0000 0.84750  0.05020  0.28180  Biso   1.000  C
  C62      1.0000 0.34750  0.55020  0.28180  Biso   1.000  C
  C63      1.0000 0.65250  0.05020  0.21820  Biso   1.000  C
  C64      1.0000 0.15250  0.55020  0.21820  Biso   1.000  C
  H57      1.0000 0.16710  0.95430  0.77350  Biso   1.000  H
  H58      1.0000 0.66710  0.45430  0.77350  Biso   1.000  H
  H59      1.0000 0.33290  0.95430  0.72650  Biso   1.000  H
  H60      1.0000 0.83290  0.45430  0.72650  Biso   1.000  H
  H61      1.0000 0.83290  0.04570  0.22650  Biso   1.000  H
  H62      1.0000 0.33290  0.54570  0.22650  Biso   1.000  H
  H63      1.0000 0.66710  0.04570  0.27350  Biso   1.000  H
  H64      1.0000 0.16710  0.54570  0.27350  Biso   1.000  H
  C65      1.0000 0.05610  0.88130  0.60520  Biso   1.000  C
  C66      1.0000 0.55610  0.38130  0.60520  Biso   1.000  C
  C67      1.0000 0.44390  0.88130  0.89480  Biso   1.000  C
  C68      1.0000 0.94390  0.38130  0.89480  Biso   1.000  C
  C69      1.0000 0.94390  0.11870  0.39480  Biso   1.000  C
  C70      1.0000 0.44390  0.61870  0.39480  Biso   1.000  C
  C71      1.0000 0.55610  0.11870  0.10520  Biso   1.000  C
  C72      1.0000 0.05610  0.61870  0.10520  Biso   1.000  C
  H65      1.0000 0.00090  0.83660  0.57920  Biso   1.000  H
  H66      1.0000 0.50090  0.33660  0.57920  Biso   1.000  H
  H67      1.0000 0.49910  0.83660  0.92080  Biso   1.000  H
  H68      1.0000 0.99910  0.33660  0.92080  Biso   1.000  H
  H69      1.0000 0.99910  0.16340  0.42080  Biso   1.000  H
  H70      1.0000 0.49910  0.66340  0.42080  Biso   1.000  H
  H71      1.0000 0.50090  0.16340  0.07920  Biso   1.000  H
  H72      1.0000 0.00090  0.66340  0.07920  Biso   1.000  H
  C73      1.0000 0.11060  0.93760  0.56100  Biso   1.000  C
  C74      1.0000 0.61060  0.43760  0.56100  Biso   1.000  C
  C75      1.0000 0.38940  0.93760  0.93900  Biso   1.000  C
  C76      1.0000 0.88940  0.43760  0.93900  Biso   1.000  C
  C77      1.0000 0.88940  0.06240  0.43900  Biso   1.000  C
  C78      1.0000 0.38940  0.56240  0.43900  Biso   1.000  C
  C79      1.0000 0.61060  0.06240  0.06100  Biso   1.000  C
  C80      1.0000 0.11060  0.56240  0.06100  Biso   1.000  C
  H73      1.0000 0.09320  0.93180  0.50580  Biso   1.000  H
  H74      1.0000 0.59320  0.43180  0.50580  Biso   1.000  H
  H75      1.0000 0.40680  0.93180  0.99420  Biso   1.000  H
  H76      1.0000 0.90680  0.43180  0.99420  Biso   1.000  H
  H77      1.0000 0.90680  0.06820  0.49420  Biso   1.000  H
  H78      1.0000 0.40680  0.56820  0.49420  Biso   1.000  H
  H79      1.0000 0.59320  0.06820  0.00580  Biso   1.000  H
  H80      1.0000 0.09320  0.56820  0.00580  Biso   1.000  H
  C81      1.0000 0.31330  0.72500  0.63730  Biso   1.000  C
  C82      1.0000 0.81330  0.22500  0.63730  Biso   1.000  C
  C83      1.0000 0.18670  0.72500  0.86270  Biso   1.000  C
  C84      1.0000 0.68670  0.22500  0.86270  Biso   1.000  C
  C85      1.0000 0.68670  0.27500  0.36270  Biso   1.000  C
  C86      1.0000 0.18670  0.77500  0.36270  Biso   1.000  C
  C87      1.0000 0.81330  0.27500  0.13730  Biso   1.000  C
  C88      1.0000 0.31330  0.77500  0.13730  Biso   1.000  C
  H81      1.0000 0.22950  0.71970  0.65000  Biso   1.000  H
  H82      1.0000 0.72950  0.21970  0.65000  Biso   1.000  H
  H83      1.0000 0.27050  0.71970  0.85000  Biso   1.000  H
  H84      1.0000 0.77050  0.21970  0.85000  Biso   1.000  H
  H85      1.0000 0.77050  0.28030  0.35000  Biso   1.000  H
  H86      1.0000 0.27050  0.78030  0.35000  Biso   1.000  H
  H87      1.0000 0.72950  0.28030  0.15000  Biso   1.000  H
  H88      1.0000 0.22950  0.78030  0.15000  Biso   1.000  H
  Cl1      1.0000 0.39460  0.80980  0.69680  Biso   1.000  Cl
  Cl2      1.0000 0.89460  0.30980  0.69680  Biso   1.000  Cl
  Cl3      1.0000 0.10540  0.80980  0.80320  Biso   1.000  Cl
  Cl4      1.0000 0.60540  0.30980  0.80320  Biso   1.000  Cl
  Cl5      1.0000 0.60540  0.19020  0.30320  Biso   1.000  Cl
  Cl6      1.0000 0.10540  0.69020  0.30320  Biso   1.000  Cl
  Cl7      1.0000 0.89460  0.19020  0.19680  Biso   1.000  Cl
  Cl8      1.0000 0.39460  0.69020  0.19680  Biso   1.000  Cl
  Cl9      1.0000 0.38780  0.62120  0.65660  Biso   1.000  Cl
  Cl10     1.0000 0.88780  0.12120  0.65660  Biso   1.000  Cl
  Cl11     1.0000 0.11220  0.62120  0.84340  Biso   1.000  Cl
  Cl12     1.0000 0.61220  0.12120  0.84340  Biso   1.000  Cl
  Cl13     1.0000 0.61220  0.37880  0.34340  Biso   1.000  Cl
  Cl14     1.0000 0.11220  0.87880  0.34340  Biso   1.000  Cl
  Cl15     1.0000 0.88780  0.37880  0.15660  Biso   1.000  Cl
  Cl16     1.0000 0.38780  0.87880  0.15660  Biso   1.000  Cl
  Cl17     1.0000 0.29290  0.75560  0.53940  Biso   1.000  Cl
  Cl18     1.0000 0.79290  0.25560  0.53940  Biso   1.000  Cl
  Cl19     1.0000 0.20710  0.75560  0.96060  Biso   1.000  Cl
  Cl20     1.0000 0.70710  0.25560  0.96060  Biso   1.000  Cl
  Cl21     1.0000 0.70710  0.24440  0.46060  Biso   1.000  Cl
  Cl22     1.0000 0.20710  0.74440  0.46060  Biso   1.000  Cl
  Cl23     1.0000 0.79290  0.24440  0.03940  Biso   1.000  Cl
  Cl24     1.0000 0.29290  0.74440  0.03940  Biso   1.000  Cl
  C89      1.0000 0.35290  0.75220  0.66710  Biso   1.000  C
  C90      1.0000 0.85290  0.25220  0.66710  Biso   1.000  C
  C91      1.0000 0.14710  0.75220  0.83290  Biso   1.000  C
  C92      1.0000 0.64710  0.25220  0.83290  Biso   1.000  C
  C93      1.0000 0.64710  0.24780  0.33290  Biso   1.000  C
  C94      1.0000 0.14710  0.74780  0.33290  Biso   1.000  C
  C95      1.0000 0.85290  0.24780  0.16710  Biso   1.000  C
  C96      1.0000 0.35290  0.74780  0.16710  Biso   1.000  C
  H89      1.0000 0.26850  0.75780  0.67880  Biso   1.000  H
  H90      1.0000 0.76850  0.25780  0.67880  Biso   1.000  H
  H91      1.0000 0.23150  0.75780  0.82120  Biso   1.000  H
  H92      1.0000 0.73150  0.25780  0.82120  Biso   1.000  H
  H93      1.0000 0.73150  0.24220  0.32120  Biso   1.000  H
  H94      1.0000 0.23150  0.74220  0.32120  Biso   1.000  H
  H95      1.0000 0.76850  0.24220  0.17880  Biso   1.000  H
  H96      1.0000 0.26850  0.74220  0.17880  Biso   1.000  H
  Cl25     1.0000 0.34220  0.78230  0.56920  Biso   1.000  Cl
  Cl26     1.0000 0.84220  0.28230  0.56920  Biso   1.000  Cl
  Cl27     1.0000 0.15780  0.78230  0.93080  Biso   1.000  Cl
  Cl28     1.0000 0.65780  0.28230  0.93080  Biso   1.000  Cl
  Cl29     1.0000 0.65780  0.21770  0.43080  Biso   1.000  Cl
  Cl30     1.0000 0.15780  0.71770  0.43080  Biso   1.000  Cl
  Cl31     1.0000 0.84220  0.21770  0.06920  Biso   1.000  Cl
  Cl32     1.0000 0.34220  0.71770  0.06920  Biso   1.000  Cl
  Cl33     1.0000 0.45170  0.82520  0.72920  Biso   1.000  Cl
  Cl34     1.0000 0.95170  0.32520  0.72920  Biso   1.000  Cl
  Cl35     1.0000 0.04830  0.82520  0.77080  Biso   1.000  Cl
  Cl36     1.0000 0.54830  0.32520  0.77080  Biso   1.000  Cl
  Cl37     1.0000 0.54830  0.17480  0.27080  Biso   1.000  Cl
  Cl38     1.0000 0.04830  0.67480  0.27080  Biso   1.000  Cl
  Cl39     1.0000 0.95170  0.17480  0.22920  Biso   1.000  Cl
  Cl40     1.0000 0.45170  0.67480  0.22920  Biso   1.000  Cl
  Cl41     1.0000 0.39880  0.63990  0.68150  Biso   1.000  Cl
  Cl42     1.0000 0.89880  0.13990  0.68150  Biso   1.000  Cl
  Cl43     1.0000 0.10120  0.63990  0.81850  Biso   1.000  Cl
  Cl44     1.0000 0.60120  0.13990  0.81850  Biso   1.000  Cl
  Cl45     1.0000 0.60120  0.36010  0.31850  Biso   1.000  Cl
  Cl46     1.0000 0.10120  0.86010  0.31850  Biso   1.000  Cl
  Cl47     1.0000 0.89880  0.36010  0.18150  Biso   1.000  Cl
  Cl48     1.0000 0.39880  0.86010  0.18150  Biso   1.000  Cl
  C97      1.0000 0.37660  0.72250  0.68050  Biso   1.000  C
  C98      1.0000 0.87660  0.22250  0.68050  Biso   1.000  C
  C99      1.0000 0.12340  0.72250  0.81950  Biso   1.000  C
  C100     1.0000 0.62340  0.22250  0.81950  Biso   1.000  C
  C101     1.0000 0.62340  0.27750  0.31950  Biso   1.000  C
  C102     1.0000 0.12340  0.77750  0.31950  Biso   1.000  C
  C103     1.0000 0.87660  0.27750  0.18050  Biso   1.000  C
  C104     1.0000 0.37660  0.77750  0.18050  Biso   1.000  C
  H97      1.0000 0.31280  0.73150  0.71270  Biso   1.000  H
  H98      1.0000 0.81280  0.23150  0.71270  Biso   1.000  H
  H99      1.0000 0.18720  0.73150  0.78730  Biso   1.000  H
  H100     1.0000 0.68720  0.23150  0.78730  Biso   1.000  H
  H101     1.0000 0.68720  0.26850  0.28730  Biso   1.000  H
  H102     1.0000 0.18720  0.76850  0.28730  Biso   1.000  H
  H103     1.0000 0.81280  0.26850  0.21270  Biso   1.000  H
  H104     1.0000 0.31280  0.76850  0.21270  Biso   1.000  H
  Cl49     1.0000 0.52290  0.72690  0.74320  Biso   1.000  Cl
  Cl50     1.0000 0.02290  0.22690  0.74320  Biso   1.000  Cl
  Cl51     1.0000 0.97710  0.72690  0.75680  Biso   1.000  Cl
  Cl52     1.0000 0.47710  0.22690  0.75680  Biso   1.000  Cl
  Cl53     1.0000 0.47710  0.27310  0.25680  Biso   1.000  Cl
  Cl54     1.0000 0.97710  0.77310  0.25680  Biso   1.000  Cl
  Cl55     1.0000 0.02290  0.27310  0.24320  Biso   1.000  Cl
  Cl56     1.0000 0.52290  0.77310  0.24320  Biso   1.000  Cl
  Cl57     1.0000 0.36130  0.81020  0.61290  Biso   1.000  Cl
  Cl58     1.0000 0.86130  0.31020  0.61290  Biso   1.000  Cl
  Cl59     1.0000 0.13870  0.81020  0.88710  Biso   1.000  Cl
  Cl60     1.0000 0.63870  0.31020  0.88710  Biso   1.000  Cl
  Cl61     1.0000 0.63870  0.18980  0.38710  Biso   1.000  Cl
  Cl62     1.0000 0.13870  0.68980  0.38710  Biso   1.000  Cl
  Cl63     1.0000 0.86130  0.18980  0.11290  Biso   1.000  Cl
  Cl64     1.0000 0.36130  0.68980  0.11290  Biso   1.000  Cl
  Cl65     1.0000 0.35090  0.61720  0.63560  Biso   1.000  Cl
  Cl66     1.0000 0.85090  0.11720  0.63560  Biso   1.000  Cl
  Cl67     1.0000 0.14910  0.61720  0.86440  Biso   1.000  Cl
  Cl68     1.0000 0.64910  0.11720  0.86440  Biso   1.000  Cl
  Cl69     1.0000 0.64910  0.38280  0.36440  Biso   1.000  Cl
  Cl70     1.0000 0.14910  0.88280  0.36440  Biso   1.000  Cl
  Cl71     1.0000 0.85090  0.38280  0.13560  Biso   1.000  Cl
  Cl72     1.0000 0.35090  0.88280  0.13560  Biso   1.000  Cl
