data_image0
_cell_length_a       7.628
_cell_length_b       8.953
_cell_length_c       17.197
_cell_angle_alpha    91.34
_cell_angle_beta     100.65
_cell_angle_gamma    99.31

_symmetry_space_group_name_H-M    "P 1"
_symmetry_int_tables_number       1

loop_
  _symmetry_equiv_pos_as_xyz
  'x, y, z'

loop_
  _atom_site_label
  _atom_site_occupancy
  _atom_site_fract_x
  _atom_site_fract_y
  _atom_site_fract_z
  _atom_site_thermal_displace_type
  _atom_site_B_iso_or_equiv
  _atom_site_type_symbol
  Cu1      1.0000 0.42064  0.40656  0.54405  Biso   1.000  Cu
  Cu2      1.0000 0.57936  0.59344  0.45595  Biso   1.000  Cu
  Cu3      1.0000 0.76856  0.94787  0.99987  Biso   1.000  Cu
  Cu4      1.0000 0.23144  0.05213  0.00013  Biso   1.000  Cu
  Cu5      1.0000 0.46579  0.02927  0.88136  Biso   1.000  Cu
  Cu6      1.0000 0.53421  0.97073  0.11864  Biso   1.000  Cu
  N1       1.0000 0.34010  0.12760  0.76001  Biso   1.000  N
  N2       1.0000 0.65990  0.87240  0.23999  Biso   1.000  N
  O1       1.0000 0.49860  0.24530  0.48650  Biso   1.000  O
  O2       1.0000 0.50140  0.75470  0.51350  Biso   1.000  O
  O3       1.0000 0.63340  0.40680  0.41047  Biso   1.000  O
  O4       1.0000 0.36660  0.59320  0.58953  Biso   1.000  O
  O5       1.0000 0.20190  0.39290  0.46241  Biso   1.000  O
  O6       1.0000 0.79810  0.60710  0.53759  Biso   1.000  O
  O7       1.0000 0.33730  0.55450  0.38677  Biso   1.000  O
  O8       1.0000 0.66270  0.44550  0.61323  Biso   1.000  O
  O9       1.0000 0.74430  0.79410  0.91468  Biso   1.000  O
  O10      1.0000 0.25570  0.20590  0.08532  Biso   1.000  O
  O11      1.0000 0.52330  0.85930  0.82501  Biso   1.000  O
  O12      1.0000 0.47670  0.14070  0.17499  Biso   1.000  O
  O13      1.0000 0.68610  0.16770  0.86596  Biso   1.000  O
  O14      1.0000 0.31390  0.83230  0.13404  Biso   1.000  O
  O15      1.0000 0.91690  0.10030  0.94872  Biso   1.000  O
  O16      1.0000 0.08310  0.89970  0.05128  Biso   1.000  O
  O17      1.0000 0.25790  0.91710  0.91570  Biso   1.000  O
  O18      1.0000 0.74210  0.08290  0.08430  Biso   1.000  O
  O19      1.0000 0.39150  0.17520  0.94532  Biso   1.000  O
  O20      1.0000 0.60850  0.82480  0.05468  Biso   1.000  O
  S1       1.0000 0.47096  0.23728  0.71387  Biso   1.000  S
  S2       1.0000 0.52904  0.76272  0.28613  Biso   1.000  S
  N3       1.0000 0.32530  0.25860  0.63540  Biso   1.000  N
  N4       1.0000 0.67470  0.74140  0.36460  Biso   1.000  N
  C1       1.0000 0.99980  0.16270  0.58730  Biso   1.000  C
  C2       1.0000 0.00020  0.83730  0.41270  Biso   1.000  C
  C3       1.0000 0.85330  0.07490  0.60640  Biso   1.000  C
  C4       1.0000 0.14670  0.92510  0.39360  Biso   1.000  C
  C5       1.0000 0.86150  0.00250  0.67930  Biso   1.000  C
  C6       1.0000 0.13850  0.99750  0.32070  Biso   1.000  C
  C7       1.0000 0.01690  0.01370  0.73320  Biso   1.000  C
  C8       1.0000 0.98310  0.98630  0.26680  Biso   1.000  C
  C9       1.0000 0.16480  0.17790  0.64238  Biso   1.000  C
  C10      1.0000 0.83520  0.82210  0.35762  Biso   1.000  C
  C11      1.0000 0.17370  0.10270  0.71479  Biso   1.000  C
  C12      1.0000 0.82630  0.89730  0.28521  Biso   1.000  C
  C13      1.0000 0.58870  0.27650  0.43300  Biso   1.000  C
  C14      1.0000 0.41130  0.72350  0.56700  Biso   1.000  C
  C15      1.0000 0.64840  0.14860  0.39260  Biso   1.000  C
  C16      1.0000 0.35160  0.85140  0.60740  Biso   1.000  C
  C17      1.0000 0.20260  0.46750  0.40130  Biso   1.000  C
  C18      1.0000 0.79740  0.53250  0.59870  Biso   1.000  C
  C19      1.0000 0.02970  0.44980  0.34170  Biso   1.000  C
  C20      1.0000 0.97030  0.55020  0.65830  Biso   1.000  C
  C21      1.0000 0.63590  0.77580  0.84967  Biso   1.000  C
  C22      1.0000 0.36410  0.22420  0.15033  Biso   1.000  C
  C23      1.0000 0.64280  0.64170  0.79630  Biso   1.000  C
  C24      1.0000 0.35720  0.35830  0.20370  Biso   1.000  C
  H1       1.0000 0.52660  0.61070  0.76260  Biso   1.000  H
  H2       1.0000 0.47340  0.38930  0.23740  Biso   1.000  H
  H3       1.0000 0.73240  0.66950  0.76440  Biso   1.000  H
  H4       1.0000 0.26760  0.33050  0.23560  Biso   1.000  H
  H5       1.0000 0.67360  0.55940  0.82800  Biso   1.000  H
  H6       1.0000 0.32640  0.44060  0.17200  Biso   1.000  H
  C25      1.0000 0.84990  0.18170  0.89640  Biso   1.000  C
  C26      1.0000 0.15010  0.81830  0.10360  Biso   1.000  C
  C27      1.0000 0.97680  0.30680  0.86980  Biso   1.000  C
  C28      1.0000 0.02320  0.69320  0.13020  Biso   1.000  C
  C29      1.0000 0.18090  0.76390  0.89830  Biso   1.000  C
  C30      1.0000 0.81910  0.23610  0.10170  Biso   1.000  C
  C31      1.0000 0.45110  0.33160  0.95250  Biso   1.000  C
  C32      1.0000 0.54890  0.66840  0.04750  Biso   1.000  C
  H7       1.0000 0.99130  0.21440  0.54400  Biso   1.000  H
  H8       1.0000 0.00870  0.78560  0.45600  Biso   1.000  H
  H9       1.0000 0.75990  0.06180  0.57750  Biso   1.000  H
  H10      1.0000 0.24010  0.93820  0.42250  Biso   1.000  H
  H11      1.0000 0.75970  0.94660  0.68520  Biso   1.000  H
  H12      1.0000 0.24030  0.05340  0.31480  Biso   1.000  H
  H13      1.0000 0.02640  0.96920  0.78140  Biso   1.000  H
  H14      1.0000 0.97360  0.03080  0.21860  Biso   1.000  H
  H15      1.0000 0.77740  0.15530  0.40650  Biso   1.000  H
  H16      1.0000 0.22260  0.84470  0.59350  Biso   1.000  H
  H17      1.0000 0.61190  0.14700  0.34040  Biso   1.000  H
  H18      1.0000 0.38810  0.85300  0.65960  Biso   1.000  H
  H19      1.0000 0.61320  0.06240  0.41190  Biso   1.000  H
  H20      1.0000 0.38680  0.93760  0.58810  Biso   1.000  H
  H21      1.0000 0.01150  0.35960  0.31390  Biso   1.000  H
  H22      1.0000 0.98850  0.64040  0.68610  Biso   1.000  H
  H23      1.0000 0.02910  0.51070  0.29950  Biso   1.000  H
  H24      1.0000 0.97090  0.48930  0.70050  Biso   1.000  H
  H25      1.0000 0.93700  0.45610  0.35790  Biso   1.000  H
  H26      1.0000 0.06300  0.54390  0.64210  Biso   1.000  H
  H27      1.0000 0.99240  0.38510  0.90190  Biso   1.000  H
  H28      1.0000 0.00760  0.61490  0.09810  Biso   1.000  H
  H29      1.0000 0.07610  0.28940  0.86860  Biso   1.000  H
  H30      1.0000 0.92390  0.71060  0.13140  Biso   1.000  H
  H31      1.0000 0.91940  0.34630  0.81480  Biso   1.000  H
  H32      1.0000 0.08060  0.65370  0.18520  Biso   1.000  H
  H33      1.0000 0.25230  0.70420  0.91710  Biso   1.000  H
  H34      1.0000 0.74770  0.29580  0.08290  Biso   1.000  H
  H35      1.0000 0.15740  0.73840  0.84730  Biso   1.000  H
  H36      1.0000 0.84260  0.26160  0.15270  Biso   1.000  H
  H37      1.0000 0.06230  0.73030  0.91040  Biso   1.000  H
  H38      1.0000 0.93770  0.26970  0.08960  Biso   1.000  H
  H39      1.0000 0.56180  0.36210  0.95870  Biso   1.000  H
  H40      1.0000 0.43820  0.63790  0.04130  Biso   1.000  H
  H41      1.0000 0.39290  0.37720  0.98220  Biso   1.000  H
  H42      1.0000 0.60710  0.62280  0.01780  Biso   1.000  H
  H43      1.0000 0.41590  0.37140  0.90570  Biso   1.000  H
  H44      1.0000 0.58410  0.62860  0.09430  Biso   1.000  H
