data_image0
_cell_length_a       22.2892
_cell_length_b       22.2235
_cell_length_c       15.7911
_cell_angle_alpha    90
_cell_angle_beta     101.936
_cell_angle_gamma    90

_symmetry_space_group_name_H-M    "P 1"
_symmetry_int_tables_number       1

loop_
  _symmetry_equiv_pos_as_xyz
  'x, y, z'

loop_
  _atom_site_label
  _atom_site_occupancy
  _atom_site_fract_x
  _atom_site_fract_y
  _atom_site_fract_z
  _atom_site_thermal_displace_type
  _atom_site_B_iso_or_equiv
  _atom_site_type_symbol
  Cu1      1.0000 0.50000  0.31989  0.25000  Biso   1.000  Cu
  Cu2      1.0000 0.00000  0.81989  0.25000  Biso   1.000  Cu
  Cu3      1.0000 0.50000  0.68011  0.75000  Biso   1.000  Cu
  Cu4      1.0000 0.00000  0.18011  0.75000  Biso   1.000  Cu
  C1       1.0000 0.45346  0.44179  0.20200  Biso   1.000  C
  C2       1.0000 0.54654  0.44179  0.29800  Biso   1.000  C
  C3       1.0000 0.95346  0.94179  0.20200  Biso   1.000  C
  C4       1.0000 0.04654  0.94179  0.29800  Biso   1.000  C
  C5       1.0000 0.54654  0.55821  0.79800  Biso   1.000  C
  C6       1.0000 0.45346  0.55821  0.70200  Biso   1.000  C
  C7       1.0000 0.04654  0.05821  0.79800  Biso   1.000  C
  C8       1.0000 0.95346  0.05821  0.70200  Biso   1.000  C
  H1       1.0000 0.42044  0.42016  0.16760  Biso   1.000  H
  H2       1.0000 0.57956  0.42016  0.33240  Biso   1.000  H
  H3       1.0000 0.92044  0.92016  0.16760  Biso   1.000  H
  H4       1.0000 0.07956  0.92016  0.33240  Biso   1.000  H
  H5       1.0000 0.57956  0.57984  0.83240  Biso   1.000  H
  H6       1.0000 0.42044  0.57984  0.66760  Biso   1.000  H
  H7       1.0000 0.07956  0.07984  0.83240  Biso   1.000  H
  H8       1.0000 0.92044  0.07984  0.66760  Biso   1.000  H
  S1       1.0000 0.32021  0.48123  0.48838  Biso   1.000  S
  S2       1.0000 0.67979  0.48123  0.01162  Biso   1.000  S
  S3       1.0000 0.82021  0.98123  0.48838  Biso   1.000  S
  S4       1.0000 0.17979  0.98123  0.01162  Biso   1.000  S
  S5       1.0000 0.67979  0.51877  0.51162  Biso   1.000  S
  S6       1.0000 0.32021  0.51877  0.98838  Biso   1.000  S
  S7       1.0000 0.17979  0.01877  0.51162  Biso   1.000  S
  S8       1.0000 0.82021  0.01877  0.98838  Biso   1.000  S
  O1       1.0000 0.48228  0.81861  0.09170  Biso   1.000  O
  O2       1.0000 0.51772  0.81861  0.40830  Biso   1.000  O
  O3       1.0000 0.98228  0.31861  0.09170  Biso   1.000  O
  O4       1.0000 0.01772  0.31861  0.40830  Biso   1.000  O
  O5       1.0000 0.51772  0.18139  0.90830  Biso   1.000  O
  O6       1.0000 0.48228  0.18139  0.59170  Biso   1.000  O
  O7       1.0000 0.01772  0.68139  0.90830  Biso   1.000  O
  O8       1.0000 0.98228  0.68139  0.59170  Biso   1.000  O
  N1       1.0000 0.50000  0.41060  0.25000  Biso   1.000  N
  N2       1.0000 0.00000  0.91060  0.25000  Biso   1.000  N
  N3       1.0000 0.50000  0.58940  0.75000  Biso   1.000  N
  N4       1.0000 0.00000  0.08940  0.75000  Biso   1.000  N
  O9       1.0000 0.34276  0.43010  0.54300  Biso   1.000  O
  O10      1.0000 0.65724  0.43010  0.95700  Biso   1.000  O
  O11      1.0000 0.84276  0.93010  0.54300  Biso   1.000  O
  O12      1.0000 0.15724  0.93010  0.95700  Biso   1.000  O
  O13      1.0000 0.65724  0.56990  0.45700  Biso   1.000  O
  O14      1.0000 0.34276  0.56990  0.04300  Biso   1.000  O
  O15      1.0000 0.15724  0.06990  0.45700  Biso   1.000  O
  O16      1.0000 0.84276  0.06990  0.04300  Biso   1.000  O
  N5       1.0000 0.50000  0.22870  0.25000  Biso   1.000  N
  N6       1.0000 0.00000  0.72870  0.25000  Biso   1.000  N
  N7       1.0000 0.50000  0.77130  0.75000  Biso   1.000  N
  N8       1.0000 0.00000  0.27130  0.75000  Biso   1.000  N
  C9       1.0000 0.50000  0.53650  0.25000  Biso   1.000  C
  C10      1.0000 0.00000  0.03650  0.25000  Biso   1.000  C
  C11      1.0000 0.50000  0.46350  0.75000  Biso   1.000  C
  C12      1.0000 0.00000  0.96350  0.75000  Biso   1.000  C
  Cu5      1.0000 0.50000  0.82049  0.25000  Biso   1.000  Cu
  Cu6      1.0000 0.00000  0.32049  0.25000  Biso   1.000  Cu
  Cu7      1.0000 0.50000  0.17951  0.75000  Biso   1.000  Cu
  Cu8      1.0000 0.00000  0.67951  0.75000  Biso   1.000  Cu
  C13      1.0000 0.45146  0.50405  0.20050  Biso   1.000  C
  C14      1.0000 0.54854  0.50405  0.29950  Biso   1.000  C
  C15      1.0000 0.95146  0.00405  0.20050  Biso   1.000  C
  C16      1.0000 0.04854  0.00405  0.29950  Biso   1.000  C
  C17      1.0000 0.54854  0.49595  0.79950  Biso   1.000  C
  C18      1.0000 0.45146  0.49595  0.70050  Biso   1.000  C
  C19      1.0000 0.04854  0.99595  0.79950  Biso   1.000  C
  C20      1.0000 0.95146  0.99595  0.70050  Biso   1.000  C
  H9       1.0000 0.41751  0.52446  0.16610  Biso   1.000  H
  H10      1.0000 0.58249  0.52446  0.33390  Biso   1.000  H
  H11      1.0000 0.91751  0.02446  0.16610  Biso   1.000  H
  H12      1.0000 0.08249  0.02446  0.33390  Biso   1.000  H
  H13      1.0000 0.58249  0.47554  0.83390  Biso   1.000  H
  H14      1.0000 0.41751  0.47554  0.66610  Biso   1.000  H
  H15      1.0000 0.08249  0.97554  0.83390  Biso   1.000  H
  H16      1.0000 0.91751  0.97554  0.66610  Biso   1.000  H
  S9       1.0000 0.54606  0.32088  0.49528  Biso   1.000  S
  S10      1.0000 0.45394  0.32088  0.00472  Biso   1.000  S
  S11      1.0000 0.04606  0.82088  0.49528  Biso   1.000  S
  S12      1.0000 0.95394  0.82088  0.00472  Biso   1.000  S
  S13      1.0000 0.45394  0.67912  0.50472  Biso   1.000  S
  S14      1.0000 0.54606  0.67912  0.99528  Biso   1.000  S
  S15      1.0000 0.95394  0.17912  0.50472  Biso   1.000  S
  S16      1.0000 0.04606  0.17912  0.99528  Biso   1.000  S
  O17      1.0000 0.32207  0.53770  0.53680  Biso   1.000  O
  O18      1.0000 0.67793  0.53770  0.96320  Biso   1.000  O
  O19      1.0000 0.82207  0.03770  0.53680  Biso   1.000  O
  O20      1.0000 0.17793  0.03770  0.96320  Biso   1.000  O
  O21      1.0000 0.67793  0.46230  0.46320  Biso   1.000  O
  O22      1.0000 0.32207  0.46230  0.03680  Biso   1.000  O
  O23      1.0000 0.17793  0.96230  0.46320  Biso   1.000  O
  O24      1.0000 0.82207  0.96230  0.03680  Biso   1.000  O
  N9       1.0000 0.50000  0.72876  0.25000  Biso   1.000  N
  N10      1.0000 0.00000  0.22876  0.25000  Biso   1.000  N
  N11      1.0000 0.50000  0.27124  0.75000  Biso   1.000  N
  N12      1.0000 0.00000  0.77124  0.75000  Biso   1.000  N
  O25      1.0000 0.26073  0.47050  0.43160  Biso   1.000  O
  O26      1.0000 0.73927  0.47050  0.06840  Biso   1.000  O
  O27      1.0000 0.76073  0.97050  0.43160  Biso   1.000  O
  O28      1.0000 0.23927  0.97050  0.06840  Biso   1.000  O
  O29      1.0000 0.73927  0.52950  0.56840  Biso   1.000  O
  O30      1.0000 0.26073  0.52950  0.93160  Biso   1.000  O
  O31      1.0000 0.23927  0.02950  0.56840  Biso   1.000  O
  O32      1.0000 0.76073  0.02950  0.93160  Biso   1.000  O
  N13      1.0000 0.50000  0.91120  0.25000  Biso   1.000  N
  N14      1.0000 0.00000  0.41120  0.25000  Biso   1.000  N
  N15      1.0000 0.50000  0.08880  0.75000  Biso   1.000  N
  N16      1.0000 0.00000  0.58880  0.75000  Biso   1.000  N
  C21      1.0000 0.50000  0.60280  0.25000  Biso   1.000  C
  C22      1.0000 0.00000  0.10280  0.25000  Biso   1.000  C
  C23      1.0000 0.50000  0.39720  0.75000  Biso   1.000  C
  C24      1.0000 0.00000  0.89720  0.75000  Biso   1.000  C
  O33      1.0000 0.49310  0.29934  0.52720  Biso   1.000  O
  O34      1.0000 0.50690  0.29934  0.97280  Biso   1.000  O
  O35      1.0000 0.99310  0.79934  0.52720  Biso   1.000  O
  O36      1.0000 0.00690  0.79934  0.97280  Biso   1.000  O
  O37      1.0000 0.50690  0.70066  0.47280  Biso   1.000  O
  O38      1.0000 0.49310  0.70066  0.02720  Biso   1.000  O
  O39      1.0000 0.00690  0.20066  0.47280  Biso   1.000  O
  O40      1.0000 0.99310  0.20066  0.02720  Biso   1.000  O
  N17      1.0000 0.40822  0.82040  0.24380  Biso   1.000  N
  N18      1.0000 0.59178  0.82040  0.25620  Biso   1.000  N
  N19      1.0000 0.90822  0.32040  0.24380  Biso   1.000  N
  N20      1.0000 0.09178  0.32040  0.25620  Biso   1.000  N
  N21      1.0000 0.59178  0.17960  0.75620  Biso   1.000  N
  N22      1.0000 0.40822  0.17960  0.74380  Biso   1.000  N
  N23      1.0000 0.09178  0.67960  0.75620  Biso   1.000  N
  N24      1.0000 0.90822  0.67960  0.74380  Biso   1.000  N
  C25      1.0000 0.45519  0.63597  0.19370  Biso   1.000  C
  C26      1.0000 0.54481  0.63597  0.30630  Biso   1.000  C
  C27      1.0000 0.95519  0.13597  0.19370  Biso   1.000  C
  C28      1.0000 0.04481  0.13597  0.30630  Biso   1.000  C
  C29      1.0000 0.54481  0.36403  0.80630  Biso   1.000  C
  C30      1.0000 0.45519  0.36403  0.69370  Biso   1.000  C
  C31      1.0000 0.04481  0.86403  0.80630  Biso   1.000  C
  C32      1.0000 0.95519  0.86403  0.69370  Biso   1.000  C
  H17      1.0000 0.42370  0.61572  0.15430  Biso   1.000  H
  H18      1.0000 0.57630  0.61572  0.34570  Biso   1.000  H
  H19      1.0000 0.92370  0.11572  0.15430  Biso   1.000  H
  H20      1.0000 0.07630  0.11572  0.34570  Biso   1.000  H
  H21      1.0000 0.57630  0.38428  0.84570  Biso   1.000  H
  H22      1.0000 0.42370  0.38428  0.65430  Biso   1.000  H
  H23      1.0000 0.07630  0.88428  0.84570  Biso   1.000  H
  H24      1.0000 0.92370  0.88428  0.65430  Biso   1.000  H
  N25      1.0000 0.09053  0.81688  0.24320  Biso   1.000  N
  N26      1.0000 0.90947  0.81688  0.25680  Biso   1.000  N
  N27      1.0000 0.59053  0.31688  0.24320  Biso   1.000  N
  N28      1.0000 0.40947  0.31688  0.25680  Biso   1.000  N
  N29      1.0000 0.90947  0.18312  0.75680  Biso   1.000  N
  N30      1.0000 0.09053  0.18312  0.74320  Biso   1.000  N
  N31      1.0000 0.40947  0.68312  0.75680  Biso   1.000  N
  N32      1.0000 0.59053  0.68312  0.74320  Biso   1.000  N
  C33      1.0000 0.45680  0.69809  0.19560  Biso   1.000  C
  C34      1.0000 0.54320  0.69809  0.30440  Biso   1.000  C
  C35      1.0000 0.95680  0.19809  0.19560  Biso   1.000  C
  C36      1.0000 0.04320  0.19809  0.30440  Biso   1.000  C
  C37      1.0000 0.54320  0.30191  0.80440  Biso   1.000  C
  C38      1.0000 0.45680  0.30191  0.69560  Biso   1.000  C
  C39      1.0000 0.04320  0.80191  0.80440  Biso   1.000  C
  C40      1.0000 0.95680  0.80191  0.69560  Biso   1.000  C
  H25      1.0000 0.42611  0.71981  0.15680  Biso   1.000  H
  H26      1.0000 0.57389  0.71981  0.34320  Biso   1.000  H
  H27      1.0000 0.92611  0.21981  0.15680  Biso   1.000  H
  H28      1.0000 0.07389  0.21981  0.34320  Biso   1.000  H
  H29      1.0000 0.57389  0.28019  0.84320  Biso   1.000  H
  H30      1.0000 0.42611  0.28019  0.65680  Biso   1.000  H
  H31      1.0000 0.07389  0.78019  0.84320  Biso   1.000  H
  H32      1.0000 0.92611  0.78019  0.65680  Biso   1.000  H
  O41      1.0000 0.59910  0.28080  0.51870  Biso   1.000  O
  O42      1.0000 0.40090  0.28080  0.98130  Biso   1.000  O
  O43      1.0000 0.09910  0.78080  0.51870  Biso   1.000  O
  O44      1.0000 0.90090  0.78080  0.98130  Biso   1.000  O
  O45      1.0000 0.40090  0.71920  0.48130  Biso   1.000  O
  O46      1.0000 0.59910  0.71920  0.01870  Biso   1.000  O
  O47      1.0000 0.90090  0.21920  0.48130  Biso   1.000  O
  O48      1.0000 0.09910  0.21920  0.01870  Biso   1.000  O
  C41      1.0000 0.50000  0.10400  0.25000  Biso   1.000  C
  C42      1.0000 0.00000  0.60400  0.25000  Biso   1.000  C
  C43      1.0000 0.50000  0.89600  0.75000  Biso   1.000  C
  C44      1.0000 0.00000  0.39600  0.75000  Biso   1.000  C
  C45      1.0000 0.50330  0.13580  0.17630  Biso   1.000  C
  C46      1.0000 0.49670  0.13580  0.32370  Biso   1.000  C
  C47      1.0000 0.00330  0.63580  0.17630  Biso   1.000  C
  C48      1.0000 0.99670  0.63580  0.32370  Biso   1.000  C
  C49      1.0000 0.49670  0.86420  0.82370  Biso   1.000  C
  C50      1.0000 0.50330  0.86420  0.67630  Biso   1.000  C
  C51      1.0000 0.99670  0.36420  0.82370  Biso   1.000  C
  C52      1.0000 0.00330  0.36420  0.67630  Biso   1.000  C
  H33      1.0000 0.50530  0.11530  0.12410  Biso   1.000  H
  H34      1.0000 0.49470  0.11530  0.37590  Biso   1.000  H
  H35      1.0000 0.00530  0.61530  0.12410  Biso   1.000  H
  H36      1.0000 0.99470  0.61530  0.37590  Biso   1.000  H
  H37      1.0000 0.49470  0.88470  0.87590  Biso   1.000  H
  H38      1.0000 0.50530  0.88470  0.62410  Biso   1.000  H
  H39      1.0000 0.99470  0.38470  0.87590  Biso   1.000  H
  H40      1.0000 0.00530  0.38470  0.62410  Biso   1.000  H
  O49      1.0000 0.53041  0.33364  0.40300  Biso   1.000  O
  O50      1.0000 0.46959  0.33364  0.09700  Biso   1.000  O
  O51      1.0000 0.03041  0.83364  0.40300  Biso   1.000  O
  O52      1.0000 0.96959  0.83364  0.09700  Biso   1.000  O
  O53      1.0000 0.46959  0.66636  0.59700  Biso   1.000  O
  O54      1.0000 0.53041  0.66636  0.90300  Biso   1.000  O
  O55      1.0000 0.96959  0.16636  0.59700  Biso   1.000  O
  O56      1.0000 0.03041  0.16636  0.90300  Biso   1.000  O
  C53      1.0000 0.50390  0.19830  0.17930  Biso   1.000  C
  C54      1.0000 0.49610  0.19830  0.32070  Biso   1.000  C
  C55      1.0000 0.00390  0.69830  0.17930  Biso   1.000  C
  C56      1.0000 0.99610  0.69830  0.32070  Biso   1.000  C
  C57      1.0000 0.49610  0.80170  0.82070  Biso   1.000  C
  C58      1.0000 0.50390  0.80170  0.67930  Biso   1.000  C
  C59      1.0000 0.99610  0.30170  0.82070  Biso   1.000  C
  C60      1.0000 0.00390  0.30170  0.67930  Biso   1.000  C
  H41      1.0000 0.50710  0.22000  0.12860  Biso   1.000  H
  H42      1.0000 0.49290  0.22000  0.37140  Biso   1.000  H
  H43      1.0000 0.00710  0.72000  0.12860  Biso   1.000  H
  H44      1.0000 0.99290  0.72000  0.37140  Biso   1.000  H
  H45      1.0000 0.49290  0.78000  0.87140  Biso   1.000  H
  H46      1.0000 0.50710  0.78000  0.62860  Biso   1.000  H
  H47      1.0000 0.99290  0.28000  0.87140  Biso   1.000  H
  H48      1.0000 0.00710  0.28000  0.62860  Biso   1.000  H
  C61      1.0000 0.50000  0.03650  0.25000  Biso   1.000  C
  C62      1.0000 0.00000  0.53650  0.25000  Biso   1.000  C
  C63      1.0000 0.50000  0.96350  0.75000  Biso   1.000  C
  C64      1.0000 0.00000  0.46350  0.75000  Biso   1.000  C
  C65      1.0000 0.52620  0.00480  0.19130  Biso   1.000  C
  C66      1.0000 0.47380  0.00480  0.30870  Biso   1.000  C
  C67      1.0000 0.02620  0.50480  0.19130  Biso   1.000  C
  C68      1.0000 0.97380  0.50480  0.30870  Biso   1.000  C
  C69      1.0000 0.47380  0.99520  0.80870  Biso   1.000  C
  C70      1.0000 0.52620  0.99520  0.69130  Biso   1.000  C
  C71      1.0000 0.97380  0.49520  0.80870  Biso   1.000  C
  C72      1.0000 0.02620  0.49520  0.69130  Biso   1.000  C
  H49      1.0000 0.54400  0.02540  0.14980  Biso   1.000  H
  H50      1.0000 0.45600  0.02540  0.35020  Biso   1.000  H
  H51      1.0000 0.04400  0.52540  0.14980  Biso   1.000  H
  H52      1.0000 0.95600  0.52540  0.35020  Biso   1.000  H
  H53      1.0000 0.45600  0.97460  0.85020  Biso   1.000  H
  H54      1.0000 0.54400  0.97460  0.64980  Biso   1.000  H
  H55      1.0000 0.95600  0.47460  0.85020  Biso   1.000  H
  H56      1.0000 0.04400  0.47460  0.64980  Biso   1.000  H
  C73      1.0000 0.52590  0.94230  0.19440  Biso   1.000  C
  C74      1.0000 0.47410  0.94230  0.30560  Biso   1.000  C
  C75      1.0000 0.02590  0.44230  0.19440  Biso   1.000  C
  C76      1.0000 0.97410  0.44230  0.30560  Biso   1.000  C
  C77      1.0000 0.47410  0.05770  0.80560  Biso   1.000  C
  C78      1.0000 0.52590  0.05770  0.69440  Biso   1.000  C
  C79      1.0000 0.97410  0.55770  0.80560  Biso   1.000  C
  C80      1.0000 0.02590  0.55770  0.69440  Biso   1.000  C
  H57      1.0000 0.54500  0.92070  0.15520  Biso   1.000  H
  H58      1.0000 0.45500  0.92070  0.34480  Biso   1.000  H
  H59      1.0000 0.04500  0.42070  0.15520  Biso   1.000  H
  H60      1.0000 0.95500  0.42070  0.34480  Biso   1.000  H
  H61      1.0000 0.45500  0.07930  0.84480  Biso   1.000  H
  H62      1.0000 0.54500  0.07930  0.65520  Biso   1.000  H
  H63      1.0000 0.95500  0.57930  0.84480  Biso   1.000  H
  H64      1.0000 0.04500  0.57930  0.65520  Biso   1.000  H
  C81      1.0000 0.53350  0.44640  0.52460  Biso   1.000  C
  C82      1.0000 0.46650  0.44640  0.97540  Biso   1.000  C
  C83      1.0000 0.03350  0.94640  0.52460  Biso   1.000  C
  C84      1.0000 0.96650  0.94640  0.97540  Biso   1.000  C
  C85      1.0000 0.46650  0.55360  0.47540  Biso   1.000  C
  C86      1.0000 0.53350  0.55360  0.02460  Biso   1.000  C
  C87      1.0000 0.96650  0.05360  0.47540  Biso   1.000  C
  C88      1.0000 0.03350  0.05360  0.02460  Biso   1.000  C
  C89      1.0000 0.57050  0.38980  0.54930  Biso   1.000  C
  C90      1.0000 0.42950  0.38980  0.95070  Biso   1.000  C
  C91      1.0000 0.07050  0.88980  0.54930  Biso   1.000  C
  C92      1.0000 0.92950  0.88980  0.95070  Biso   1.000  C
  C93      1.0000 0.42950  0.61020  0.45070  Biso   1.000  C
  C94      1.0000 0.57050  0.61020  0.04930  Biso   1.000  C
  C95      1.0000 0.92950  0.11020  0.45070  Biso   1.000  C
  C96      1.0000 0.07050  0.11020  0.04930  Biso   1.000  C
  H65      1.0000 0.57320  0.38320  0.61200  Biso   1.000  H
  H66      1.0000 0.42680  0.38320  0.88800  Biso   1.000  H
  H67      1.0000 0.07320  0.88320  0.61200  Biso   1.000  H
  H68      1.0000 0.92680  0.88320  0.88800  Biso   1.000  H
  H69      1.0000 0.42680  0.61680  0.38800  Biso   1.000  H
  H70      1.0000 0.57320  0.61680  0.11200  Biso   1.000  H
  H71      1.0000 0.92680  0.11680  0.38800  Biso   1.000  H
  H72      1.0000 0.07320  0.11680  0.11200  Biso   1.000  H
  H73      1.0000 0.61270  0.39790  0.54140  Biso   1.000  H
  H74      1.0000 0.38730  0.39790  0.95860  Biso   1.000  H
  H75      1.0000 0.11270  0.89790  0.54140  Biso   1.000  H
  H76      1.0000 0.88730  0.89790  0.95860  Biso   1.000  H
  H77      1.0000 0.38730  0.60210  0.45860  Biso   1.000  H
  H78      1.0000 0.61270  0.60210  0.04140  Biso   1.000  H
  H79      1.0000 0.88730  0.10210  0.45860  Biso   1.000  H
  H80      1.0000 0.11270  0.10210  0.04140  Biso   1.000  H
  C97      1.0000 0.43800  0.49700  0.46120  Biso   1.000  C
  C98      1.0000 0.56200  0.49700  0.03880  Biso   1.000  C
  C99      1.0000 0.93800  0.99700  0.46120  Biso   1.000  C
  C100     1.0000 0.06200  0.99700  0.03880  Biso   1.000  C
  C101     1.0000 0.56200  0.50300  0.53880  Biso   1.000  C
  C102     1.0000 0.43800  0.50300  0.96120  Biso   1.000  C
  C103     1.0000 0.06200  0.00300  0.53880  Biso   1.000  C
  C104     1.0000 0.93800  0.00300  0.96120  Biso   1.000  C
  C105     1.0000 0.47200  0.44470  0.48590  Biso   1.000  C
  C106     1.0000 0.52800  0.44470  0.01410  Biso   1.000  C
  C107     1.0000 0.97200  0.94470  0.48590  Biso   1.000  C
  C108     1.0000 0.02800  0.94470  0.01410  Biso   1.000  C
  C109     1.0000 0.52800  0.55530  0.51410  Biso   1.000  C
  C110     1.0000 0.47200  0.55530  0.98590  Biso   1.000  C
  C111     1.0000 0.02800  0.05530  0.51410  Biso   1.000  C
  C112     1.0000 0.97200  0.05530  0.98590  Biso   1.000  C
  H81      1.0000 0.45220  0.40680  0.47560  Biso   1.000  H
  H82      1.0000 0.54780  0.40680  0.02440  Biso   1.000  H
  H83      1.0000 0.95220  0.90680  0.47560  Biso   1.000  H
  H84      1.0000 0.04780  0.90680  0.02440  Biso   1.000  H
  H85      1.0000 0.54780  0.59320  0.52440  Biso   1.000  H
  H86      1.0000 0.45220  0.59320  0.97560  Biso   1.000  H
  H87      1.0000 0.04780  0.09320  0.52440  Biso   1.000  H
  H88      1.0000 0.95220  0.09320  0.97560  Biso   1.000  H
  C113     1.0000 0.37220  0.49070  0.41630  Biso   1.000  C
  C114     1.0000 0.62780  0.49070  0.08370  Biso   1.000  C
  C115     1.0000 0.87220  0.99070  0.41630  Biso   1.000  C
  C116     1.0000 0.12780  0.99070  0.08370  Biso   1.000  C
  C117     1.0000 0.62780  0.50930  0.58370  Biso   1.000  C
  C118     1.0000 0.37220  0.50930  0.91630  Biso   1.000  C
  C119     1.0000 0.12780  0.00930  0.58370  Biso   1.000  C
  C120     1.0000 0.87220  0.00930  0.91630  Biso   1.000  C
  H89      1.0000 0.36830  0.45560  0.37690  Biso   1.000  H
  H90      1.0000 0.63170  0.45560  0.12310  Biso   1.000  H
  H91      1.0000 0.86830  0.95560  0.37690  Biso   1.000  H
  H92      1.0000 0.13170  0.95560  0.12310  Biso   1.000  H
  H93      1.0000 0.63170  0.54440  0.62310  Biso   1.000  H
  H94      1.0000 0.36830  0.54440  0.87690  Biso   1.000  H
  H95      1.0000 0.13170  0.04440  0.62310  Biso   1.000  H
  H96      1.0000 0.86830  0.04440  0.87690  Biso   1.000  H
  H97      1.0000 0.36000  0.52690  0.38030  Biso   1.000  H
  H98      1.0000 0.64000  0.52690  0.11970  Biso   1.000  H
  H99      1.0000 0.86000  0.02690  0.38030  Biso   1.000  H
  H100     1.0000 0.14000  0.02690  0.11970  Biso   1.000  H
  H101     1.0000 0.64000  0.47310  0.61970  Biso   1.000  H
  H102     1.0000 0.36000  0.47310  0.88030  Biso   1.000  H
  H103     1.0000 0.14000  0.97310  0.61970  Biso   1.000  H
  H104     1.0000 0.86000  0.97310  0.88030  Biso   1.000  H
  C121     1.0000 0.38480  0.78580  0.29920  Biso   1.000  C
  C122     1.0000 0.61520  0.78580  0.20080  Biso   1.000  C
  C123     1.0000 0.88480  0.28580  0.29920  Biso   1.000  C
  C124     1.0000 0.11520  0.28580  0.20080  Biso   1.000  C
  C125     1.0000 0.61520  0.21420  0.70080  Biso   1.000  C
  C126     1.0000 0.38480  0.21420  0.79920  Biso   1.000  C
  C127     1.0000 0.11520  0.71420  0.70080  Biso   1.000  C
  C128     1.0000 0.88480  0.71420  0.79920  Biso   1.000  C
  H105     1.0000 0.41230  0.76230  0.34040  Biso   1.000  H
  H106     1.0000 0.58770  0.76230  0.15960  Biso   1.000  H
  H107     1.0000 0.91230  0.26230  0.34040  Biso   1.000  H
  H108     1.0000 0.08770  0.26230  0.15960  Biso   1.000  H
  H109     1.0000 0.58770  0.23770  0.65960  Biso   1.000  H
  H110     1.0000 0.41230  0.23770  0.84040  Biso   1.000  H
  H111     1.0000 0.08770  0.73770  0.65960  Biso   1.000  H
  H112     1.0000 0.91230  0.73770  0.84040  Biso   1.000  H
  C129     1.0000 0.32330  0.78290  0.29900  Biso   1.000  C
  C130     1.0000 0.67670  0.78290  0.20100  Biso   1.000  C
  C131     1.0000 0.82330  0.28290  0.29900  Biso   1.000  C
  C132     1.0000 0.17670  0.28290  0.20100  Biso   1.000  C
  C133     1.0000 0.67670  0.21710  0.70100  Biso   1.000  C
  C134     1.0000 0.32330  0.21710  0.79900  Biso   1.000  C
  C135     1.0000 0.17670  0.71710  0.70100  Biso   1.000  C
  C136     1.0000 0.82330  0.71710  0.79900  Biso   1.000  C
  H113     1.0000 0.30890  0.75800  0.33960  Biso   1.000  H
  H114     1.0000 0.69110  0.75800  0.16040  Biso   1.000  H
  H115     1.0000 0.80890  0.25800  0.33960  Biso   1.000  H
  H116     1.0000 0.19110  0.25800  0.16040  Biso   1.000  H
  H117     1.0000 0.69110  0.24200  0.66040  Biso   1.000  H
  H118     1.0000 0.30890  0.24200  0.83960  Biso   1.000  H
  H119     1.0000 0.19110  0.74200  0.66040  Biso   1.000  H
  H120     1.0000 0.80890  0.74200  0.83960  Biso   1.000  H
  C137     1.0000 0.28173  0.81661  0.23870  Biso   1.000  C
  C138     1.0000 0.71827  0.81661  0.26130  Biso   1.000  C
  C139     1.0000 0.78173  0.31661  0.23870  Biso   1.000  C
  C140     1.0000 0.21827  0.31661  0.26130  Biso   1.000  C
  C141     1.0000 0.71827  0.18339  0.76130  Biso   1.000  C
  C142     1.0000 0.28173  0.18339  0.73870  Biso   1.000  C
  C143     1.0000 0.21827  0.68339  0.76130  Biso   1.000  C
  C144     1.0000 0.78173  0.68339  0.73870  Biso   1.000  C
  C145     1.0000 0.21546  0.81600  0.23890  Biso   1.000  C
  C146     1.0000 0.78454  0.81600  0.26110  Biso   1.000  C
  C147     1.0000 0.71546  0.31600  0.23890  Biso   1.000  C
  C148     1.0000 0.28454  0.31600  0.26110  Biso   1.000  C
  C149     1.0000 0.78454  0.18400  0.76110  Biso   1.000  C
  C150     1.0000 0.21546  0.18400  0.73890  Biso   1.000  C
  C151     1.0000 0.28454  0.68400  0.76110  Biso   1.000  C
  C152     1.0000 0.71546  0.68400  0.73890  Biso   1.000  C
  C153     1.0000 0.19500  0.80040  0.31150  Biso   1.000  C
  C154     1.0000 0.80500  0.80040  0.18850  Biso   1.000  C
  C155     1.0000 0.69500  0.30040  0.31150  Biso   1.000  C
  C156     1.0000 0.30500  0.30040  0.18850  Biso   1.000  C
  C157     1.0000 0.80500  0.19960  0.68850  Biso   1.000  C
  C158     1.0000 0.19500  0.19960  0.81150  Biso   1.000  C
  C159     1.0000 0.30500  0.69960  0.68850  Biso   1.000  C
  C160     1.0000 0.69500  0.69960  0.81150  Biso   1.000  C
  H121     1.0000 0.22350  0.78900  0.36230  Biso   1.000  H
  H122     1.0000 0.77650  0.78900  0.13770  Biso   1.000  H
  H123     1.0000 0.72350  0.28900  0.36230  Biso   1.000  H
  H124     1.0000 0.27650  0.28900  0.13770  Biso   1.000  H
  H125     1.0000 0.77650  0.21100  0.63770  Biso   1.000  H
  H126     1.0000 0.22350  0.21100  0.86230  Biso   1.000  H
  H127     1.0000 0.27650  0.71100  0.63770  Biso   1.000  H
  H128     1.0000 0.72350  0.71100  0.86230  Biso   1.000  H
  C161     1.0000 0.13290  0.80100  0.31150  Biso   1.000  C
  C162     1.0000 0.86710  0.80100  0.18850  Biso   1.000  C
  C163     1.0000 0.63290  0.30100  0.31150  Biso   1.000  C
  C164     1.0000 0.36710  0.30100  0.18850  Biso   1.000  C
  C165     1.0000 0.86710  0.19900  0.68850  Biso   1.000  C
  C166     1.0000 0.13290  0.19900  0.81150  Biso   1.000  C
  C167     1.0000 0.36710  0.69900  0.68850  Biso   1.000  C
  C168     1.0000 0.63290  0.69900  0.81150  Biso   1.000  C
  H129     1.0000 0.12000  0.78960  0.36290  Biso   1.000  H
  H130     1.0000 0.88000  0.78960  0.13710  Biso   1.000  H
  H131     1.0000 0.62000  0.28960  0.36290  Biso   1.000  H
  H132     1.0000 0.38000  0.28960  0.13710  Biso   1.000  H
  H133     1.0000 0.88000  0.21040  0.63710  Biso   1.000  H
  H134     1.0000 0.12000  0.21040  0.86290  Biso   1.000  H
  H135     1.0000 0.38000  0.71040  0.63710  Biso   1.000  H
  H136     1.0000 0.62000  0.71040  0.86290  Biso   1.000  H
  C169     1.0000 0.11080  0.83110  0.17400  Biso   1.000  C
  C170     1.0000 0.88920  0.83110  0.32600  Biso   1.000  C
  C171     1.0000 0.61080  0.33110  0.17400  Biso   1.000  C
  C172     1.0000 0.38920  0.33110  0.32600  Biso   1.000  C
  C173     1.0000 0.88920  0.16890  0.82600  Biso   1.000  C
  C174     1.0000 0.11080  0.16890  0.67400  Biso   1.000  C
  C175     1.0000 0.38920  0.66890  0.82600  Biso   1.000  C
  C176     1.0000 0.61080  0.66890  0.67400  Biso   1.000  C
  H137     1.0000 0.08130  0.84330  0.12450  Biso   1.000  H
  H138     1.0000 0.91870  0.84330  0.37550  Biso   1.000  H
  H139     1.0000 0.58130  0.34330  0.12450  Biso   1.000  H
  H140     1.0000 0.41870  0.34330  0.37550  Biso   1.000  H
  H141     1.0000 0.91870  0.15670  0.87550  Biso   1.000  H
  H142     1.0000 0.08130  0.15670  0.62450  Biso   1.000  H
  H143     1.0000 0.41870  0.65670  0.87550  Biso   1.000  H
  H144     1.0000 0.58130  0.65670  0.62450  Biso   1.000  H
  C177     1.0000 0.17140  0.83000  0.16680  Biso   1.000  C
  C178     1.0000 0.82860  0.83000  0.33320  Biso   1.000  C
  C179     1.0000 0.67140  0.33000  0.16680  Biso   1.000  C
  C180     1.0000 0.32860  0.33000  0.33320  Biso   1.000  C
  C181     1.0000 0.82860  0.17000  0.83320  Biso   1.000  C
  C182     1.0000 0.17140  0.17000  0.66680  Biso   1.000  C
  C183     1.0000 0.32860  0.67000  0.83320  Biso   1.000  C
  C184     1.0000 0.67140  0.67000  0.66680  Biso   1.000  C
  H145     1.0000 0.18260  0.83880  0.11320  Biso   1.000  H
  H146     1.0000 0.81740  0.83880  0.38680  Biso   1.000  H
  H147     1.0000 0.68260  0.33880  0.11320  Biso   1.000  H
  H148     1.0000 0.31740  0.33880  0.38680  Biso   1.000  H
  H149     1.0000 0.81740  0.16120  0.88680  Biso   1.000  H
  H150     1.0000 0.18260  0.16120  0.61320  Biso   1.000  H
  H151     1.0000 0.31740  0.66120  0.88680  Biso   1.000  H
  H152     1.0000 0.68260  0.66120  0.61320  Biso   1.000  H
  C185     1.0000 0.30600  0.85030  0.18010  Biso   1.000  C
  C186     1.0000 0.69400  0.85030  0.31990  Biso   1.000  C
  C187     1.0000 0.80600  0.35030  0.18010  Biso   1.000  C
  C188     1.0000 0.19400  0.35030  0.31990  Biso   1.000  C
  C189     1.0000 0.69400  0.14970  0.81990  Biso   1.000  C
  C190     1.0000 0.30600  0.14970  0.68010  Biso   1.000  C
  C191     1.0000 0.19400  0.64970  0.81990  Biso   1.000  C
  C192     1.0000 0.80600  0.64970  0.68010  Biso   1.000  C
  H153     1.0000 0.27960  0.87280  0.13640  Biso   1.000  H
  H154     1.0000 0.72040  0.87280  0.36360  Biso   1.000  H
  H155     1.0000 0.77960  0.37280  0.13640  Biso   1.000  H
  H156     1.0000 0.22040  0.37280  0.36360  Biso   1.000  H
  H157     1.0000 0.72040  0.12720  0.86360  Biso   1.000  H
  H158     1.0000 0.27960  0.12720  0.63640  Biso   1.000  H
  H159     1.0000 0.22040  0.62720  0.86360  Biso   1.000  H
  H160     1.0000 0.77960  0.62720  0.63640  Biso   1.000  H
  C193     1.0000 0.36860  0.85140  0.18500  Biso   1.000  C
  C194     1.0000 0.63140  0.85140  0.31500  Biso   1.000  C
  C195     1.0000 0.86860  0.35140  0.18500  Biso   1.000  C
  C196     1.0000 0.13140  0.35140  0.31500  Biso   1.000  C
  C197     1.0000 0.63140  0.14860  0.81500  Biso   1.000  C
  C198     1.0000 0.36860  0.14860  0.68500  Biso   1.000  C
  C199     1.0000 0.13140  0.64860  0.81500  Biso   1.000  C
  C200     1.0000 0.86860  0.64860  0.68500  Biso   1.000  C
  H161     1.0000 0.38420  0.87540  0.14470  Biso   1.000  H
  H162     1.0000 0.61580  0.87540  0.35530  Biso   1.000  H
  H163     1.0000 0.88420  0.37540  0.14470  Biso   1.000  H
  H164     1.0000 0.11580  0.37540  0.35530  Biso   1.000  H
  H165     1.0000 0.61580  0.12460  0.85530  Biso   1.000  H
  H166     1.0000 0.38420  0.12460  0.64470  Biso   1.000  H
  H167     1.0000 0.11580  0.62460  0.85530  Biso   1.000  H
  H168     1.0000 0.88420  0.62460  0.64470  Biso   1.000  H
