data_image0
_cell_length_a       6.3924
_cell_length_b       7.971
_cell_length_c       8.82
_cell_angle_alpha    84.7
_cell_angle_beta     83.27
_cell_angle_gamma    70.82

_symmetry_space_group_name_H-M    "P 1"
_symmetry_int_tables_number       1

loop_
  _symmetry_equiv_pos_as_xyz
  'x, y, z'

loop_
  _atom_site_label
  _atom_site_occupancy
  _atom_site_fract_x
  _atom_site_fract_y
  _atom_site_fract_z
  _atom_site_thermal_displace_type
  _atom_site_B_iso_or_equiv
  _atom_site_type_symbol
  Cu1      1.0000 0.00000  0.00000  0.00000  Biso   1.000  Cu
  Na1      1.0000 0.74680  0.99430  0.58010  Biso   1.000  Na
  Na2      1.0000 0.25320  0.00570  0.41990  Biso   1.000  Na
  O1       1.0000 0.87150  0.24740  0.06670  Biso   1.000  O
  O2       1.0000 0.12850  0.75260  0.93330  Biso   1.000  O
  O3       1.0000 0.85440  0.16170  0.76360  Biso   1.000  O
  O4       1.0000 0.14560  0.83830  0.23640  Biso   1.000  O
  O5       1.0000 0.72570  0.49810  0.56900  Biso   1.000  O
  O6       1.0000 0.27430  0.50190  0.43100  Biso   1.000  O
  O7       1.0000 0.62150  0.79180  0.77190  Biso   1.000  O
  O8       1.0000 0.37850  0.20820  0.22810  Biso   1.000  O
  O9       1.0000 0.70380  0.63810  0.08360  Biso   1.000  O
  O10      1.0000 0.29620  0.36190  0.91640  Biso   1.000  O
  O11      1.0000 0.72060  0.96190  0.07270  Biso   1.000  O
  O12      1.0000 0.27940  0.03810  0.92730  Biso   1.000  O
  H1       1.0000 0.61110  0.04190  0.11280  Biso   1.000  H
  H2       1.0000 0.38890  0.95810  0.88720  Biso   1.000  H
  H3       1.0000 0.70630  0.87500  0.07190  Biso   1.000  H
  H4       1.0000 0.29370  0.12500  0.92810  Biso   1.000  H
  O13      1.0000 0.87800  0.19410  0.39920  Biso   1.000  O
  O14      1.0000 0.12200  0.80590  0.60080  Biso   1.000  O
  H5       1.0000 0.83140  0.28240  0.45030  Biso   1.000  H
  H6       1.0000 0.16860  0.71760  0.54970  Biso   1.000  H
  H7       1.0000 0.88550  0.21570  0.30870  Biso   1.000  H
  H8       1.0000 0.11450  0.78430  0.69130  Biso   1.000  H
  O15      1.0000 0.63430  0.82590  0.40880  Biso   1.000  O
  O16      1.0000 0.36570  0.17410  0.59120  Biso   1.000  O
  H9       1.0000 0.69300  0.79740  0.33430  Biso   1.000  H
  H10      1.0000 0.30700  0.20260  0.66570  Biso   1.000  H
  H11      1.0000 0.65200  0.73200  0.45150  Biso   1.000  H
  H12      1.0000 0.34800  0.26800  0.54850  Biso   1.000  H
  C1       1.0000 0.80870  0.36200  0.95830  Biso   1.000  C
  C2       1.0000 0.19130  0.63800  0.04170  Biso   1.000  C
  C3       1.0000 0.80460  0.31660  0.80320  Biso   1.000  C
  C4       1.0000 0.19540  0.68340  0.19680  Biso   1.000  C
  C5       1.0000 0.73810  0.48290  0.70860  Biso   1.000  C
  C6       1.0000 0.26190  0.51710  0.29140  Biso   1.000  C
  C7       1.0000 0.68830  0.63010  0.81120  Biso   1.000  C
  C8       1.0000 0.31170  0.36990  0.18880  Biso   1.000  C
  C9       1.0000 0.72980  0.55410  0.96690  Biso   1.000  C
  C10      1.0000 0.27020  0.44590  0.03310  Biso   1.000  C
