data_image0
_cell_length_a       8.9071
_cell_length_b       11.9325
_cell_length_c       13.6743
_cell_angle_alpha    93.936
_cell_angle_beta     107.87
_cell_angle_gamma    105.53

_symmetry_space_group_name_H-M    "P 1"
_symmetry_int_tables_number       1

loop_
  _symmetry_equiv_pos_as_xyz
  'x, y, z'

loop_
  _atom_site_label
  _atom_site_occupancy
  _atom_site_fract_x
  _atom_site_fract_y
  _atom_site_fract_z
  _atom_site_thermal_displace_type
  _atom_site_B_iso_or_equiv
  _atom_site_type_symbol
  Cu1      1.0000 0.92564  0.86719  0.50379  Biso   1.000  Cu
  Cu2      1.0000 0.07436  0.13281  0.49621  Biso   1.000  Cu
  C1       1.0000 0.54290  0.86620  0.27690  Biso   1.000  C
  C2       1.0000 0.45710  0.13380  0.72310  Biso   1.000  C
  H1       1.0000 0.61110  0.93720  0.26460  Biso   1.000  H
  H2       1.0000 0.38890  0.06280  0.73540  Biso   1.000  H
  H3       1.0000 0.47970  0.81440  0.21180  Biso   1.000  H
  H4       1.0000 0.52030  0.18560  0.78820  Biso   1.000  H
  H5       1.0000 0.61180  0.82800  0.32210  Biso   1.000  H
  H6       1.0000 0.38820  0.17200  0.67790  Biso   1.000  H
  C3       1.0000 0.30410  0.80930  0.34400  Biso   1.000  C
  C4       1.0000 0.69590  0.19070  0.65600  Biso   1.000  C
  H7       1.0000 0.29270  0.73090  0.32240  Biso   1.000  H
  H8       1.0000 0.70730  0.26910  0.67760  Biso   1.000  H
  N1       1.0000 0.96820  0.72900  0.44780  Biso   1.000  N
  N2       1.0000 0.03180  0.27100  0.55220  Biso   1.000  N
  C5       1.0000 0.42670  0.89620  0.32740  Biso   1.000  C
  C6       1.0000 0.57330  0.10380  0.67260  Biso   1.000  C
  C7       1.0000 0.19570  0.83390  0.39200  Biso   1.000  C
  C8       1.0000 0.80430  0.16610  0.60800  Biso   1.000  C
  C9       1.0000 0.07880  0.73240  0.40570  Biso   1.000  C
  C10      1.0000 0.92120  0.26760  0.59430  Biso   1.000  C
  H9       1.0000 0.08420  0.65960  0.38060  Biso   1.000  H
  H10      1.0000 0.91580  0.34040  0.61940  Biso   1.000  H
  O1       1.0000 0.10530  0.97714  0.46941  Biso   1.000  O
  O2       1.0000 0.89470  0.02286  0.53059  Biso   1.000  O
  C11      1.0000 0.20690  0.95150  0.42410  Biso   1.000  C
  C12      1.0000 0.79310  0.04850  0.57590  Biso   1.000  C
  N3       1.0000 0.71320  0.78220  0.52070  Biso   1.000  N
  N4       1.0000 0.28680  0.21780  0.47930  Biso   1.000  N
  C13      1.0000 0.36560  0.16450  0.43930  Biso   1.000  C
  C14      1.0000 0.63440  0.83550  0.56070  Biso   1.000  C
  H11      1.0000 0.45860  0.21310  0.42930  Biso   1.000  H
  H12      1.0000 0.54140  0.78690  0.57070  Biso   1.000  H
  C15      1.0000 0.33250  0.04060  0.40730  Biso   1.000  C
  C16      1.0000 0.66750  0.95940  0.59270  Biso   1.000  C
  C17      1.0000 0.43890  0.01060  0.36020  Biso   1.000  C
  C18      1.0000 0.56110  0.98940  0.63980  Biso   1.000  C
  H13      1.0000 0.52150  0.07100  0.35070  Biso   1.000  H
  H14      1.0000 0.47850  0.92900  0.64930  Biso   1.000  H
  C19      1.0000 0.64020  0.65250  0.49870  Biso   1.000  C
  C20      1.0000 0.35980  0.34750  0.50130  Biso   1.000  C
  H15      1.0000 0.52060  0.63310  0.47050  Biso   1.000  H
  H16      1.0000 0.47940  0.36690  0.52950  Biso   1.000  H
  H17      1.0000 0.66800  0.62180  0.56360  Biso   1.000  H
  H18      1.0000 0.33200  0.37820  0.43640  Biso   1.000  H
  C21      1.0000 0.69840  0.59250  0.42320  Biso   1.000  C
  C22      1.0000 0.30160  0.40750  0.57680  Biso   1.000  C
  H19      1.0000 0.64190  0.50840  0.41030  Biso   1.000  H
  H20      1.0000 0.35810  0.49160  0.58970  Biso   1.000  H
  H21      1.0000 0.66690  0.62110  0.35750  Biso   1.000  H
  H22      1.0000 0.33310  0.37890  0.64250  Biso   1.000  H
  C23      1.0000 0.87380  0.61080  0.45820  Biso   1.000  C
  C24      1.0000 0.12620  0.38920  0.54180  Biso   1.000  C
  H23      1.0000 0.89720  0.55140  0.41820  Biso   1.000  H
  H24      1.0000 0.10280  0.44860  0.58180  Biso   1.000  H
  H25      1.0000 0.91050  0.60090  0.53070  Biso   1.000  H
  H26      1.0000 0.08950  0.39910  0.46930  Biso   1.000  H
  O3       1.0000 0.24070  0.89590  0.81953  Biso   1.000  O
  O4       1.0000 0.75930  0.10410  0.18047  Biso   1.000  O
  O5       1.0000 0.22880  0.79520  0.67880  Biso   1.000  O
  O6       1.0000 0.77120  0.20480  0.32120  Biso   1.000  O
  O7       1.0000 0.05400  0.89050  0.67579  Biso   1.000  O
  O8       1.0000 0.94600  0.10950  0.32421  Biso   1.000  O
  N5       1.0000 0.17440  0.85710  0.72350  Biso   1.000  N
  N6       1.0000 0.82560  0.14290  0.27650  Biso   1.000  N
  Cu3      1.0000 0.46179  0.87210  0.94644  Biso   1.000  Cu
  Cu4      1.0000 0.53821  0.12790  0.05356  Biso   1.000  Cu
  C25      1.0000 0.05810  0.97570  0.13860  Biso   1.000  C
  C26      1.0000 0.94190  0.02430  0.86140  Biso   1.000  C
  H27      1.0000 0.02210  0.03120  0.16840  Biso   1.000  H
  H28      1.0000 0.97790  0.96880  0.83160  Biso   1.000  H
  O9       1.0000 0.39140  0.96740  0.03758  Biso   1.000  O
  O10      1.0000 0.60860  0.03260  0.96242  Biso   1.000  O
  C27      1.0000 0.16640  0.81240  0.04810  Biso   1.000  C
  C28      1.0000 0.83360  0.18760  0.95190  Biso   1.000  C
  C29      1.0000 0.02630  0.77900  0.07840  Biso   1.000  C
  C30      1.0000 0.97370  0.22100  0.92160  Biso   1.000  C
  H29      1.0000 0.96850  0.69920  0.06770  Biso   1.000  H
  H30      1.0000 0.03150  0.30080  0.93230  Biso   1.000  H
  C31      1.0000 0.97020  0.85870  0.12320  Biso   1.000  C
  C32      1.0000 0.02980  0.14130  0.87680  Biso   1.000  C
  C33      1.0000 0.82160  0.81940  0.15800  Biso   1.000  C
  C34      1.0000 0.17840  0.18060  0.84200  Biso   1.000  C
  H31      1.0000 0.73160  0.84180  0.11360  Biso   1.000  H
  H32      1.0000 0.26840  0.15820  0.88640  Biso   1.000  H
  H33      1.0000 0.78930  0.73520  0.15380  Biso   1.000  H
  H34      1.0000 0.21070  0.26480  0.84620  Biso   1.000  H
  H35      1.0000 0.84940  0.85600  0.22850  Biso   1.000  H
  H36      1.0000 0.15060  0.14400  0.77150  Biso   1.000  H
  C35      1.0000 0.20050  0.01470  0.11100  Biso   1.000  C
  C36      1.0000 0.79950  0.98530  0.88900  Biso   1.000  C
  C37      1.0000 0.25650  0.93270  0.06376  Biso   1.000  C
  C38      1.0000 0.74350  0.06730  0.93624  Biso   1.000  C
  N7       1.0000 0.42250  0.19650  0.12990  Biso   1.000  N
  N8       1.0000 0.57750  0.80350  0.87010  Biso   1.000  N
  C39      1.0000 0.28640  0.13940  0.14030  Biso   1.000  C
  C40      1.0000 0.71360  0.86060  0.85970  Biso   1.000  C
  H37      1.0000 0.23630  0.18390  0.17060  Biso   1.000  H
  H38      1.0000 0.76370  0.81610  0.82940  Biso   1.000  H
  N9       1.0000 0.33260  0.72380  0.97300  Biso   1.000  N
  N10      1.0000 0.66740  0.27620  0.02700  Biso   1.000  N
  C41      1.0000 0.21430  0.71760  0.00870  Biso   1.000  C
  C42      1.0000 0.78570  0.28240  0.99130  Biso   1.000  C
  C43      1.0000 0.35110  0.60990  0.93990  Biso   1.000  C
  C44      1.0000 0.64890  0.39010  0.06010  Biso   1.000  C
  H39      1.0000 0.24280  0.55140  0.91720  Biso   1.000  H
  H40      1.0000 0.75720  0.44860  0.08280  Biso   1.000  H
  H41      1.0000 0.42010  0.58730  0.00040  Biso   1.000  H
  H42      1.0000 0.57990  0.41270  0.99960  Biso   1.000  H
  C45      1.0000 0.48550  0.32250  0.17650  Biso   1.000  C
  C46      1.0000 0.51450  0.67750  0.82350  Biso   1.000  C
  H43      1.0000 0.54580  0.32880  0.25000  Biso   1.000  H
  H44      1.0000 0.45420  0.67120  0.75000  Biso   1.000  H
  H45      1.0000 0.39110  0.35040  0.17140  Biso   1.000  H
  H46      1.0000 0.60890  0.64960  0.82860  Biso   1.000  H
  C47      1.0000 0.41530  0.60440  0.86460  Biso   1.000  C
  C48      1.0000 0.58470  0.39560  0.13540  Biso   1.000  C
  H47      1.0000 0.47020  0.54460  0.88110  Biso   1.000  H
  H48      1.0000 0.52980  0.45540  0.11890  Biso   1.000  H
  H49      1.0000 0.31790  0.56620  0.80400  Biso   1.000  H
  H50      1.0000 0.68210  0.43380  0.19600  Biso   1.000  H
  H51      1.0000 0.15600  0.63800  0.00900  Biso   1.000  H
  H52      1.0000 0.84400  0.36200  0.99100  Biso   1.000  H
  Cl1      1.0000 0.16184  0.46998  0.21968  Biso   1.000  Cl
  Cl2      1.0000 0.83816  0.53002  0.78032  Biso   1.000  Cl
  O11      1.0000 0.11350  0.34750  0.20700  Biso   1.000  O
  O12      1.0000 0.88650  0.65250  0.79300  Biso   1.000  O
  O13      1.0000 0.04370  0.52380  0.20430  Biso   1.000  O
  O14      1.0000 0.95630  0.47620  0.79570  Biso   1.000  O
  O15      1.0000 0.28630  0.51600  0.30390  Biso   1.000  O
  O16      1.0000 0.71370  0.48400  0.69610  Biso   1.000  O
  O17      1.0000 0.22200  0.49990  0.14780  Biso   1.000  O
  O18      1.0000 0.77800  0.50010  0.85220  Biso   1.000  O
