data_image0
_cell_length_a       6.5446
_cell_length_b       25.6151
_cell_length_c       26.3379
_cell_angle_alpha    90
_cell_angle_beta     90
_cell_angle_gamma    90

_symmetry_space_group_name_H-M    "P 1"
_symmetry_int_tables_number       1

loop_
  _symmetry_equiv_pos_as_xyz
  'x, y, z'

loop_
  _atom_site_label
  _atom_site_occupancy
  _atom_site_fract_x
  _atom_site_fract_y
  _atom_site_fract_z
  _atom_site_thermal_displace_type
  _atom_site_B_iso_or_equiv
  _atom_site_type_symbol
  Cu1      1.0000 0.21306  0.21293  0.47452  Biso   1.000  Cu
  Cu2      1.0000 0.28694  0.78707  0.97452  Biso   1.000  Cu
  Cu3      1.0000 0.78694  0.71293  0.02548  Biso   1.000  Cu
  Cu4      1.0000 0.71306  0.28707  0.52548  Biso   1.000  Cu
  Cl1      1.0000 0.27641  0.28374  0.52465  Biso   1.000  Cl
  Cl2      1.0000 0.22359  0.71626  0.02465  Biso   1.000  Cl
  Cl3      1.0000 0.72359  0.78374  0.97535  Biso   1.000  Cl
  Cl4      1.0000 0.77641  0.21626  0.47535  Biso   1.000  Cl
  O1       1.0000 0.13120  0.06603  0.34645  Biso   1.000  O
  O2       1.0000 0.36880  0.93397  0.84645  Biso   1.000  O
  O3       1.0000 0.86880  0.56603  0.15355  Biso   1.000  O
  O4       1.0000 0.63120  0.43397  0.65355  Biso   1.000  O
  O5       1.0000 0.80900  0.09351  0.35908  Biso   1.000  O
  O6       1.0000 0.69100  0.90649  0.85908  Biso   1.000  O
  O7       1.0000 0.19100  0.59351  0.14092  Biso   1.000  O
  O8       1.0000 0.30900  0.40649  0.64092  Biso   1.000  O
  O9       1.0000 0.12120  0.40727  0.42929  Biso   1.000  O
  O10      1.0000 0.37880  0.59273  0.92929  Biso   1.000  O
  O11      1.0000 0.87880  0.90727  0.07071  Biso   1.000  O
  O12      1.0000 0.62120  0.09273  0.57071  Biso   1.000  O
  H1       1.0000 0.09600  0.43270  0.44600  Biso   1.000  H
  H2       1.0000 0.40400  0.56730  0.94600  Biso   1.000  H
  H3       1.0000 0.90400  0.93270  0.05400  Biso   1.000  H
  H4       1.0000 0.59600  0.06730  0.55400  Biso   1.000  H
  N1       1.0000 0.20460  0.16440  0.53403  Biso   1.000  N
  N2       1.0000 0.29540  0.83560  0.03403  Biso   1.000  N
  N3       1.0000 0.79540  0.66440  0.96597  Biso   1.000  N
  N4       1.0000 0.70460  0.33560  0.46597  Biso   1.000  N
  N5       1.0000 0.19240  0.14377  0.43406  Biso   1.000  N
  N6       1.0000 0.30760  0.85623  0.93406  Biso   1.000  N
  N7       1.0000 0.80760  0.64377  0.06594  Biso   1.000  N
  N8       1.0000 0.69240  0.35623  0.56594  Biso   1.000  N
  N9       1.0000 0.23090  0.25494  0.41183  Biso   1.000  N
  N10      1.0000 0.26910  0.74506  0.91183  Biso   1.000  N
  N11      1.0000 0.76910  0.75494  0.08817  Biso   1.000  N
  N12      1.0000 0.73090  0.24506  0.58817  Biso   1.000  N
  N13      1.0000 0.21540  0.32503  0.36362  Biso   1.000  N
  N14      1.0000 0.28460  0.67497  0.86362  Biso   1.000  N
  N15      1.0000 0.78460  0.82503  0.13638  Biso   1.000  N
  N16      1.0000 0.71540  0.17497  0.63638  Biso   1.000  N
  C1       1.0000 0.24300  0.17644  0.58303  Biso   1.000  C
  C2       1.0000 0.25700  0.82356  0.08303  Biso   1.000  C
  C3       1.0000 0.75700  0.67644  0.91697  Biso   1.000  C
  C4       1.0000 0.74300  0.32356  0.41697  Biso   1.000  C
  H5       1.0000 0.28600  0.21080  0.59120  Biso   1.000  H
  H6       1.0000 0.21400  0.78920  0.09120  Biso   1.000  H
  H7       1.0000 0.71400  0.71080  0.90880  Biso   1.000  H
  H8       1.0000 0.78600  0.28920  0.40880  Biso   1.000  H
  C5       1.0000 0.22140  0.14029  0.62156  Biso   1.000  C
  C6       1.0000 0.27860  0.85971  0.12156  Biso   1.000  C
  C7       1.0000 0.77860  0.64029  0.87844  Biso   1.000  C
  C8       1.0000 0.72140  0.35971  0.37844  Biso   1.000  C
  H9       1.0000 0.24730  0.14990  0.65580  Biso   1.000  H
  H10      1.0000 0.25270  0.85010  0.15580  Biso   1.000  H
  H11      1.0000 0.75270  0.64990  0.84420  Biso   1.000  H
  H12      1.0000 0.74730  0.35010  0.34420  Biso   1.000  H
  C9       1.0000 0.16160  0.08971  0.60972  Biso   1.000  C
  C10      1.0000 0.33840  0.91029  0.10972  Biso   1.000  C
  C11      1.0000 0.83840  0.58971  0.89028  Biso   1.000  C
  C12      1.0000 0.66160  0.41029  0.39028  Biso   1.000  C
  H13      1.0000 0.14650  0.06420  0.63570  Biso   1.000  H
  H14      1.0000 0.35350  0.93580  0.13570  Biso   1.000  H
  H15      1.0000 0.85350  0.56420  0.86430  Biso   1.000  H
  H16      1.0000 0.64650  0.43580  0.36430  Biso   1.000  H
  C13      1.0000 0.12440  0.07707  0.55976  Biso   1.000  C
  C14      1.0000 0.37560  0.92293  0.05976  Biso   1.000  C
  C15      1.0000 0.87560  0.57707  0.94024  Biso   1.000  C
  C16      1.0000 0.62440  0.42293  0.44024  Biso   1.000  C
  H17      1.0000 0.08570  0.04260  0.55070  Biso   1.000  H
  H18      1.0000 0.41430  0.95740  0.05070  Biso   1.000  H
  H19      1.0000 0.91430  0.54260  0.94930  Biso   1.000  H
  H20      1.0000 0.58570  0.45740  0.44930  Biso   1.000  H
  C17      1.0000 0.14420  0.11558  0.52273  Biso   1.000  C
  C18      1.0000 0.35580  0.88442  0.02273  Biso   1.000  C
  C19      1.0000 0.85580  0.61558  0.97727  Biso   1.000  C
  C20      1.0000 0.64420  0.38442  0.47727  Biso   1.000  C
  C21      1.0000 0.08690  0.10615  0.46823  Biso   1.000  C
  C22      1.0000 0.41310  0.89385  0.96823  Biso   1.000  C
  C23      1.0000 0.91310  0.60615  0.03177  Biso   1.000  C
  C24      1.0000 0.58690  0.39385  0.53177  Biso   1.000  C
  H21      1.0000 0.12480  0.07010  0.45860  Biso   1.000  H
  H22      1.0000 0.37520  0.92990  0.95860  Biso   1.000  H
  H23      1.0000 0.87520  0.57010  0.04140  Biso   1.000  H
  H24      1.0000 0.62480  0.42990  0.54140  Biso   1.000  H
  H25      1.0000 0.93720  0.10980  0.46420  Biso   1.000  H
  H26      1.0000 0.56280  0.89020  0.96420  Biso   1.000  H
  H27      1.0000 0.06280  0.60980  0.03580  Biso   1.000  H
  H28      1.0000 0.43720  0.39020  0.53580  Biso   1.000  H
  C25      1.0000 0.40660  0.12534  0.42555  Biso   1.000  C
  C26      1.0000 0.09340  0.87466  0.92555  Biso   1.000  C
  C27      1.0000 0.59340  0.62534  0.07445  Biso   1.000  C
  C28      1.0000 0.90660  0.37466  0.57445  Biso   1.000  C
  H29      1.0000 0.40410  0.09170  0.40790  Biso   1.000  H
  H30      1.0000 0.09590  0.90830  0.90790  Biso   1.000  H
  H31      1.0000 0.59590  0.59170  0.09210  Biso   1.000  H
  H32      1.0000 0.90410  0.40830  0.59210  Biso   1.000  H
  H33      1.0000 0.47560  0.12130  0.45830  Biso   1.000  H
  H34      1.0000 0.02440  0.87870  0.95830  Biso   1.000  H
  H35      1.0000 0.52440  0.62130  0.04170  Biso   1.000  H
  H36      1.0000 0.97560  0.37870  0.54170  Biso   1.000  H
  H37      1.0000 0.48030  0.15100  0.40490  Biso   1.000  H
  H38      1.0000 0.01970  0.84900  0.90490  Biso   1.000  H
  H39      1.0000 0.51970  0.65100  0.09510  Biso   1.000  H
  H40      1.0000 0.98030  0.34900  0.59510  Biso   1.000  H
  C29      1.0000 0.17560  0.18328  0.34632  Biso   1.000  C
  C30      1.0000 0.32440  0.81672  0.84632  Biso   1.000  C
  C31      1.0000 0.82440  0.68328  0.15368  Biso   1.000  C
  C32      1.0000 0.67560  0.31672  0.65368  Biso   1.000  C
  H41      1.0000 0.31350  0.16890  0.33980  Biso   1.000  H
  H42      1.0000 0.18650  0.83110  0.83980  Biso   1.000  H
  H43      1.0000 0.68650  0.66890  0.16020  Biso   1.000  H
  H44      1.0000 0.81350  0.33110  0.66020  Biso   1.000  H
  H45      1.0000 0.09720  0.18130  0.31420  Biso   1.000  H
  H46      1.0000 0.40280  0.81870  0.81420  Biso   1.000  H
  H47      1.0000 0.90280  0.68130  0.18580  Biso   1.000  H
  H48      1.0000 0.59720  0.31870  0.68580  Biso   1.000  H
  C33      1.0000 0.06920  0.14998  0.38649  Biso   1.000  C
  C34      1.0000 0.43080  0.85002  0.88649  Biso   1.000  C
  C35      1.0000 0.93080  0.64998  0.11351  Biso   1.000  C
  C36      1.0000 0.56920  0.35002  0.61351  Biso   1.000  C
  H49      1.0000 0.93940  0.16810  0.39590  Biso   1.000  H
  H50      1.0000 0.56060  0.83190  0.89590  Biso   1.000  H
  H51      1.0000 0.06060  0.66810  0.10410  Biso   1.000  H
  H52      1.0000 0.43940  0.33190  0.60410  Biso   1.000  H
  C37      1.0000 0.01120  0.09794  0.36231  Biso   1.000  C
  C38      1.0000 0.48880  0.90206  0.86231  Biso   1.000  C
  C39      1.0000 0.98880  0.59794  0.13769  Biso   1.000  C
  C40      1.0000 0.51120  0.40206  0.63769  Biso   1.000  C
  C41      1.0000 0.73060  0.04813  0.33299  Biso   1.000  C
  C42      1.0000 0.76940  0.95187  0.83299  Biso   1.000  C
  C43      1.0000 0.26940  0.54813  0.16701  Biso   1.000  C
  C44      1.0000 0.23060  0.45187  0.66701  Biso   1.000  C
  H53      1.0000 0.58190  0.05110  0.32970  Biso   1.000  H
  H54      1.0000 0.91810  0.94890  0.82970  Biso   1.000  H
  H55      1.0000 0.41810  0.55110  0.17030  Biso   1.000  H
  H56      1.0000 0.08190  0.44890  0.67030  Biso   1.000  H
  H57      1.0000 0.76420  0.01670  0.35240  Biso   1.000  H
  H58      1.0000 0.73580  0.98330  0.85240  Biso   1.000  H
  H59      1.0000 0.23580  0.51670  0.14760  Biso   1.000  H
  H60      1.0000 0.26420  0.48330  0.64760  Biso   1.000  H
  H61      1.0000 0.79240  0.04590  0.29920  Biso   1.000  H
  H62      1.0000 0.70760  0.95410  0.79920  Biso   1.000  H
  H63      1.0000 0.20760  0.54590  0.20080  Biso   1.000  H
  H64      1.0000 0.29240  0.45410  0.70080  Biso   1.000  H
  C45      1.0000 0.19490  0.23926  0.36198  Biso   1.000  C
  C46      1.0000 0.30510  0.76074  0.86198  Biso   1.000  C
  C47      1.0000 0.80510  0.73926  0.13802  Biso   1.000  C
  C48      1.0000 0.69490  0.26074  0.63802  Biso   1.000  C
  C49      1.0000 0.18260  0.28228  0.33216  Biso   1.000  C
  C50      1.0000 0.31740  0.71772  0.83216  Biso   1.000  C
  C51      1.0000 0.81740  0.78228  0.16784  Biso   1.000  C
  C52      1.0000 0.68260  0.21772  0.66784  Biso   1.000  C
  H65      1.0000 0.15670  0.28310  0.29670  Biso   1.000  H
  H66      1.0000 0.34330  0.71690  0.79670  Biso   1.000  H
  H67      1.0000 0.84330  0.78310  0.20330  Biso   1.000  H
  H68      1.0000 0.65670  0.21690  0.70330  Biso   1.000  H
  C53      1.0000 0.24330  0.30642  0.41102  Biso   1.000  C
  C54      1.0000 0.25670  0.69358  0.91102  Biso   1.000  C
  C55      1.0000 0.75670  0.80642  0.08898  Biso   1.000  C
  C56      1.0000 0.74330  0.19358  0.58898  Biso   1.000  C
  H69      1.0000 0.26860  0.32750  0.44000  Biso   1.000  H
  H70      1.0000 0.23140  0.67250  0.94000  Biso   1.000  H
  H71      1.0000 0.73140  0.82750  0.06000  Biso   1.000  H
  H72      1.0000 0.76860  0.17250  0.56000  Biso   1.000  H
  C57      1.0000 0.17640  0.41928  0.38094  Biso   1.000  C
  C58      1.0000 0.32360  0.58072  0.88094  Biso   1.000  C
  C59      1.0000 0.82360  0.91928  0.11906  Biso   1.000  C
  C60      1.0000 0.67640  0.08072  0.61906  Biso   1.000  C
  C61      1.0000 0.19550  0.47057  0.36398  Biso   1.000  C
  C62      1.0000 0.30450  0.52943  0.86398  Biso   1.000  C
  C63      1.0000 0.80450  0.97057  0.13602  Biso   1.000  C
  C64      1.0000 0.69550  0.02943  0.63602  Biso   1.000  C
  H73      1.0000 0.16140  0.49850  0.38610  Biso   1.000  H
  H74      1.0000 0.33860  0.50150  0.88610  Biso   1.000  H
  H75      1.0000 0.83860  0.99850  0.11390  Biso   1.000  H
  H76      1.0000 0.66140  0.00150  0.61390  Biso   1.000  H
  C65      1.0000 0.26350  0.48128  0.31534  Biso   1.000  C
  C66      1.0000 0.23650  0.51872  0.81534  Biso   1.000  C
  C67      1.0000 0.73650  0.98128  0.18466  Biso   1.000  C
  C68      1.0000 0.76350  0.01872  0.68466  Biso   1.000  C
  H77      1.0000 0.27600  0.51650  0.30440  Biso   1.000  H
  H78      1.0000 0.22400  0.48350  0.80440  Biso   1.000  H
  H79      1.0000 0.72400  0.01650  0.19560  Biso   1.000  H
  H80      1.0000 0.77600  0.98350  0.69560  Biso   1.000  H
  C69      1.0000 0.31350  0.44104  0.28254  Biso   1.000  C
  C70      1.0000 0.18650  0.55896  0.78254  Biso   1.000  C
  C71      1.0000 0.68650  0.94104  0.21746  Biso   1.000  C
  C72      1.0000 0.81350  0.05896  0.71746  Biso   1.000  C
  H81      1.0000 0.35940  0.44840  0.24910  Biso   1.000  H
  H82      1.0000 0.14060  0.55160  0.74910  Biso   1.000  H
  H83      1.0000 0.64060  0.94840  0.25090  Biso   1.000  H
  H84      1.0000 0.85940  0.05160  0.75090  Biso   1.000  H
  C73      1.0000 0.29590  0.38951  0.29912  Biso   1.000  C
  C74      1.0000 0.20410  0.61049  0.79912  Biso   1.000  C
  C75      1.0000 0.70410  0.88951  0.20088  Biso   1.000  C
  C76      1.0000 0.79590  0.11049  0.70088  Biso   1.000  C
  H85      1.0000 0.33210  0.36170  0.27700  Biso   1.000  H
  H86      1.0000 0.16790  0.63830  0.77700  Biso   1.000  H
  H87      1.0000 0.66790  0.86170  0.22300  Biso   1.000  H
  H88      1.0000 0.83210  0.13830  0.72300  Biso   1.000  H
  C77      1.0000 0.22610  0.37852  0.34753  Biso   1.000  C
  C78      1.0000 0.27390  0.62148  0.84753  Biso   1.000  C
  C79      1.0000 0.77390  0.87852  0.15247  Biso   1.000  C
  C80      1.0000 0.72610  0.12148  0.65247  Biso   1.000  C
  Cl5      1.0000 0.31525  0.70718  0.23655  Biso   1.000  Cl
  Cl6      1.0000 0.18475  0.29282  0.73655  Biso   1.000  Cl
  Cl7      1.0000 0.68475  0.20718  0.26345  Biso   1.000  Cl
  Cl8      1.0000 0.81525  0.79282  0.76345  Biso   1.000  Cl
  O13      1.0000 0.38590  0.65487  0.24279  Biso   1.000  O
  O14      1.0000 0.11410  0.34513  0.74279  Biso   1.000  O
  O15      1.0000 0.61410  0.15487  0.25721  Biso   1.000  O
  O16      1.0000 0.88590  0.84513  0.75721  Biso   1.000  O
  O17      1.0000 0.45090  0.74232  0.26367  Biso   1.000  O
  O18      1.0000 0.04910  0.25768  0.76367  Biso   1.000  O
  O19      1.0000 0.54910  0.24232  0.23633  Biso   1.000  O
  O20      1.0000 0.95090  0.75768  0.73633  Biso   1.000  O
  O21      1.0000 0.30910  0.72055  0.18392  Biso   1.000  O
  O22      1.0000 0.19090  0.27945  0.68392  Biso   1.000  O
  O23      1.0000 0.69090  0.22055  0.31608  Biso   1.000  O
  O24      1.0000 0.80910  0.77945  0.81608  Biso   1.000  O
  O25      1.0000 0.11440  0.71272  0.25888  Biso   1.000  O
  O26      1.0000 0.38560  0.28728  0.75888  Biso   1.000  O
  O27      1.0000 0.88560  0.21272  0.24112  Biso   1.000  O
  O28      1.0000 0.61440  0.78728  0.74112  Biso   1.000  O
  Cl9      1.0000 0.13170  0.51800  0.51355  Biso   1.000  Cl
  Cl10     1.0000 0.36830  0.48200  0.01355  Biso   1.000  Cl
  Cl11     1.0000 0.86830  0.01800  0.98645  Biso   1.000  Cl
  Cl12     1.0000 0.63170  0.98200  0.48645  Biso   1.000  Cl
  O29      1.0000 0.97690  0.48867  0.48540  Biso   1.000  O
  O30      1.0000 0.52310  0.51133  0.98540  Biso   1.000  O
  O31      1.0000 0.02310  0.98867  0.01460  Biso   1.000  O
  O32      1.0000 0.47690  0.01133  0.51460  Biso   1.000  O
  O33      1.0000 0.32640  0.49289  0.50616  Biso   1.000  O
  O34      1.0000 0.17360  0.50711  0.00616  Biso   1.000  O
  O35      1.0000 0.67360  0.99289  0.99384  Biso   1.000  O
  O36      1.0000 0.82640  0.00711  0.49384  Biso   1.000  O
  O37      1.0000 0.13710  0.57053  0.49490  Biso   1.000  O
  O38      1.0000 0.36290  0.42947  0.99490  Biso   1.000  O
  O39      1.0000 0.86290  0.07053  0.00510  Biso   1.000  O
  O40      1.0000 0.63710  0.92947  0.50510  Biso   1.000  O
  O41      1.0000 0.07740  0.51740  0.56630  Biso   1.000  O
  O42      1.0000 0.42260  0.48260  0.06630  Biso   1.000  O
  O43      1.0000 0.92260  0.01740  0.93370  Biso   1.000  O
  O44      1.0000 0.57740  0.98260  0.43370  Biso   1.000  O
  Cu5      1.0000 0.14189  0.77675  0.53313  Biso   1.000  Cu
  Cu6      1.0000 0.35811  0.22325  0.03313  Biso   1.000  Cu
  Cu7      1.0000 0.85811  0.27675  0.96687  Biso   1.000  Cu
  Cu8      1.0000 0.64189  0.72325  0.46687  Biso   1.000  Cu
  Cl13     1.0000 0.05891  0.71823  0.47063  Biso   1.000  Cl
  Cl14     1.0000 0.44109  0.28177  0.97063  Biso   1.000  Cl
  Cl15     1.0000 0.94109  0.21823  0.02937  Biso   1.000  Cl
  Cl16     1.0000 0.55891  0.78177  0.52937  Biso   1.000  Cl
  O45      1.0000 0.12110  0.94018  0.65143  Biso   1.000  O
  O46      1.0000 0.37890  0.05982  0.15143  Biso   1.000  O
  O47      1.0000 0.87890  0.44018  0.84857  Biso   1.000  O
  O48      1.0000 0.62110  0.55982  0.34857  Biso   1.000  O
  O49      1.0000 0.40800  0.89556  0.66664  Biso   1.000  O
  O50      1.0000 0.09200  0.10444  0.16664  Biso   1.000  O
  O51      1.0000 0.59200  0.39556  0.83336  Biso   1.000  O
  O52      1.0000 0.90800  0.60444  0.33336  Biso   1.000  O
  O53      1.0000 0.26290  0.80009  0.34067  Biso   1.000  O
  O54      1.0000 0.23710  0.19991  0.84067  Biso   1.000  O
  O55      1.0000 0.73710  0.30009  0.15933  Biso   1.000  O
  O56      1.0000 0.76290  0.69991  0.65933  Biso   1.000  O
  H89      1.0000 0.30400  0.78550  0.31620  Biso   1.000  H
  H90      1.0000 0.19600  0.21450  0.81620  Biso   1.000  H
  H91      1.0000 0.69600  0.28550  0.18380  Biso   1.000  H
  H92      1.0000 0.80400  0.71450  0.68380  Biso   1.000  H
  N17      1.0000 0.16520  0.72091  0.58516  Biso   1.000  N
  N18      1.0000 0.33480  0.27909  0.08516  Biso   1.000  N
  N19      1.0000 0.83480  0.22091  0.91484  Biso   1.000  N
  N20      1.0000 0.66520  0.77909  0.41484  Biso   1.000  N
  N21      1.0000 0.14500  0.82529  0.59751  Biso   1.000  N
  N22      1.0000 0.35500  0.17471  0.09751  Biso   1.000  N
  N23      1.0000 0.85500  0.32529  0.90249  Biso   1.000  N
  N24      1.0000 0.64500  0.67471  0.40249  Biso   1.000  N
  N25      1.0000 0.12560  0.83540  0.48568  Biso   1.000  N
  N26      1.0000 0.37440  0.16460  0.98568  Biso   1.000  N
  N27      1.0000 0.87440  0.33540  0.01432  Biso   1.000  N
  N28      1.0000 0.62560  0.66460  0.51432  Biso   1.000  N
  N29      1.0000 0.17140  0.87781  0.41374  Biso   1.000  N
  N30      1.0000 0.32860  0.12219  0.91374  Biso   1.000  N
  N31      1.0000 0.82860  0.37781  0.08626  Biso   1.000  N
  N32      1.0000 0.67140  0.62219  0.58626  Biso   1.000  N
  C81      1.0000 0.14050  0.66890  0.57827  Biso   1.000  C
  C82      1.0000 0.35950  0.33110  0.07827  Biso   1.000  C
  C83      1.0000 0.85950  0.16890  0.92173  Biso   1.000  C
  C84      1.0000 0.64050  0.83110  0.42173  Biso   1.000  C
  H93      1.0000 0.09540  0.65650  0.54620  Biso   1.000  H
  H94      1.0000 0.40460  0.34350  0.04620  Biso   1.000  H
  H95      1.0000 0.90460  0.15650  0.95380  Biso   1.000  H
  H96      1.0000 0.59540  0.84350  0.45380  Biso   1.000  H
  C85      1.0000 0.17890  0.63329  0.61651  Biso   1.000  C
  C86      1.0000 0.32110  0.36671  0.11651  Biso   1.000  C
  C87      1.0000 0.82110  0.13329  0.88349  Biso   1.000  C
  C88      1.0000 0.67890  0.86671  0.38349  Biso   1.000  C
  H97      1.0000 0.15940  0.59700  0.61080  Biso   1.000  H
  H98      1.0000 0.34060  0.40300  0.11080  Biso   1.000  H
  H99      1.0000 0.84060  0.09700  0.88920  Biso   1.000  H
  H100     1.0000 0.65940  0.90300  0.38920  Biso   1.000  H
  C89      1.0000 0.24610  0.65103  0.66325  Biso   1.000  C
  C90      1.0000 0.25390  0.34897  0.16325  Biso   1.000  C
  C91      1.0000 0.75390  0.15103  0.83675  Biso   1.000  C
  C92      1.0000 0.74610  0.84897  0.33675  Biso   1.000  C
  H101     1.0000 0.27470  0.62710  0.68990  Biso   1.000  H
  H102     1.0000 0.22530  0.37290  0.18990  Biso   1.000  H
  H103     1.0000 0.72530  0.12710  0.81010  Biso   1.000  H
  H104     1.0000 0.77470  0.87290  0.31010  Biso   1.000  H
  C93      1.0000 0.27080  0.70413  0.67068  Biso   1.000  C
  C94      1.0000 0.22920  0.29587  0.17068  Biso   1.000  C
  C95      1.0000 0.72920  0.20413  0.82932  Biso   1.000  C
  C96      1.0000 0.77080  0.79587  0.32932  Biso   1.000  C
  H105     1.0000 0.31540  0.71720  0.70260  Biso   1.000  H
  H106     1.0000 0.18460  0.28280  0.20260  Biso   1.000  H
  H107     1.0000 0.68460  0.21720  0.79740  Biso   1.000  H
  H108     1.0000 0.81540  0.78280  0.29740  Biso   1.000  H
  C97      1.0000 0.22950  0.73805  0.63076  Biso   1.000  C
  C98      1.0000 0.27050  0.26195  0.13076  Biso   1.000  C
  C99      1.0000 0.77050  0.23805  0.86924  Biso   1.000  C
  C100     1.0000 0.72950  0.76195  0.36924  Biso   1.000  C
  C101     1.0000 0.26580  0.79556  0.63576  Biso   1.000  C
  C102     1.0000 0.23420  0.20444  0.13576  Biso   1.000  C
  C103     1.0000 0.73420  0.29556  0.86424  Biso   1.000  C
  C104     1.0000 0.76580  0.70444  0.36424  Biso   1.000  C
  H109     1.0000 0.22670  0.80710  0.67030  Biso   1.000  H
  H110     1.0000 0.27330  0.19290  0.17030  Biso   1.000  H
  H111     1.0000 0.77330  0.30710  0.82970  Biso   1.000  H
  H112     1.0000 0.72670  0.69290  0.32970  Biso   1.000  H
  H113     1.0000 0.41300  0.80300  0.63100  Biso   1.000  H
  H114     1.0000 0.08700  0.19700  0.13100  Biso   1.000  H
  H115     1.0000 0.58700  0.30300  0.86900  Biso   1.000  H
  H116     1.0000 0.91300  0.69700  0.36900  Biso   1.000  H
  C105     1.0000 0.92890  0.82905  0.61524  Biso   1.000  C
  C106     1.0000 0.57110  0.17095  0.11524  Biso   1.000  C
  C107     1.0000 0.07110  0.32905  0.88476  Biso   1.000  C
  C108     1.0000 0.42890  0.67095  0.38476  Biso   1.000  C
  H117     1.0000 0.92300  0.85020  0.64620  Biso   1.000  H
  H118     1.0000 0.57700  0.14980  0.14620  Biso   1.000  H
  H119     1.0000 0.07700  0.35020  0.85380  Biso   1.000  H
  H120     1.0000 0.42300  0.64980  0.35380  Biso   1.000  H
  H121     1.0000 0.87630  0.79400  0.62240  Biso   1.000  H
  H122     1.0000 0.62370  0.20600  0.12240  Biso   1.000  H
  H123     1.0000 0.12370  0.29400  0.87760  Biso   1.000  H
  H124     1.0000 0.37630  0.70600  0.37760  Biso   1.000  H
  H125     1.0000 0.84540  0.84540  0.58880  Biso   1.000  H
  H126     1.0000 0.65460  0.15460  0.08880  Biso   1.000  H
  H127     1.0000 0.15460  0.34540  0.91120  Biso   1.000  H
  H128     1.0000 0.34540  0.65460  0.41120  Biso   1.000  H
  C109     1.0000 0.12860  0.91025  0.54866  Biso   1.000  C
  C110     1.0000 0.37140  0.08975  0.04866  Biso   1.000  C
  C111     1.0000 0.87140  0.41025  0.95134  Biso   1.000  C
  C112     1.0000 0.62860  0.58975  0.45134  Biso   1.000  C
  H129     1.0000 0.98280  0.91270  0.55840  Biso   1.000  H
  H130     1.0000 0.51720  0.08730  0.05840  Biso   1.000  H
  H131     1.0000 0.01720  0.41270  0.94160  Biso   1.000  H
  H132     1.0000 0.48280  0.58730  0.44160  Biso   1.000  H
  H133     1.0000 0.18520  0.94610  0.54840  Biso   1.000  H
  H134     1.0000 0.31480  0.05390  0.04840  Biso   1.000  H
  H135     1.0000 0.81480  0.44610  0.95160  Biso   1.000  H
  H136     1.0000 0.68520  0.55390  0.45160  Biso   1.000  H
  C113     1.0000 0.24170  0.87815  0.58869  Biso   1.000  C
  C114     1.0000 0.25830  0.12185  0.08869  Biso   1.000  C
  C115     1.0000 0.75830  0.37815  0.91131  Biso   1.000  C
  C116     1.0000 0.74170  0.62185  0.41131  Biso   1.000  C
  H137     1.0000 0.38540  0.87270  0.57690  Biso   1.000  H
  H138     1.0000 0.11460  0.12730  0.07690  Biso   1.000  H
  H139     1.0000 0.61460  0.37270  0.92310  Biso   1.000  H
  H140     1.0000 0.88540  0.62730  0.42310  Biso   1.000  H
  C117     1.0000 0.24710  0.90909  0.63865  Biso   1.000  C
  C118     1.0000 0.25290  0.09091  0.13865  Biso   1.000  C
  C119     1.0000 0.75290  0.40909  0.86135  Biso   1.000  C
  C120     1.0000 0.74710  0.59091  0.36135  Biso   1.000  C
  C121     1.0000 0.40930  0.91504  0.71835  Biso   1.000  C
  C122     1.0000 0.09070  0.08496  0.21835  Biso   1.000  C
  C123     1.0000 0.59070  0.41504  0.78165  Biso   1.000  C
  C124     1.0000 0.90930  0.58496  0.28165  Biso   1.000  C
  H141     1.0000 0.52610  0.90030  0.73670  Biso   1.000  H
  H142     1.0000 0.97390  0.09970  0.23670  Biso   1.000  H
  H143     1.0000 0.47390  0.40030  0.76330  Biso   1.000  H
  H144     1.0000 0.02610  0.59970  0.26330  Biso   1.000  H
  H145     1.0000 0.28230  0.90480  0.73540  Biso   1.000  H
  H146     1.0000 0.21770  0.09520  0.23540  Biso   1.000  H
  H147     1.0000 0.71770  0.40480  0.76460  Biso   1.000  H
  H148     1.0000 0.78230  0.59520  0.26460  Biso   1.000  H
  H149     1.0000 0.42030  0.95320  0.71790  Biso   1.000  H
  H150     1.0000 0.07970  0.04680  0.21790  Biso   1.000  H
  H151     1.0000 0.57970  0.45320  0.78210  Biso   1.000  H
  H152     1.0000 0.92030  0.54680  0.28210  Biso   1.000  H
  C125     1.0000 0.14240  0.88824  0.49633  Biso   1.000  C
  C126     1.0000 0.35760  0.11176  0.99633  Biso   1.000  C
  C127     1.0000 0.85760  0.38824  0.00367  Biso   1.000  C
  C128     1.0000 0.64240  0.61176  0.50367  Biso   1.000  C
  C129     1.0000 0.14300  0.83073  0.43570  Biso   1.000  C
  C130     1.0000 0.35700  0.16927  0.93570  Biso   1.000  C
  C131     1.0000 0.85700  0.33073  0.06430  Biso   1.000  C
  C132     1.0000 0.64300  0.66927  0.56430  Biso   1.000  C
  H153     1.0000 0.13630  0.79860  0.41780  Biso   1.000  H
  H154     1.0000 0.36370  0.20140  0.91780  Biso   1.000  H
  H155     1.0000 0.86370  0.29860  0.08220  Biso   1.000  H
  H156     1.0000 0.63630  0.70140  0.58220  Biso   1.000  H
  C133     1.0000 0.16990  0.91447  0.45243  Biso   1.000  C
  C134     1.0000 0.33010  0.08553  0.95243  Biso   1.000  C
  C135     1.0000 0.83010  0.41447  0.04757  Biso   1.000  C
  C136     1.0000 0.66990  0.58553  0.54757  Biso   1.000  C
  H157     1.0000 0.18540  0.95120  0.44870  Biso   1.000  H
  H158     1.0000 0.31460  0.04880  0.94870  Biso   1.000  H
  H159     1.0000 0.81460  0.45120  0.05130  Biso   1.000  H
  H160     1.0000 0.68540  0.54880  0.55130  Biso   1.000  H
  C137     1.0000 0.22860  0.84974  0.32495  Biso   1.000  C
  C138     1.0000 0.27140  0.15026  0.82495  Biso   1.000  C
  C139     1.0000 0.77140  0.34974  0.17505  Biso   1.000  C
  C140     1.0000 0.72860  0.65026  0.67505  Biso   1.000  C
  C141     1.0000 0.23100  0.86288  0.27326  Biso   1.000  C
  C142     1.0000 0.26900  0.13712  0.77326  Biso   1.000  C
  C143     1.0000 0.76900  0.36288  0.22674  Biso   1.000  C
  C144     1.0000 0.73100  0.63712  0.72674  Biso   1.000  C
  H161     1.0000 0.25650  0.83650  0.24870  Biso   1.000  H
  H162     1.0000 0.24350  0.16350  0.74870  Biso   1.000  H
  H163     1.0000 0.74350  0.33650  0.25130  Biso   1.000  H
  H164     1.0000 0.75650  0.66350  0.75130  Biso   1.000  H
  C145     1.0000 0.19670  0.91355  0.25751  Biso   1.000  C
  C146     1.0000 0.30330  0.08645  0.75751  Biso   1.000  C
  C147     1.0000 0.80330  0.41355  0.24249  Biso   1.000  C
  C148     1.0000 0.69670  0.58645  0.74249  Biso   1.000  C
  H165     1.0000 0.19650  0.92170  0.22230  Biso   1.000  H
  H166     1.0000 0.30350  0.07830  0.72230  Biso   1.000  H
  H167     1.0000 0.80350  0.42170  0.27770  Biso   1.000  H
  H168     1.0000 0.69650  0.57830  0.77770  Biso   1.000  H
  C149     1.0000 0.16270  0.95248  0.29303  Biso   1.000  C
  C150     1.0000 0.33730  0.04752  0.79303  Biso   1.000  C
  C151     1.0000 0.83730  0.45248  0.20697  Biso   1.000  C
  C152     1.0000 0.66270  0.54752  0.70697  Biso   1.000  C
  H169     1.0000 0.14410  0.98760  0.28240  Biso   1.000  H
  H170     1.0000 0.35590  0.01240  0.78240  Biso   1.000  H
  H171     1.0000 0.85590  0.48760  0.21760  Biso   1.000  H
  H172     1.0000 0.64410  0.51240  0.71760  Biso   1.000  H
  C153     1.0000 0.15610  0.93988  0.34429  Biso   1.000  C
  C154     1.0000 0.34390  0.06012  0.84429  Biso   1.000  C
  C155     1.0000 0.84390  0.43988  0.15571  Biso   1.000  C
  C156     1.0000 0.65610  0.56012  0.65571  Biso   1.000  C
  H173     1.0000 0.12940  0.96650  0.36850  Biso   1.000  H
  H174     1.0000 0.37060  0.03350  0.86850  Biso   1.000  H
  H175     1.0000 0.87060  0.46650  0.13150  Biso   1.000  H
  H176     1.0000 0.62940  0.53350  0.63150  Biso   1.000  H
  C157     1.0000 0.18790  0.88905  0.36064  Biso   1.000  C
  C158     1.0000 0.31210  0.11095  0.86064  Biso   1.000  C
  C159     1.0000 0.81210  0.38905  0.13936  Biso   1.000  C
  C160     1.0000 0.68790  0.61095  0.63936  Biso   1.000  C
