data_image0
_cell_length_a       6.6563
_cell_length_b       16.198
_cell_length_c       20.176
_cell_angle_alpha    90
_cell_angle_beta     90
_cell_angle_gamma    90

_symmetry_space_group_name_H-M    "P 1"
_symmetry_int_tables_number       1

loop_
  _symmetry_equiv_pos_as_xyz
  'x, y, z'

loop_
  _atom_site_label
  _atom_site_occupancy
  _atom_site_fract_x
  _atom_site_fract_y
  _atom_site_fract_z
  _atom_site_thermal_displace_type
  _atom_site_B_iso_or_equiv
  _atom_site_type_symbol
  Cu1      1.0000 0.57894  0.74919  0.55347  Biso   1.000  Cu
  Cu2      1.0000 0.92106  0.25081  0.05347  Biso   1.000  Cu
  Cu3      1.0000 0.42106  0.24919  0.94653  Biso   1.000  Cu
  Cu4      1.0000 0.07894  0.75081  0.44653  Biso   1.000  Cu
  Cl1      1.0000 0.66585  0.75825  0.44425  Biso   1.000  Cl
  Cl2      1.0000 0.83415  0.24175  0.94425  Biso   1.000  Cl
  Cl3      1.0000 0.33415  0.25825  0.05575  Biso   1.000  Cl
  Cl4      1.0000 0.16585  0.74175  0.55575  Biso   1.000  Cl
  O1       1.0000 0.46230  0.52408  0.37457  Biso   1.000  O
  O2       1.0000 0.03770  0.47592  0.87457  Biso   1.000  O
  O3       1.0000 0.53770  0.02408  0.12543  Biso   1.000  O
  O4       1.0000 0.96230  0.97592  0.62543  Biso   1.000  O
  H1       1.0000 0.44000  0.52400  0.33530  Biso   1.000  H
  H2       1.0000 0.06000  0.47600  0.83530  Biso   1.000  H
  H3       1.0000 0.56000  0.02400  0.16470  Biso   1.000  H
  H4       1.0000 0.94000  0.97600  0.66470  Biso   1.000  H
  O5       1.0000 0.31740  0.74956  0.78443  Biso   1.000  O
  O6       1.0000 0.18260  0.25044  0.28443  Biso   1.000  O
  O7       1.0000 0.68260  0.24956  0.71557  Biso   1.000  O
  O8       1.0000 0.81740  0.75044  0.21557  Biso   1.000  O
  N1       1.0000 0.59540  0.62813  0.55013  Biso   1.000  N
  N2       1.0000 0.90460  0.37187  0.05013  Biso   1.000  N
  N3       1.0000 0.40460  0.12813  0.94987  Biso   1.000  N
  N4       1.0000 0.09540  0.87187  0.44987  Biso   1.000  N
  N5       1.0000 0.55830  0.50277  0.50935  Biso   1.000  N
  N6       1.0000 0.94170  0.49723  0.00935  Biso   1.000  N
  N7       1.0000 0.44170  0.00277  0.99065  Biso   1.000  N
  N8       1.0000 0.05830  0.99723  0.49065  Biso   1.000  N
  N9       1.0000 0.56980  0.75366  0.65706  Biso   1.000  N
  N10      1.0000 0.93020  0.24634  0.15706  Biso   1.000  N
  N11      1.0000 0.43020  0.25366  0.84294  Biso   1.000  N
  N12      1.0000 0.06980  0.74634  0.34294  Biso   1.000  N
  N13      1.0000 0.56430  0.87197  0.56214  Biso   1.000  N
  N14      1.0000 0.93570  0.12803  0.06214  Biso   1.000  N
  N15      1.0000 0.43570  0.37197  0.93786  Biso   1.000  N
  N16      1.0000 0.06430  0.62803  0.43786  Biso   1.000  N
  C1       1.0000 0.51020  0.44701  0.39578  Biso   1.000  C
  C2       1.0000 0.98980  0.55299  0.89578  Biso   1.000  C
  C3       1.0000 0.48980  0.94701  0.10422  Biso   1.000  C
  C4       1.0000 0.01020  0.05299  0.60422  Biso   1.000  C
  C5       1.0000 0.51760  0.37909  0.35331  Biso   1.000  C
  C6       1.0000 0.98240  0.62091  0.85331  Biso   1.000  C
  C7       1.0000 0.48240  0.87909  0.14669  Biso   1.000  C
  C8       1.0000 0.01760  0.12091  0.64669  Biso   1.000  C
  H5       1.0000 0.48560  0.38600  0.30780  Biso   1.000  H
  H6       1.0000 0.01440  0.61400  0.80780  Biso   1.000  H
  H7       1.0000 0.51440  0.88600  0.19220  Biso   1.000  H
  H8       1.0000 0.98560  0.11400  0.69220  Biso   1.000  H
  C9       1.0000 0.57070  0.30186  0.37651  Biso   1.000  C
  C10      1.0000 0.92930  0.69814  0.87651  Biso   1.000  C
  C11      1.0000 0.42930  0.80186  0.12349  Biso   1.000  C
  C12      1.0000 0.07070  0.19814  0.62349  Biso   1.000  C
  H9       1.0000 0.57330  0.25630  0.34690  Biso   1.000  H
  H10      1.0000 0.92670  0.74370  0.84690  Biso   1.000  H
  H11      1.0000 0.42670  0.75630  0.15310  Biso   1.000  H
  H12      1.0000 0.07330  0.24370  0.65310  Biso   1.000  H
  C13      1.0000 0.62020  0.29027  0.44247  Biso   1.000  C
  C14      1.0000 0.87980  0.70973  0.94247  Biso   1.000  C
  C15      1.0000 0.37980  0.79027  0.05753  Biso   1.000  C
  C16      1.0000 0.12020  0.20973  0.55753  Biso   1.000  C
  H13      1.0000 0.65780  0.23720  0.45820  Biso   1.000  H
  H14      1.0000 0.84220  0.76280  0.95820  Biso   1.000  H
  H15      1.0000 0.34220  0.73720  0.04180  Biso   1.000  H
  H16      1.0000 0.15780  0.26280  0.54180  Biso   1.000  H
  C17      1.0000 0.61390  0.35754  0.48546  Biso   1.000  C
  C18      1.0000 0.88610  0.64246  0.98546  Biso   1.000  C
  C19      1.0000 0.38610  0.85754  0.01454  Biso   1.000  C
  C20      1.0000 0.11390  0.14246  0.51454  Biso   1.000  C
  H17      1.0000 0.64810  0.35010  0.53080  Biso   1.000  H
  H18      1.0000 0.85190  0.64990  0.03080  Biso   1.000  H
  H19      1.0000 0.35190  0.85010  0.96920  Biso   1.000  H
  H20      1.0000 0.14810  0.14990  0.46920  Biso   1.000  H
  C21      1.0000 0.55820  0.43549  0.46288  Biso   1.000  C
  C22      1.0000 0.94180  0.56451  0.96288  Biso   1.000  C
  C23      1.0000 0.44180  0.93549  0.03712  Biso   1.000  C
  C24      1.0000 0.05820  0.06451  0.53712  Biso   1.000  C
  C25      1.0000 0.59220  0.58319  0.49514  Biso   1.000  C
  C26      1.0000 0.90780  0.41681  0.99514  Biso   1.000  C
  C27      1.0000 0.40780  0.08319  0.00486  Biso   1.000  C
  C28      1.0000 0.09220  0.91681  0.50486  Biso   1.000  C
  H21      1.0000 0.61100  0.60460  0.45170  Biso   1.000  H
  H22      1.0000 0.88900  0.39540  0.95170  Biso   1.000  H
  H23      1.0000 0.38900  0.10460  0.04830  Biso   1.000  H
  H24      1.0000 0.11100  0.89540  0.54830  Biso   1.000  H
  C29      1.0000 0.53970  0.49650  0.57751  Biso   1.000  C
  C30      1.0000 0.96030  0.50350  0.07751  Biso   1.000  C
  C31      1.0000 0.46030  0.99650  0.92249  Biso   1.000  C
  C32      1.0000 0.03970  0.00350  0.42249  Biso   1.000  C
  H25      1.0000 0.51500  0.44760  0.60210  Biso   1.000  H
  H26      1.0000 0.98500  0.55240  0.10210  Biso   1.000  H
  H27      1.0000 0.48500  0.94760  0.89790  Biso   1.000  H
  H28      1.0000 0.01500  0.05240  0.39790  Biso   1.000  H
  C33      1.0000 0.56380  0.57414  0.60251  Biso   1.000  C
  C34      1.0000 0.93620  0.42586  0.10251  Biso   1.000  C
  C35      1.0000 0.43620  0.07414  0.89749  Biso   1.000  C
  C36      1.0000 0.06380  0.92586  0.39749  Biso   1.000  C
  C37      1.0000 0.56730  0.59911  0.67319  Biso   1.000  C
  C38      1.0000 0.93270  0.40089  0.17319  Biso   1.000  C
  C39      1.0000 0.43270  0.09911  0.82681  Biso   1.000  C
  C40      1.0000 0.06730  0.90089  0.32681  Biso   1.000  C
  H29      1.0000 0.70910  0.60230  0.68770  Biso   1.000  H
  H30      1.0000 0.79090  0.39770  0.18770  Biso   1.000  H
  H31      1.0000 0.29090  0.10230  0.81230  Biso   1.000  H
  H32      1.0000 0.20910  0.89770  0.31230  Biso   1.000  H
  H33      1.0000 0.50170  0.55520  0.69960  Biso   1.000  H
  H34      1.0000 0.99830  0.44480  0.19960  Biso   1.000  H
  H35      1.0000 0.49830  0.05520  0.80040  Biso   1.000  H
  H36      1.0000 0.00170  0.94480  0.30040  Biso   1.000  H
  C41      1.0000 0.46550  0.68106  0.68954  Biso   1.000  C
  C42      1.0000 0.03450  0.31894  0.18954  Biso   1.000  C
  C43      1.0000 0.53450  0.18106  0.81046  Biso   1.000  C
  C44      1.0000 0.96550  0.81894  0.31046  Biso   1.000  C
  H37      1.0000 0.32540  0.67870  0.67180  Biso   1.000  H
  H38      1.0000 0.17460  0.32130  0.17180  Biso   1.000  H
  H39      1.0000 0.67460  0.17870  0.82820  Biso   1.000  H
  H40      1.0000 0.82540  0.82130  0.32820  Biso   1.000  H
  C45      1.0000 0.45130  0.68704  0.76494  Biso   1.000  C
  C46      1.0000 0.04870  0.31296  0.26494  Biso   1.000  C
  C47      1.0000 0.54870  0.18704  0.73506  Biso   1.000  C
  C48      1.0000 0.95130  0.81296  0.23506  Biso   1.000  C
  H41      1.0000 0.40530  0.63350  0.78310  Biso   1.000  H
  H42      1.0000 0.09470  0.36650  0.28310  Biso   1.000  H
  H43      1.0000 0.59470  0.13350  0.71690  Biso   1.000  H
  H44      1.0000 0.90530  0.86650  0.21690  Biso   1.000  H
  H45      1.0000 0.58610  0.69870  0.78340  Biso   1.000  H
  H46      1.0000 0.91390  0.30130  0.28340  Biso   1.000  H
  H47      1.0000 0.41390  0.19870  0.71660  Biso   1.000  H
  H48      1.0000 0.08610  0.80130  0.21660  Biso   1.000  H
  C49      1.0000 0.36450  0.78278  0.84779  Biso   1.000  C
  C50      1.0000 0.13550  0.21722  0.34779  Biso   1.000  C
  C51      1.0000 0.63550  0.28278  0.65221  Biso   1.000  C
  C52      1.0000 0.86450  0.71722  0.15221  Biso   1.000  C
  H49      1.0000 0.27180  0.82800  0.85800  Biso   1.000  H
  H50      1.0000 0.22820  0.17200  0.35800  Biso   1.000  H
  H51      1.0000 0.72820  0.32800  0.64200  Biso   1.000  H
  H52      1.0000 0.77180  0.67200  0.14200  Biso   1.000  H
  H53      1.0000 0.50260  0.80370  0.84760  Biso   1.000  H
  H54      1.0000 0.99740  0.19630  0.34760  Biso   1.000  H
  H55      1.0000 0.49740  0.30370  0.65240  Biso   1.000  H
  H56      1.0000 0.00260  0.69630  0.15240  Biso   1.000  H
  H57      1.0000 0.35140  0.73950  0.88150  Biso   1.000  H
  H58      1.0000 0.14860  0.26050  0.38150  Biso   1.000  H
  H59      1.0000 0.64860  0.23950  0.61850  Biso   1.000  H
  H60      1.0000 0.85140  0.76050  0.11850  Biso   1.000  H
  C53      1.0000 0.46270  0.83198  0.67325  Biso   1.000  C
  C54      1.0000 0.03730  0.16802  0.17325  Biso   1.000  C
  C55      1.0000 0.53730  0.33198  0.82675  Biso   1.000  C
  C56      1.0000 0.96270  0.66802  0.32675  Biso   1.000  C
  H61      1.0000 0.50670  0.85180  0.71740  Biso   1.000  H
  H62      1.0000 0.99330  0.14820  0.21740  Biso   1.000  H
  H63      1.0000 0.49330  0.35180  0.78260  Biso   1.000  H
  H64      1.0000 0.00670  0.64820  0.28260  Biso   1.000  H
  H65      1.0000 0.31640  0.82130  0.67530  Biso   1.000  H
  H66      1.0000 0.18360  0.17870  0.17530  Biso   1.000  H
  H67      1.0000 0.68360  0.32130  0.82470  Biso   1.000  H
  H68      1.0000 0.81640  0.67870  0.32470  Biso   1.000  H
  C57      1.0000 0.50380  0.89747  0.62242  Biso   1.000  C
  C58      1.0000 0.99620  0.10253  0.12242  Biso   1.000  C
  C59      1.0000 0.49620  0.39747  0.87758  Biso   1.000  C
  C60      1.0000 0.00380  0.60253  0.37758  Biso   1.000  C
  C61      1.0000 0.47000  0.98061  0.63650  Biso   1.000  C
  C62      1.0000 0.03000  0.01939  0.13650  Biso   1.000  C
  C63      1.0000 0.53000  0.48061  0.86350  Biso   1.000  C
  C64      1.0000 0.97000  0.51939  0.36350  Biso   1.000  C
  H69      1.0000 0.42780  0.99740  0.67940  Biso   1.000  H
  H70      1.0000 0.07220  0.00260  0.17940  Biso   1.000  H
  H71      1.0000 0.57220  0.49740  0.82060  Biso   1.000  H
  H72      1.0000 0.92780  0.50260  0.32060  Biso   1.000  H
  C65      1.0000 0.49920  0.03831  0.58662  Biso   1.000  C
  C66      1.0000 0.00080  0.96169  0.08662  Biso   1.000  C
  C67      1.0000 0.50080  0.53831  0.91338  Biso   1.000  C
  C68      1.0000 0.99920  0.46169  0.41338  Biso   1.000  C
  H73      1.0000 0.47730  0.09530  0.59500  Biso   1.000  H
  H74      1.0000 0.02270  0.90470  0.09500  Biso   1.000  H
  H75      1.0000 0.52270  0.59530  0.90500  Biso   1.000  H
  H76      1.0000 0.97730  0.40470  0.40500  Biso   1.000  H
  C69      1.0000 0.56070  0.01196  0.52445  Biso   1.000  C
  C70      1.0000 0.93930  0.98804  0.02445  Biso   1.000  C
  C71      1.0000 0.43930  0.51196  0.97555  Biso   1.000  C
  C72      1.0000 0.06070  0.48804  0.47555  Biso   1.000  C
  H77      1.0000 0.58070  0.05060  0.48960  Biso   1.000  H
  H78      1.0000 0.91930  0.94940  0.98960  Biso   1.000  H
  H79      1.0000 0.41930  0.55060  0.01040  Biso   1.000  H
  H80      1.0000 0.08070  0.44940  0.51040  Biso   1.000  H
  C73      1.0000 0.59250  0.92876  0.51391  Biso   1.000  C
  C74      1.0000 0.90750  0.07124  0.01391  Biso   1.000  C
  C75      1.0000 0.40750  0.42876  0.98609  Biso   1.000  C
  C76      1.0000 0.09250  0.57124  0.48609  Biso   1.000  C
  H81      1.0000 0.63550  0.91080  0.47140  Biso   1.000  H
  H82      1.0000 0.86450  0.08920  0.97140  Biso   1.000  H
  H83      1.0000 0.36450  0.41080  0.02860  Biso   1.000  H
  H84      1.0000 0.13550  0.58920  0.52860  Biso   1.000  H
  C77      1.0000 0.78490  0.76205  0.67739  Biso   1.000  C
  C78      1.0000 0.71510  0.23795  0.17739  Biso   1.000  C
  C79      1.0000 0.21510  0.26205  0.82261  Biso   1.000  C
  C80      1.0000 0.28490  0.73795  0.32261  Biso   1.000  C
  H85      1.0000 0.79280  0.76870  0.72560  Biso   1.000  H
  H86      1.0000 0.70720  0.23130  0.22560  Biso   1.000  H
  H87      1.0000 0.20720  0.26870  0.77440  Biso   1.000  H
  H88      1.0000 0.29280  0.73130  0.27440  Biso   1.000  H
  H89      1.0000 0.84380  0.81050  0.65570  Biso   1.000  H
  H90      1.0000 0.65620  0.18950  0.15570  Biso   1.000  H
  H91      1.0000 0.15620  0.31050  0.84430  Biso   1.000  H
  H92      1.0000 0.34380  0.68950  0.34430  Biso   1.000  H
  H93      1.0000 0.85910  0.71240  0.66420  Biso   1.000  H
  H94      1.0000 0.64090  0.28760  0.16420  Biso   1.000  H
  H95      1.0000 0.14090  0.21240  0.83580  Biso   1.000  H
  H96      1.0000 0.35910  0.78760  0.33580  Biso   1.000  H
  Cl5      1.0000 0.43748  0.53364  0.19412  Biso   1.000  Cl
  Cl6      1.0000 0.06252  0.46636  0.69412  Biso   1.000  Cl
  Cl7      1.0000 0.56252  0.03364  0.30588  Biso   1.000  Cl
  Cl8      1.0000 0.93748  0.96636  0.80588  Biso   1.000  Cl
  O9       1.0000 0.43290  0.45344  0.16362  Biso   1.000  O
  O10      1.0000 0.06710  0.54656  0.66362  Biso   1.000  O
  O11      1.0000 0.56710  0.95344  0.33638  Biso   1.000  O
  O12      1.0000 0.93290  0.04656  0.83638  Biso   1.000  O
  O13      1.0000 0.38350  0.59516  0.14680  Biso   1.000  O
  O14      1.0000 0.11650  0.40484  0.64680  Biso   1.000  O
  O15      1.0000 0.61650  0.09516  0.35320  Biso   1.000  O
  O16      1.0000 0.88350  0.90484  0.85320  Biso   1.000  O
  O17      1.0000 0.63300  0.55052  0.22168  Biso   1.000  O
  O18      1.0000 0.86700  0.44948  0.72168  Biso   1.000  O
  O19      1.0000 0.36700  0.05052  0.27832  Biso   1.000  O
  O20      1.0000 0.13300  0.94948  0.77832  Biso   1.000  O
  O21      1.0000 0.29490  0.53386  0.24909  Biso   1.000  O
  O22      1.0000 0.20510  0.46614  0.74909  Biso   1.000  O
  O23      1.0000 0.70510  0.03386  0.25091  Biso   1.000  O
  O24      1.0000 0.79490  0.96614  0.75091  Biso   1.000  O
