data_image0
_cell_length_a       6.6825
_cell_length_b       16.2052
_cell_length_c       20.21
_cell_angle_alpha    90
_cell_angle_beta     90
_cell_angle_gamma    90

_symmetry_space_group_name_H-M    "P 1"
_symmetry_int_tables_number       1

loop_
  _symmetry_equiv_pos_as_xyz
  'x, y, z'

loop_
  _atom_site_label
  _atom_site_occupancy
  _atom_site_fract_x
  _atom_site_fract_y
  _atom_site_fract_z
  _atom_site_thermal_displace_type
  _atom_site_B_iso_or_equiv
  _atom_site_type_symbol
  Cu1      1.0000 0.41744  0.74926  0.44678  Biso   1.000  Cu
  Cu2      1.0000 0.08256  0.25074  0.94678  Biso   1.000  Cu
  Cu3      1.0000 0.58256  0.24926  0.05322  Biso   1.000  Cu
  Cu4      1.0000 0.91744  0.75074  0.55322  Biso   1.000  Cu
  Cl1      1.0000 0.33038  0.75854  0.55551  Biso   1.000  Cl
  Cl2      1.0000 0.16962  0.24146  0.05551  Biso   1.000  Cl
  Cl3      1.0000 0.66962  0.25854  0.94449  Biso   1.000  Cl
  Cl4      1.0000 0.83038  0.74146  0.44449  Biso   1.000  Cl
  O1       1.0000 0.53100  0.52404  0.62529  Biso   1.000  O
  O2       1.0000 0.96900  0.47596  0.12529  Biso   1.000  O
  O3       1.0000 0.46900  0.02404  0.87471  Biso   1.000  O
  O4       1.0000 0.03100  0.97596  0.37471  Biso   1.000  O
  H1       1.0000 0.53780  0.52390  0.66680  Biso   1.000  H
  H2       1.0000 0.96220  0.47610  0.16680  Biso   1.000  H
  H3       1.0000 0.46220  0.02390  0.83320  Biso   1.000  H
  H4       1.0000 0.03780  0.97610  0.33320  Biso   1.000  H
  O5       1.0000 0.67890  0.74920  0.21676  Biso   1.000  O
  O6       1.0000 0.82110  0.25080  0.71676  Biso   1.000  O
  O7       1.0000 0.32110  0.24920  0.28324  Biso   1.000  O
  O8       1.0000 0.17890  0.75080  0.78324  Biso   1.000  O
  N1       1.0000 0.43850  0.50370  0.49102  Biso   1.000  N
  N2       1.0000 0.06150  0.49630  0.99102  Biso   1.000  N
  N3       1.0000 0.56150  0.00370  0.00898  Biso   1.000  N
  N4       1.0000 0.93850  0.99630  0.50898  Biso   1.000  N
  N5       1.0000 0.40160  0.62866  0.45022  Biso   1.000  N
  N6       1.0000 0.09840  0.37134  0.95022  Biso   1.000  N
  N7       1.0000 0.59840  0.12866  0.04978  Biso   1.000  N
  N8       1.0000 0.90160  0.87134  0.54978  Biso   1.000  N
  N9       1.0000 0.42660  0.75370  0.34349  Biso   1.000  N
  N10      1.0000 0.07340  0.24630  0.84349  Biso   1.000  N
  N11      1.0000 0.57340  0.25370  0.15651  Biso   1.000  N
  N12      1.0000 0.92660  0.74630  0.65651  Biso   1.000  N
  N13      1.0000 0.43290  0.87186  0.43821  Biso   1.000  N
  N14      1.0000 0.06710  0.12814  0.93821  Biso   1.000  N
  N15      1.0000 0.56710  0.37186  0.06179  Biso   1.000  N
  N16      1.0000 0.93290  0.62814  0.56179  Biso   1.000  N
  C1       1.0000 0.48560  0.44740  0.60360  Biso   1.000  C
  C2       1.0000 0.01440  0.55260  0.10360  Biso   1.000  C
  C3       1.0000 0.51440  0.94740  0.89640  Biso   1.000  C
  C4       1.0000 0.98560  0.05260  0.39640  Biso   1.000  C
  C5       1.0000 0.48030  0.37890  0.64590  Biso   1.000  C
  C6       1.0000 0.01970  0.62110  0.14590  Biso   1.000  C
  C7       1.0000 0.51970  0.87890  0.85410  Biso   1.000  C
  C8       1.0000 0.98030  0.12110  0.35410  Biso   1.000  C
  H5       1.0000 0.51310  0.38560  0.69140  Biso   1.000  H
  H6       1.0000 0.98690  0.61440  0.19140  Biso   1.000  H
  H7       1.0000 0.48690  0.88560  0.80860  Biso   1.000  H
  H8       1.0000 0.01310  0.11440  0.30860  Biso   1.000  H
  C9       1.0000 0.42830  0.30240  0.62240  Biso   1.000  C
  C10      1.0000 0.07170  0.69760  0.12240  Biso   1.000  C
  C11      1.0000 0.57170  0.80240  0.87760  Biso   1.000  C
  C12      1.0000 0.92830  0.19760  0.37760  Biso   1.000  C
  H9       1.0000 0.42590  0.25670  0.65190  Biso   1.000  H
  H10      1.0000 0.07410  0.74330  0.15190  Biso   1.000  H
  H11      1.0000 0.57410  0.75670  0.84810  Biso   1.000  H
  H12      1.0000 0.92590  0.24330  0.34810  Biso   1.000  H
  C13      1.0000 0.38000  0.29080  0.55720  Biso   1.000  C
  C14      1.0000 0.12000  0.70920  0.05720  Biso   1.000  C
  C15      1.0000 0.62000  0.79080  0.94280  Biso   1.000  C
  C16      1.0000 0.88000  0.20920  0.44280  Biso   1.000  C
  H13      1.0000 0.34240  0.23780  0.54150  Biso   1.000  H
  H14      1.0000 0.15760  0.76220  0.04150  Biso   1.000  H
  H15      1.0000 0.65760  0.73780  0.95850  Biso   1.000  H
  H16      1.0000 0.84240  0.26220  0.45850  Biso   1.000  H
  C17      1.0000 0.38710  0.35830  0.51440  Biso   1.000  C
  C18      1.0000 0.11290  0.64170  0.01440  Biso   1.000  C
  C19      1.0000 0.61290  0.85830  0.98560  Biso   1.000  C
  C20      1.0000 0.88710  0.14170  0.48560  Biso   1.000  C
  H17      1.0000 0.35610  0.35070  0.46890  Biso   1.000  H
  H18      1.0000 0.14390  0.64930  0.96890  Biso   1.000  H
  H19      1.0000 0.64390  0.85070  0.03110  Biso   1.000  H
  H20      1.0000 0.85610  0.14930  0.53110  Biso   1.000  H
  C21      1.0000 0.43830  0.43580  0.53705  Biso   1.000  C
  C22      1.0000 0.06170  0.56420  0.03705  Biso   1.000  C
  C23      1.0000 0.56170  0.93580  0.96295  Biso   1.000  C
  C24      1.0000 0.93830  0.06420  0.46295  Biso   1.000  C
  C25      1.0000 0.40510  0.58370  0.50454  Biso   1.000  C
  C26      1.0000 0.09490  0.41630  0.00454  Biso   1.000  C
  C27      1.0000 0.59490  0.08370  0.99546  Biso   1.000  C
  C28      1.0000 0.90510  0.91630  0.49546  Biso   1.000  C
  H21      1.0000 0.38630  0.60520  0.54780  Biso   1.000  H
  H22      1.0000 0.11370  0.39480  0.04780  Biso   1.000  H
  H23      1.0000 0.61370  0.10520  0.95220  Biso   1.000  H
  H24      1.0000 0.88630  0.89480  0.45220  Biso   1.000  H
  C29      1.0000 0.45570  0.49730  0.42282  Biso   1.000  C
  C30      1.0000 0.04430  0.50270  0.92282  Biso   1.000  C
  C31      1.0000 0.54430  0.99730  0.07718  Biso   1.000  C
  C32      1.0000 0.95570  0.00270  0.57718  Biso   1.000  C
  H25      1.0000 0.47930  0.44820  0.39830  Biso   1.000  H
  H26      1.0000 0.02070  0.55180  0.89830  Biso   1.000  H
  H27      1.0000 0.52070  0.94820  0.10170  Biso   1.000  H
  H28      1.0000 0.97930  0.05180  0.60170  Biso   1.000  H
  C33      1.0000 0.43270  0.57370  0.39782  Biso   1.000  C
  C34      1.0000 0.06730  0.42630  0.89782  Biso   1.000  C
  C35      1.0000 0.56730  0.07370  0.10218  Biso   1.000  C
  C36      1.0000 0.93270  0.92630  0.60218  Biso   1.000  C
  C37      1.0000 0.42690  0.59970  0.32772  Biso   1.000  C
  C38      1.0000 0.07310  0.40030  0.82772  Biso   1.000  C
  C39      1.0000 0.57310  0.09970  0.17228  Biso   1.000  C
  C40      1.0000 0.92690  0.90030  0.67228  Biso   1.000  C
  H29      1.0000 0.28500  0.60360  0.31400  Biso   1.000  H
  H30      1.0000 0.21500  0.39640  0.81400  Biso   1.000  H
  H31      1.0000 0.71500  0.10360  0.18600  Biso   1.000  H
  H32      1.0000 0.78500  0.89640  0.68600  Biso   1.000  H
  H33      1.0000 0.48970  0.55570  0.30080  Biso   1.000  H
  H34      1.0000 0.01030  0.44430  0.80080  Biso   1.000  H
  H35      1.0000 0.51030  0.05570  0.19920  Biso   1.000  H
  H36      1.0000 0.98970  0.94430  0.69920  Biso   1.000  H
  C41      1.0000 0.52930  0.68120  0.31110  Biso   1.000  C
  C42      1.0000 0.97070  0.31880  0.81110  Biso   1.000  C
  C43      1.0000 0.47070  0.18120  0.18890  Biso   1.000  C
  C44      1.0000 0.02930  0.81880  0.68890  Biso   1.000  C
  H37      1.0000 0.66880  0.67860  0.32890  Biso   1.000  H
  H38      1.0000 0.83120  0.32140  0.82890  Biso   1.000  H
  H39      1.0000 0.33120  0.17860  0.17110  Biso   1.000  H
  H40      1.0000 0.16880  0.82140  0.67110  Biso   1.000  H
  C45      1.0000 0.54400  0.68700  0.23589  Biso   1.000  C
  C46      1.0000 0.95600  0.31300  0.73589  Biso   1.000  C
  C47      1.0000 0.45600  0.18700  0.26411  Biso   1.000  C
  C48      1.0000 0.04400  0.81300  0.76411  Biso   1.000  C
  H41      1.0000 0.58910  0.63340  0.21780  Biso   1.000  H
  H42      1.0000 0.91090  0.36660  0.71780  Biso   1.000  H
  H43      1.0000 0.41090  0.13340  0.28220  Biso   1.000  H
  H44      1.0000 0.08910  0.86660  0.78220  Biso   1.000  H
  H45      1.0000 0.41010  0.69920  0.21730  Biso   1.000  H
  H46      1.0000 0.08990  0.30080  0.71730  Biso   1.000  H
  H47      1.0000 0.58990  0.19920  0.28270  Biso   1.000  H
  H48      1.0000 0.91010  0.80080  0.78270  Biso   1.000  H
  C49      1.0000 0.63320  0.78210  0.15320  Biso   1.000  C
  C50      1.0000 0.86680  0.21790  0.65320  Biso   1.000  C
  C51      1.0000 0.36680  0.28210  0.34680  Biso   1.000  C
  C52      1.0000 0.13320  0.71790  0.84680  Biso   1.000  C
  H49      1.0000 0.72710  0.82670  0.14280  Biso   1.000  H
  H50      1.0000 0.77290  0.17330  0.64280  Biso   1.000  H
  H51      1.0000 0.27290  0.32670  0.35720  Biso   1.000  H
  H52      1.0000 0.22710  0.67330  0.85720  Biso   1.000  H
  H53      1.0000 0.49630  0.80380  0.15320  Biso   1.000  H
  H54      1.0000 0.00370  0.19620  0.65320  Biso   1.000  H
  H55      1.0000 0.50370  0.30380  0.34680  Biso   1.000  H
  H56      1.0000 0.99630  0.69620  0.84680  Biso   1.000  H
  H57      1.0000 0.64480  0.73850  0.11980  Biso   1.000  H
  H58      1.0000 0.85520  0.26150  0.61980  Biso   1.000  H
  H59      1.0000 0.35520  0.23850  0.38020  Biso   1.000  H
  H60      1.0000 0.14480  0.76150  0.88020  Biso   1.000  H
  C53      1.0000 0.53490  0.83180  0.32769  Biso   1.000  C
  C54      1.0000 0.96510  0.16820  0.82769  Biso   1.000  C
  C55      1.0000 0.46510  0.33180  0.17231  Biso   1.000  C
  C56      1.0000 0.03490  0.66820  0.67231  Biso   1.000  C
  H61      1.0000 0.49370  0.85140  0.28330  Biso   1.000  H
  H62      1.0000 0.00630  0.14860  0.78330  Biso   1.000  H
  H63      1.0000 0.50630  0.35140  0.21670  Biso   1.000  H
  H64      1.0000 0.99370  0.64860  0.71670  Biso   1.000  H
  H65      1.0000 0.68060  0.82090  0.32650  Biso   1.000  H
  H66      1.0000 0.81940  0.17910  0.82650  Biso   1.000  H
  H67      1.0000 0.31940  0.32090  0.17350  Biso   1.000  H
  H68      1.0000 0.18060  0.67910  0.67350  Biso   1.000  H
  C57      1.0000 0.49200  0.89740  0.37780  Biso   1.000  C
  C58      1.0000 0.00800  0.10260  0.87780  Biso   1.000  C
  C59      1.0000 0.50800  0.39740  0.12220  Biso   1.000  C
  C60      1.0000 0.99200  0.60260  0.62220  Biso   1.000  C
  C61      1.0000 0.52430  0.97950  0.36400  Biso   1.000  C
  C62      1.0000 0.97570  0.02050  0.86400  Biso   1.000  C
  C63      1.0000 0.47570  0.47950  0.13600  Biso   1.000  C
  C64      1.0000 0.02430  0.52050  0.63600  Biso   1.000  C
  H69      1.0000 0.56510  0.99620  0.32100  Biso   1.000  H
  H70      1.0000 0.93490  0.00380  0.82100  Biso   1.000  H
  H71      1.0000 0.43490  0.49620  0.17900  Biso   1.000  H
  H72      1.0000 0.06510  0.50380  0.67900  Biso   1.000  H
  C65      1.0000 0.49660  0.03790  0.41360  Biso   1.000  C
  C66      1.0000 0.00340  0.96210  0.91360  Biso   1.000  C
  C67      1.0000 0.50340  0.53790  0.08640  Biso   1.000  C
  C68      1.0000 0.99660  0.46210  0.58640  Biso   1.000  C
  H73      1.0000 0.51950  0.09480  0.40520  Biso   1.000  H
  H74      1.0000 0.98050  0.90520  0.90520  Biso   1.000  H
  H75      1.0000 0.48050  0.59480  0.09480  Biso   1.000  H
  H76      1.0000 0.01950  0.40520  0.59480  Biso   1.000  H
  C69      1.0000 0.43560  0.01170  0.47490  Biso   1.000  C
  C70      1.0000 0.06440  0.98830  0.97490  Biso   1.000  C
  C71      1.0000 0.56440  0.51170  0.02510  Biso   1.000  C
  C72      1.0000 0.93560  0.48830  0.52510  Biso   1.000  C
  H77      1.0000 0.41500  0.05050  0.50950  Biso   1.000  H
  H78      1.0000 0.08500  0.94950  0.00950  Biso   1.000  H
  H79      1.0000 0.58500  0.55050  0.99050  Biso   1.000  H
  H80      1.0000 0.91500  0.44950  0.49050  Biso   1.000  H
  C73      1.0000 0.40440  0.92890  0.48605  Biso   1.000  C
  C74      1.0000 0.09560  0.07110  0.98605  Biso   1.000  C
  C75      1.0000 0.59560  0.42890  0.01395  Biso   1.000  C
  C76      1.0000 0.90440  0.57110  0.51395  Biso   1.000  C
  H81      1.0000 0.36160  0.91140  0.52860  Biso   1.000  H
  H82      1.0000 0.13840  0.08860  0.02860  Biso   1.000  H
  H83      1.0000 0.63840  0.41140  0.97140  Biso   1.000  H
  H84      1.0000 0.86160  0.58860  0.47140  Biso   1.000  H
  C77      1.0000 0.21160  0.76270  0.32338  Biso   1.000  C
  C78      1.0000 0.28840  0.23730  0.82338  Biso   1.000  C
  C79      1.0000 0.78840  0.26270  0.17662  Biso   1.000  C
  C80      1.0000 0.71160  0.73730  0.67662  Biso   1.000  C
  H85      1.0000 0.20360  0.77110  0.27540  Biso   1.000  H
  H86      1.0000 0.29640  0.22890  0.77540  Biso   1.000  H
  H87      1.0000 0.79640  0.27110  0.22460  Biso   1.000  H
  H88      1.0000 0.70360  0.72890  0.72460  Biso   1.000  H
  H89      1.0000 0.15270  0.81020  0.34620  Biso   1.000  H
  H90      1.0000 0.34730  0.18980  0.84620  Biso   1.000  H
  H91      1.0000 0.84730  0.31020  0.15380  Biso   1.000  H
  H92      1.0000 0.65270  0.68980  0.65380  Biso   1.000  H
  H93      1.0000 0.13800  0.71260  0.33540  Biso   1.000  H
  H94      1.0000 0.36200  0.28740  0.83540  Biso   1.000  H
  H95      1.0000 0.86200  0.21260  0.16460  Biso   1.000  H
  H96      1.0000 0.63800  0.78740  0.66460  Biso   1.000  H
  Cl5      1.0000 0.56852  0.53410  0.80613  Biso   1.000  Cl
  Cl6      1.0000 0.93148  0.46590  0.30613  Biso   1.000  Cl
  Cl7      1.0000 0.43148  0.03410  0.69387  Biso   1.000  Cl
  Cl8      1.0000 0.06852  0.96590  0.19387  Biso   1.000  Cl
  O9       1.0000 0.57340  0.45390  0.83462  Biso   1.000  O
  O10      1.0000 0.92660  0.54610  0.33462  Biso   1.000  O
  O11      1.0000 0.42660  0.95390  0.66538  Biso   1.000  O
  O12      1.0000 0.07340  0.04610  0.16538  Biso   1.000  O
  O13      1.0000 0.60970  0.59390  0.85380  Biso   1.000  O
  O14      1.0000 0.89030  0.40610  0.35380  Biso   1.000  O
  O15      1.0000 0.39030  0.09390  0.64620  Biso   1.000  O
  O16      1.0000 0.10970  0.90610  0.14620  Biso   1.000  O
  O17      1.0000 0.38130  0.55060  0.77542  Biso   1.000  O
  O18      1.0000 0.11870  0.44940  0.27542  Biso   1.000  O
  O19      1.0000 0.61870  0.05060  0.72458  Biso   1.000  O
  O20      1.0000 0.88130  0.94940  0.22458  Biso   1.000  O
  O21      1.0000 0.71280  0.53490  0.75370  Biso   1.000  O
  O22      1.0000 0.78720  0.46510  0.25370  Biso   1.000  O
  O23      1.0000 0.28720  0.03490  0.74630  Biso   1.000  O
  O24      1.0000 0.21280  0.96510  0.24630  Biso   1.000  O
