data_image0
_cell_length_a       6.937
_cell_length_b       14.252
_cell_length_c       10.699
_cell_angle_alpha    90
_cell_angle_beta     103.843
_cell_angle_gamma    90

_symmetry_space_group_name_H-M    "P 1"
_symmetry_int_tables_number       1

loop_
  _symmetry_equiv_pos_as_xyz
  'x, y, z'

loop_
  _atom_site_label
  _atom_site_occupancy
  _atom_site_fract_x
  _atom_site_fract_y
  _atom_site_fract_z
  _atom_site_thermal_displace_type
  _atom_site_B_iso_or_equiv
  _atom_site_type_symbol
  Cu1      1.0000 0.61832  0.40400  0.46146  Biso   1.000  Cu
  Cu2      1.0000 0.38168  0.90400  0.53854  Biso   1.000  Cu
  S1       1.0000 0.46510  0.17870  0.53320  Biso   1.000  S
  S2       1.0000 0.53490  0.67870  0.46680  Biso   1.000  S
  S3       1.0000 0.15350  0.29780  0.40390  Biso   1.000  S
  S4       1.0000 0.84650  0.79780  0.59610  Biso   1.000  S
  S5       1.0000 0.92850  0.04540  0.48500  Biso   1.000  S
  S6       1.0000 0.07150  0.54540  0.51500  Biso   1.000  S
  F1       1.0000 0.12360  0.30620  0.88950  Biso   1.000  F
  F2       1.0000 0.87640  0.80620  0.11050  Biso   1.000  F
  F3       1.0000 0.23990  0.33650  0.72500  Biso   1.000  F
  F4       1.0000 0.76010  0.83650  0.27500  Biso   1.000  F
  F5       1.0000 0.07190  0.21330  0.73010  Biso   1.000  F
  F6       1.0000 0.92810  0.71330  0.26990  Biso   1.000  F
  F7       1.0000 0.66510  0.53040  0.92950  Biso   1.000  F
  F8       1.0000 0.33490  0.03040  0.07050  Biso   1.000  F
  F9       1.0000 0.38460  0.52930  0.79980  Biso   1.000  F
  F10      1.0000 0.61540  0.02930  0.20020  Biso   1.000  F
  F11      1.0000 0.59710  0.62710  0.77270  Biso   1.000  F
  F12      1.0000 0.40290  0.12710  0.22730  Biso   1.000  F
  F13      1.0000 0.78470  0.21870  0.15330  Biso   1.000  F
  F14      1.0000 0.21530  0.71870  0.84670  Biso   1.000  F
  F15      1.0000 0.60080  0.29058  0.99560  Biso   1.000  F
  F16      1.0000 0.39920  0.79058  0.00440  Biso   1.000  F
  F17      1.0000 0.87330  0.34620  0.08950  Biso   1.000  F
  F18      1.0000 0.12670  0.84620  0.91050  Biso   1.000  F
  F19      1.0000 0.15100  0.52060  0.02930  Biso   1.000  F
  F20      1.0000 0.84900  0.02060  0.97070  Biso   1.000  F
  F21      1.0000 0.26130  0.62270  0.17540  Biso   1.000  F
  F22      1.0000 0.73870  0.12270  0.82460  Biso   1.000  F
  F23      1.0000 0.04420  0.52390  0.20130  Biso   1.000  F
  F24      1.0000 0.95580  0.02390  0.79870  Biso   1.000  F
  O1       1.0000 0.83510  0.33870  0.57880  Biso   1.000  O
  O2       1.0000 0.16490  0.83870  0.42120  Biso   1.000  O
  O3       1.0000 0.54280  0.46960  0.60510  Biso   1.000  O
  O4       1.0000 0.45720  0.96960  0.39490  Biso   1.000  O
  O5       1.0000 0.71000  0.34650  0.31820  Biso   1.000  O
  O6       1.0000 0.29000  0.84650  0.68180  Biso   1.000  O
  O7       1.0000 0.41160  0.47560  0.34430  Biso   1.000  O
  O8       1.0000 0.58840  0.97560  0.65570  Biso   1.000  O
  N1       1.0000 0.39540  0.28100  0.46460  Biso   1.000  N
  N2       1.0000 0.60460  0.78100  0.53540  Biso   1.000  N
  N3       1.0000 0.17360  0.04560  0.53690  Biso   1.000  N
  N4       1.0000 0.82640  0.54560  0.46310  Biso   1.000  N
  N5       1.0000 0.89800  0.15090  0.42480  Biso   1.000  N
  N6       1.0000 0.10200  0.65090  0.57520  Biso   1.000  N
  C1       1.0000 0.23140  0.12890  0.50840  Biso   1.000  C
  C2       1.0000 0.76860  0.62890  0.49160  Biso   1.000  C
  C3       1.0000 0.07450  0.18930  0.44390  Biso   1.000  C
  C4       1.0000 0.92550  0.68930  0.55610  Biso   1.000  C
  C5       1.0000 0.89580  0.35790  0.69640  Biso   1.000  C
  C6       1.0000 0.10420  0.85790  0.30360  Biso   1.000  C
  C7       1.0000 0.81970  0.42000  0.77040  Biso   1.000  C
  C8       1.0000 0.18030  0.92000  0.22960  Biso   1.000  C
  C9       1.0000 0.64750  0.47150  0.71960  Biso   1.000  C
  C10      1.0000 0.35250  0.97150  0.28040  Biso   1.000  C
  C11      1.0000 0.08460  0.30190  0.76410  Biso   1.000  C
  C12      1.0000 0.91540  0.80190  0.23590  Biso   1.000  C
  C13      1.0000 0.57520  0.54090  0.80610  Biso   1.000  C
  C14      1.0000 0.42480  0.04090  0.19390  Biso   1.000  C
  C15      1.0000 0.62190  0.35540  0.20120  Biso   1.000  C
  C16      1.0000 0.37810  0.85540  0.79880  Biso   1.000  C
  C17      1.0000 0.45760  0.40980  0.14790  Biso   1.000  C
  C18      1.0000 0.54240  0.90980  0.85210  Biso   1.000  C
  C19      1.0000 0.37220  0.46790  0.22310  Biso   1.000  C
  C20      1.0000 0.62780  0.96790  0.77690  Biso   1.000  C
  C21      1.0000 0.71330  0.29980  0.10740  Biso   1.000  C
  C22      1.0000 0.28670  0.79980  0.89260  Biso   1.000  C
  C23      1.0000 0.20250  0.53370  0.15480  Biso   1.000  C
  C24      1.0000 0.79750  0.03370  0.84520  Biso   1.000  C
  H1       1.0000 0.87300  0.42900  0.85000  Biso   1.000  H
  H2       1.0000 0.12700  0.92900  0.15000  Biso   1.000  H
  H3       1.0000 0.41200  0.42300  0.05600  Biso   1.000  H
  H4       1.0000 0.58800  0.92300  0.94400  Biso   1.000  H
