data_image0
_cell_length_a       19.0403
_cell_length_b       19.0403
_cell_length_c       6.8527
_cell_angle_alpha    90
_cell_angle_beta     90
_cell_angle_gamma    90

_symmetry_space_group_name_H-M    "P 1"
_symmetry_int_tables_number       1

loop_
  _symmetry_equiv_pos_as_xyz
  'x, y, z'

loop_
  _atom_site_label
  _atom_site_occupancy
  _atom_site_fract_x
  _atom_site_fract_y
  _atom_site_fract_z
  _atom_site_thermal_displace_type
  _atom_site_B_iso_or_equiv
  _atom_site_type_symbol
  Cu1      1.0000 0.46866  0.03134  0.35421  Biso   1.000  Cu
  Cu2      1.0000 0.46866  0.46866  0.35421  Biso   1.000  Cu
  Cu3      1.0000 0.03134  0.03134  0.35421  Biso   1.000  Cu
  Cu4      1.0000 0.53134  0.96866  0.64579  Biso   1.000  Cu
  Cu5      1.0000 0.03134  0.46866  0.35421  Biso   1.000  Cu
  Cu6      1.0000 0.96866  0.96866  0.64579  Biso   1.000  Cu
  Cu7      1.0000 0.53134  0.53134  0.64579  Biso   1.000  Cu
  Cu8      1.0000 0.96866  0.53134  0.64579  Biso   1.000  Cu
  C1       1.0000 0.75000  0.00940  0.33150  Biso   1.000  C
  C2       1.0000 0.49060  0.75000  0.33150  Biso   1.000  C
  C3       1.0000 0.00940  0.75000  0.33150  Biso   1.000  C
  C4       1.0000 0.50940  0.25000  0.66850  Biso   1.000  C
  C5       1.0000 0.75000  0.49060  0.33150  Biso   1.000  C
  C6       1.0000 0.25000  0.99060  0.66850  Biso   1.000  C
  C7       1.0000 0.25000  0.50940  0.66850  Biso   1.000  C
  C8       1.0000 0.99060  0.25000  0.66850  Biso   1.000  C
  H1       1.0000 0.75000  0.98900  0.45480  Biso   1.000  H
  H2       1.0000 0.51100  0.75000  0.45480  Biso   1.000  H
  H3       1.0000 0.98900  0.75000  0.45480  Biso   1.000  H
  H4       1.0000 0.48900  0.25000  0.54520  Biso   1.000  H
  H5       1.0000 0.75000  0.51100  0.45480  Biso   1.000  H
  H6       1.0000 0.25000  0.01100  0.54520  Biso   1.000  H
  H7       1.0000 0.25000  0.48900  0.54520  Biso   1.000  H
  H8       1.0000 0.01100  0.25000  0.54520  Biso   1.000  H
  C9       1.0000 0.68710  0.02480  0.23880  Biso   1.000  C
  C10      1.0000 0.47520  0.68710  0.23880  Biso   1.000  C
  C11      1.0000 0.02480  0.81290  0.23880  Biso   1.000  C
  C12      1.0000 0.52480  0.18710  0.76120  Biso   1.000  C
  C13      1.0000 0.81290  0.47520  0.23880  Biso   1.000  C
  C14      1.0000 0.18710  0.97520  0.76120  Biso   1.000  C
  C15      1.0000 0.31290  0.52480  0.76120  Biso   1.000  C
  C16      1.0000 0.97520  0.31290  0.76120  Biso   1.000  C
  C17      1.0000 0.31290  0.97520  0.76120  Biso   1.000  C
  C18      1.0000 0.52480  0.31290  0.76120  Biso   1.000  C
  C19      1.0000 0.97520  0.18710  0.76120  Biso   1.000  C
  C20      1.0000 0.47520  0.81290  0.23880  Biso   1.000  C
  C21      1.0000 0.18710  0.52480  0.76120  Biso   1.000  C
  C22      1.0000 0.81290  0.02480  0.23880  Biso   1.000  C
  C23      1.0000 0.68710  0.47520  0.23880  Biso   1.000  C
  C24      1.0000 0.02480  0.68710  0.23880  Biso   1.000  C
  C25      1.0000 0.68710  0.05490  0.05270  Biso   1.000  C
  C26      1.0000 0.44510  0.68710  0.05270  Biso   1.000  C
  C27      1.0000 0.05490  0.81290  0.05270  Biso   1.000  C
  C28      1.0000 0.55490  0.18710  0.94730  Biso   1.000  C
  C29      1.0000 0.81290  0.44510  0.05270  Biso   1.000  C
  C30      1.0000 0.18710  0.94510  0.94730  Biso   1.000  C
  C31      1.0000 0.31290  0.55490  0.94730  Biso   1.000  C
  C32      1.0000 0.94510  0.31290  0.94730  Biso   1.000  C
  C33      1.0000 0.31290  0.94510  0.94730  Biso   1.000  C
  C34      1.0000 0.55490  0.31290  0.94730  Biso   1.000  C
  C35      1.0000 0.94510  0.18710  0.94730  Biso   1.000  C
  C36      1.0000 0.44510  0.81290  0.05270  Biso   1.000  C
  C37      1.0000 0.18710  0.55490  0.94730  Biso   1.000  C
  C38      1.0000 0.81290  0.05490  0.05270  Biso   1.000  C
  C39      1.0000 0.68710  0.44510  0.05270  Biso   1.000  C
  C40      1.0000 0.05490  0.68710  0.05270  Biso   1.000  C
  H9       1.0000 0.64470  0.06420  0.99070  Biso   1.000  H
  H10      1.0000 0.43580  0.64470  0.99070  Biso   1.000  H
  H11      1.0000 0.06420  0.85530  0.99070  Biso   1.000  H
  H12      1.0000 0.56420  0.14470  0.00930  Biso   1.000  H
  H13      1.0000 0.85530  0.43580  0.99070  Biso   1.000  H
  H14      1.0000 0.14470  0.93580  0.00930  Biso   1.000  H
  H15      1.0000 0.35530  0.56420  0.00930  Biso   1.000  H
  H16      1.0000 0.93580  0.35530  0.00930  Biso   1.000  H
  H17      1.0000 0.35530  0.93580  0.00930  Biso   1.000  H
  H18      1.0000 0.56420  0.35530  0.00930  Biso   1.000  H
  H19      1.0000 0.93580  0.14470  0.00930  Biso   1.000  H
  H20      1.0000 0.43580  0.85530  0.99070  Biso   1.000  H
  H21      1.0000 0.14470  0.56420  0.00930  Biso   1.000  H
  H22      1.0000 0.85530  0.06420  0.99070  Biso   1.000  H
  H23      1.0000 0.64470  0.43580  0.99070  Biso   1.000  H
  H24      1.0000 0.06420  0.64470  0.99070  Biso   1.000  H
  C41      1.0000 0.75000  0.07100  0.95880  Biso   1.000  C
  C42      1.0000 0.42900  0.75000  0.95880  Biso   1.000  C
  C43      1.0000 0.07100  0.75000  0.95880  Biso   1.000  C
  C44      1.0000 0.57100  0.25000  0.04120  Biso   1.000  C
  C45      1.0000 0.75000  0.42900  0.95880  Biso   1.000  C
  C46      1.0000 0.25000  0.92900  0.04120  Biso   1.000  C
  C47      1.0000 0.25000  0.57100  0.04120  Biso   1.000  C
  C48      1.0000 0.92900  0.25000  0.04120  Biso   1.000  C
  C49      1.0000 0.75000  0.10750  0.76360  Biso   1.000  C
  C50      1.0000 0.39250  0.75000  0.76360  Biso   1.000  C
  C51      1.0000 0.10750  0.75000  0.76360  Biso   1.000  C
  C52      1.0000 0.60750  0.25000  0.23640  Biso   1.000  C
  C53      1.0000 0.75000  0.39250  0.76360  Biso   1.000  C
  C54      1.0000 0.25000  0.89250  0.23640  Biso   1.000  C
  C55      1.0000 0.25000  0.60750  0.23640  Biso   1.000  C
  C56      1.0000 0.89250  0.25000  0.23640  Biso   1.000  C
  H25      1.0000 0.79160  0.09400  0.69180  Biso   1.000  H
  H26      1.0000 0.40600  0.79160  0.69180  Biso   1.000  H
  H27      1.0000 0.09400  0.70840  0.69180  Biso   1.000  H
  H28      1.0000 0.59400  0.29160  0.30820  Biso   1.000  H
  H29      1.0000 0.70840  0.40600  0.69180  Biso   1.000  H
  H30      1.0000 0.29160  0.90600  0.30820  Biso   1.000  H
  H31      1.0000 0.20840  0.59400  0.30820  Biso   1.000  H
  H32      1.0000 0.90600  0.20840  0.30820  Biso   1.000  H
  H33      1.0000 0.20840  0.90600  0.30820  Biso   1.000  H
  H34      1.0000 0.59400  0.20840  0.30820  Biso   1.000  H
  H35      1.0000 0.90600  0.29160  0.30820  Biso   1.000  H
  H36      1.0000 0.40600  0.70840  0.69180  Biso   1.000  H
  H37      1.0000 0.29160  0.59400  0.30820  Biso   1.000  H
  H38      1.0000 0.70840  0.09400  0.69180  Biso   1.000  H
  H39      1.0000 0.79160  0.40600  0.69180  Biso   1.000  H
  H40      1.0000 0.09400  0.79160  0.69180  Biso   1.000  H
  H41      1.0000 0.75000  0.15780  0.78470  Biso   1.000  H
  H42      1.0000 0.34220  0.75000  0.78470  Biso   1.000  H
  H43      1.0000 0.15780  0.75000  0.78470  Biso   1.000  H
  H44      1.0000 0.65780  0.25000  0.21530  Biso   1.000  H
  H45      1.0000 0.75000  0.34220  0.78470  Biso   1.000  H
  H46      1.0000 0.25000  0.84220  0.21530  Biso   1.000  H
  H47      1.0000 0.25000  0.65780  0.21530  Biso   1.000  H
  H48      1.0000 0.84220  0.25000  0.21530  Biso   1.000  H
  C57      1.0000 0.61820  0.01310  0.33890  Biso   1.000  C
  C58      1.0000 0.48690  0.61820  0.33890  Biso   1.000  C
  C59      1.0000 0.01310  0.88180  0.33890  Biso   1.000  C
  C60      1.0000 0.51310  0.11820  0.66110  Biso   1.000  C
  C61      1.0000 0.88180  0.48690  0.33890  Biso   1.000  C
  C62      1.0000 0.11820  0.98690  0.66110  Biso   1.000  C
  C63      1.0000 0.38180  0.51310  0.66110  Biso   1.000  C
  C64      1.0000 0.98690  0.38180  0.66110  Biso   1.000  C
  C65      1.0000 0.38180  0.98690  0.66110  Biso   1.000  C
  C66      1.0000 0.51310  0.38180  0.66110  Biso   1.000  C
  C67      1.0000 0.98690  0.11820  0.66110  Biso   1.000  C
  C68      1.0000 0.48690  0.88180  0.33890  Biso   1.000  C
  C69      1.0000 0.11820  0.51310  0.66110  Biso   1.000  C
  C70      1.0000 0.88180  0.01310  0.33890  Biso   1.000  C
  C71      1.0000 0.61820  0.48690  0.33890  Biso   1.000  C
  C72      1.0000 0.01310  0.61820  0.33890  Biso   1.000  C
  O1       1.0000 0.56510  0.03560  0.25690  Biso   1.000  O
  O2       1.0000 0.46440  0.56510  0.25690  Biso   1.000  O
  O3       1.0000 0.03560  0.93490  0.25690  Biso   1.000  O
  O4       1.0000 0.53560  0.06510  0.74310  Biso   1.000  O
  O5       1.0000 0.93490  0.46440  0.25690  Biso   1.000  O
  O6       1.0000 0.06510  0.96440  0.74310  Biso   1.000  O
  O7       1.0000 0.43490  0.53560  0.74310  Biso   1.000  O
  O8       1.0000 0.96440  0.43490  0.74310  Biso   1.000  O
  O9       1.0000 0.43490  0.96440  0.74310  Biso   1.000  O
  O10      1.0000 0.53560  0.43490  0.74310  Biso   1.000  O
  O11      1.0000 0.96440  0.06510  0.74310  Biso   1.000  O
  O12      1.0000 0.46440  0.93490  0.25690  Biso   1.000  O
  O13      1.0000 0.06510  0.53560  0.74310  Biso   1.000  O
  O14      1.0000 0.93490  0.03560  0.25690  Biso   1.000  O
  O15      1.0000 0.56510  0.46440  0.25690  Biso   1.000  O
  O16      1.0000 0.03560  0.56510  0.25690  Biso   1.000  O
  O17      1.0000 0.61840  0.98290  0.50010  Biso   1.000  O
  O18      1.0000 0.51710  0.61840  0.50010  Biso   1.000  O
  O19      1.0000 0.98290  0.88160  0.50010  Biso   1.000  O
  O20      1.0000 0.48290  0.11840  0.49990  Biso   1.000  O
  O21      1.0000 0.88160  0.51710  0.50010  Biso   1.000  O
  O22      1.0000 0.11840  0.01710  0.49990  Biso   1.000  O
  O23      1.0000 0.38160  0.48290  0.49990  Biso   1.000  O
  O24      1.0000 0.01710  0.38160  0.49990  Biso   1.000  O
  O25      1.0000 0.38160  0.01710  0.49990  Biso   1.000  O
  O26      1.0000 0.48290  0.38160  0.49990  Biso   1.000  O
  O27      1.0000 0.01710  0.11840  0.49990  Biso   1.000  O
  O28      1.0000 0.51710  0.88160  0.50010  Biso   1.000  O
  O29      1.0000 0.11840  0.48290  0.49990  Biso   1.000  O
  O30      1.0000 0.88160  0.98290  0.50010  Biso   1.000  O
  O31      1.0000 0.61840  0.51710  0.50010  Biso   1.000  O
  O32      1.0000 0.98290  0.61840  0.50010  Biso   1.000  O
  O33      1.0000 0.42709  0.07291  0.09190  Biso   1.000  O
  O34      1.0000 0.42709  0.42709  0.09190  Biso   1.000  O
  O35      1.0000 0.07291  0.07291  0.09190  Biso   1.000  O
  O36      1.0000 0.57291  0.92709  0.90810  Biso   1.000  O
  O37      1.0000 0.07291  0.42709  0.09190  Biso   1.000  O
  O38      1.0000 0.92709  0.92709  0.90810  Biso   1.000  O
  O39      1.0000 0.57291  0.57291  0.90810  Biso   1.000  O
  O40      1.0000 0.92709  0.57291  0.90810  Biso   1.000  O
  H49      1.0000 0.39700  0.10300  0.10690  Biso   1.000  H
  H50      1.0000 0.39700  0.39700  0.10690  Biso   1.000  H
  H51      1.0000 0.10300  0.10300  0.10690  Biso   1.000  H
  H52      1.0000 0.60300  0.89700  0.89310  Biso   1.000  H
  H53      1.0000 0.10300  0.39700  0.10690  Biso   1.000  H
  H54      1.0000 0.89700  0.89700  0.89310  Biso   1.000  H
  H55      1.0000 0.60300  0.60300  0.89310  Biso   1.000  H
  H56      1.0000 0.89700  0.60300  0.89310  Biso   1.000  H
  H57      1.0000 0.43440  0.06560  0.97580  Biso   1.000  H
  H58      1.0000 0.43440  0.43440  0.97580  Biso   1.000  H
  H59      1.0000 0.06560  0.06560  0.97580  Biso   1.000  H
  H60      1.0000 0.56560  0.93440  0.02420  Biso   1.000  H
  H61      1.0000 0.06560  0.43440  0.97580  Biso   1.000  H
  H62      1.0000 0.93440  0.93440  0.02420  Biso   1.000  H
  H63      1.0000 0.56560  0.56560  0.02420  Biso   1.000  H
  H64      1.0000 0.93440  0.56560  0.02420  Biso   1.000  H
  O41      1.0000 0.17350  0.17350  0.02300  Biso   1.000  O
  O42      1.0000 0.32650  0.17350  0.02300  Biso   1.000  O
  O43      1.0000 0.17350  0.32650  0.02300  Biso   1.000  O
  O44      1.0000 0.67350  0.67350  0.97700  Biso   1.000  O
  O45      1.0000 0.32650  0.32650  0.02300  Biso   1.000  O
  O46      1.0000 0.67350  0.82650  0.97700  Biso   1.000  O
  O47      1.0000 0.82650  0.67350  0.97700  Biso   1.000  O
  O48      1.0000 0.82650  0.82650  0.97700  Biso   1.000  O
  H65      1.0000 0.13880  0.18970  0.97040  Biso   1.000  H
  H66      1.0000 0.31030  0.13880  0.97040  Biso   1.000  H
  H67      1.0000 0.18970  0.36120  0.97040  Biso   1.000  H
  H68      1.0000 0.68970  0.63880  0.02960  Biso   1.000  H
  H69      1.0000 0.36120  0.31030  0.97040  Biso   1.000  H
  H70      1.0000 0.63880  0.81030  0.02960  Biso   1.000  H
  H71      1.0000 0.86120  0.68970  0.02960  Biso   1.000  H
  H72      1.0000 0.81030  0.86120  0.02960  Biso   1.000  H
  H73      1.0000 0.86120  0.81030  0.02960  Biso   1.000  H
  H74      1.0000 0.68970  0.86120  0.02960  Biso   1.000  H
  H75      1.0000 0.81030  0.63880  0.02960  Biso   1.000  H
  H76      1.0000 0.31030  0.36120  0.97040  Biso   1.000  H
  H77      1.0000 0.63880  0.68970  0.02960  Biso   1.000  H
  H78      1.0000 0.36120  0.18970  0.97040  Biso   1.000  H
  H79      1.0000 0.13880  0.31030  0.97040  Biso   1.000  H
  H80      1.0000 0.18970  0.13880  0.97040  Biso   1.000  H
  O49      1.0000 0.17370  0.17370  0.56570  Biso   1.000  O
  O50      1.0000 0.32630  0.17370  0.56570  Biso   1.000  O
  O51      1.0000 0.17370  0.32630  0.56570  Biso   1.000  O
  O52      1.0000 0.67370  0.67370  0.43430  Biso   1.000  O
  O53      1.0000 0.32630  0.32630  0.56570  Biso   1.000  O
  O54      1.0000 0.67370  0.82630  0.43430  Biso   1.000  O
  O55      1.0000 0.82630  0.67370  0.43430  Biso   1.000  O
  O56      1.0000 0.82630  0.82630  0.43430  Biso   1.000  O
  H81      1.0000 0.14830  0.19930  0.49940  Biso   1.000  H
  H82      1.0000 0.30070  0.14830  0.49940  Biso   1.000  H
  H83      1.0000 0.19930  0.35170  0.49940  Biso   1.000  H
  H84      1.0000 0.69930  0.64830  0.50060  Biso   1.000  H
  H85      1.0000 0.35170  0.30070  0.49940  Biso   1.000  H
  H86      1.0000 0.64830  0.80070  0.50060  Biso   1.000  H
  H87      1.0000 0.85170  0.69930  0.50060  Biso   1.000  H
  H88      1.0000 0.80070  0.85170  0.50060  Biso   1.000  H
  H89      1.0000 0.85170  0.80070  0.50060  Biso   1.000  H
  H90      1.0000 0.69930  0.85170  0.50060  Biso   1.000  H
  H91      1.0000 0.80070  0.64830  0.50060  Biso   1.000  H
  H92      1.0000 0.30070  0.35170  0.49940  Biso   1.000  H
  H93      1.0000 0.64830  0.69930  0.50060  Biso   1.000  H
  H94      1.0000 0.35170  0.19930  0.49940  Biso   1.000  H
  H95      1.0000 0.14830  0.30070  0.49940  Biso   1.000  H
  H96      1.0000 0.19930  0.14830  0.49940  Biso   1.000  H
