data_image0
_cell_length_a       11.9466
_cell_length_b       11.9872
_cell_length_c       12.9457
_cell_angle_alpha    96.259
_cell_angle_beta     97.187
_cell_angle_gamma    92.157

_symmetry_space_group_name_H-M    "P 1"
_symmetry_int_tables_number       1

loop_
  _symmetry_equiv_pos_as_xyz
  'x, y, z'

loop_
  _atom_site_label
  _atom_site_occupancy
  _atom_site_fract_x
  _atom_site_fract_y
  _atom_site_fract_z
  _atom_site_thermal_displace_type
  _atom_site_B_iso_or_equiv
  _atom_site_type_symbol
  Cu1      1.0000 0.05045  0.62997  0.65234  Biso   1.000  Cu
  Cu2      1.0000 0.94955  0.37003  0.34766  Biso   1.000  Cu
  Cu3      1.0000 0.43611  0.39347  0.31913  Biso   1.000  Cu
  Cu4      1.0000 0.56389  0.60653  0.68087  Biso   1.000  Cu
  O1       1.0000 0.19353  0.61796  0.74635  Biso   1.000  O
  O2       1.0000 0.80647  0.38204  0.25365  Biso   1.000  O
  O3       1.0000 0.91447  0.62221  0.55799  Biso   1.000  O
  O4       1.0000 0.08553  0.37779  0.44201  Biso   1.000  O
  O5       1.0000 0.50840  0.29320  0.17200  Biso   1.000  O
  O6       1.0000 0.49160  0.70680  0.82800  Biso   1.000  O
  H1       1.0000 0.57650  0.27920  0.18630  Biso   1.000  H
  H2       1.0000 0.42350  0.72080  0.81370  Biso   1.000  H
  O7       1.0000 0.29822  0.28910  0.28633  Biso   1.000  O
  O8       1.0000 0.70178  0.71090  0.71367  Biso   1.000  O
  O9       1.0000 0.56702  0.48910  0.36970  Biso   1.000  O
  O10      1.0000 0.43298  0.51090  0.63030  Biso   1.000  O
  O11      1.0000 0.95120  0.75841  0.18331  Biso   1.000  O
  O12      1.0000 0.04880  0.24159  0.81669  Biso   1.000  O
  H3       1.0000 0.94880  0.76700  0.11950  Biso   1.000  H
  H4       1.0000 0.05120  0.23300  0.88050  Biso   1.000  H
  N1       1.0000 0.10620  0.45390  0.76560  Biso   1.000  N
  N2       1.0000 0.89380  0.54610  0.23440  Biso   1.000  N
  H5       1.0000 0.10280  0.39070  0.79410  Biso   1.000  H
  H6       1.0000 0.89720  0.60930  0.20590  Biso   1.000  H
  N3       1.0000 0.02020  0.48420  0.69300  Biso   1.000  N
  N4       1.0000 0.97980  0.51580  0.30700  Biso   1.000  N
  N5       1.0000 0.48190  0.28290  0.41030  Biso   1.000  N
  N6       1.0000 0.51810  0.71710  0.58970  Biso   1.000  N
  N7       1.0000 0.40150  0.19490  0.40110  Biso   1.000  N
  N8       1.0000 0.59850  0.80510  0.59890  Biso   1.000  N
  H7       1.0000 0.41150  0.13660  0.43640  Biso   1.000  H
  H8       1.0000 0.58850  0.86340  0.56360  Biso   1.000  H
  N9       1.0000 0.09500  0.77460  0.60940  Biso   1.000  N
  N10      1.0000 0.90500  0.22540  0.39060  Biso   1.000  N
  N11      1.0000 0.18770  0.83910  0.64900  Biso   1.000  N
  N12      1.0000 0.81230  0.16090  0.35100  Biso   1.000  N
  H9       1.0000 0.23460  0.82600  0.70380  Biso   1.000  H
  H10      1.0000 0.76540  0.17400  0.29620  Biso   1.000  H
  N13      1.0000 0.36080  0.50580  0.24060  Biso   1.000  N
  N14      1.0000 0.63920  0.49420  0.75940  Biso   1.000  N
  N15      1.0000 0.25680  0.48570  0.18560  Biso   1.000  N
  N16      1.0000 0.74320  0.51430  0.81440  Biso   1.000  N
  H11      1.0000 0.21630  0.42210  0.18120  Biso   1.000  H
  H12      1.0000 0.78370  0.57790  0.81880  Biso   1.000  H
  C1       1.0000 0.83560  0.54110  0.53830  Biso   1.000  C
  C2       1.0000 0.16440  0.45890  0.46170  Biso   1.000  C
  C3       1.0000 0.74010  0.55550  0.46600  Biso   1.000  C
  C4       1.0000 0.25990  0.44450  0.53400  Biso   1.000  C
  C5       1.0000 0.65170  0.47120  0.43900  Biso   1.000  C
  C6       1.0000 0.34830  0.52880  0.56100  Biso   1.000  C
  C7       1.0000 0.65910  0.36970  0.49050  Biso   1.000  C
  C8       1.0000 0.34090  0.63030  0.50950  Biso   1.000  C
  C9       1.0000 0.75320  0.35760  0.56200  Biso   1.000  C
  C10      1.0000 0.24680  0.64240  0.43800  Biso   1.000  C
  H13      1.0000 0.75760  0.29060  0.59500  Biso   1.000  H
  H14      1.0000 0.24240  0.70940  0.40500  Biso   1.000  H
  C11      1.0000 0.84190  0.43910  0.58780  Biso   1.000  C
  C12      1.0000 0.15810  0.56090  0.41220  Biso   1.000  C
  C13      1.0000 0.93340  0.41580  0.66240  Biso   1.000  C
  C14      1.0000 0.06660  0.58420  0.33760  Biso   1.000  C
  H15      1.0000 0.93050  0.34640  0.69130  Biso   1.000  H
  H16      1.0000 0.06950  0.65360  0.30870  Biso   1.000  H
  C15      1.0000 0.19450  0.52810  0.78860  Biso   1.000  C
  C16      1.0000 0.80550  0.47190  0.21140  Biso   1.000  C
  C17      1.0000 0.29430  0.50190  0.86230  Biso   1.000  C
  C18      1.0000 0.70570  0.49810  0.13770  Biso   1.000  C
  H17      1.0000 0.30570  0.56170  0.92230  Biso   1.000  H
  H18      1.0000 0.69430  0.43830  0.07770  Biso   1.000  H
  H19      1.0000 0.36220  0.50460  0.82570  Biso   1.000  H
  H20      1.0000 0.63780  0.49540  0.17430  Biso   1.000  H
  C19      1.0000 0.28650  0.38910  0.90490  Biso   1.000  C
  C20      1.0000 0.71350  0.61090  0.09510  Biso   1.000  C
  H21      1.0000 0.22080  0.38690  0.94440  Biso   1.000  H
  H22      1.0000 0.77920  0.61310  0.05560  Biso   1.000  H
  H23      1.0000 0.27310  0.32890  0.84540  Biso   1.000  H
  H24      1.0000 0.72690  0.67110  0.15460  Biso   1.000  H
  C21      1.0000 0.39140  0.36590  0.97570  Biso   1.000  C
  C22      1.0000 0.60860  0.63410  0.02430  Biso   1.000  C
  H25      1.0000 0.41260  0.43050  0.03010  Biso   1.000  H
  H26      1.0000 0.58740  0.56950  0.96990  Biso   1.000  H
  H27      1.0000 0.45520  0.35340  0.93460  Biso   1.000  H
  H28      1.0000 0.54480  0.64660  0.06540  Biso   1.000  H
  C23      1.0000 0.36260  0.25660  0.02850  Biso   1.000  C
  C24      1.0000 0.63740  0.74340  0.97150  Biso   1.000  C
  H29      1.0000 0.30450  0.27390  0.07530  Biso   1.000  H
  H30      1.0000 0.69550  0.72610  0.92470  Biso   1.000  H
  H31      1.0000 0.32990  0.19680  0.97300  Biso   1.000  H
  H32      1.0000 0.67010  0.80320  0.02700  Biso   1.000  H
  C25      1.0000 0.44130  0.24960  0.98210  Biso   1.000  C
  C26      1.0000 0.55870  0.75040  0.01790  Biso   1.000  C
  H33      1.0000 0.39070  0.19270  0.93580  Biso   1.000  H
  H34      1.0000 0.60930  0.80730  0.06420  Biso   1.000  H
  H35      1.0000 0.51530  0.25070  0.95520  Biso   1.000  H
  H36      1.0000 0.48470  0.74930  0.04480  Biso   1.000  H
  C27      1.0000 0.45680  0.21550  0.08710  Biso   1.000  C
  C28      1.0000 0.54320  0.78450  0.91290  Biso   1.000  C
  H37      1.0000 0.51370  0.19540  0.03970  Biso   1.000  H
  H38      1.0000 0.48630  0.80460  0.96030  Biso   1.000  H
  H39      1.0000 0.43250  0.14610  0.11490  Biso   1.000  H
  H40      1.0000 0.56750  0.85390  0.88510  Biso   1.000  H
  C29      1.0000 0.57410  0.28080  0.47410  Biso   1.000  C
  C30      1.0000 0.42590  0.71920  0.52590  Biso   1.000  C
  H41      1.0000 0.58560  0.21740  0.51150  Biso   1.000  H
  H42      1.0000 0.41440  0.78260  0.48850  Biso   1.000  H
  C31      1.0000 0.30830  0.20420  0.33550  Biso   1.000  C
  C32      1.0000 0.69170  0.79580  0.66450  Biso   1.000  C
  C33      1.0000 0.21840  0.11220  0.32410  Biso   1.000  C
  C34      1.0000 0.78160  0.88780  0.67590  Biso   1.000  C
  H43      1.0000 0.14530  0.14530  0.33410  Biso   1.000  H
  H44      1.0000 0.85470  0.85470  0.66590  Biso   1.000  H
  H45      1.0000 0.23630  0.06250  0.37950  Biso   1.000  H
  H46      1.0000 0.76370  0.93750  0.62050  Biso   1.000  H
  C35      1.0000 0.20690  0.04210  0.21700  Biso   1.000  C
  C36      1.0000 0.79310  0.95790  0.78300  Biso   1.000  C
  H47      1.0000 0.17570  0.08820  0.16230  Biso   1.000  H
  H48      1.0000 0.82430  0.91180  0.83770  Biso   1.000  H
  H49      1.0000 0.28250  0.01970  0.20140  Biso   1.000  H
  H50      1.0000 0.71750  0.98030  0.79860  Biso   1.000  H
  C37      1.0000 0.12960  0.93710  0.21430  Biso   1.000  C
  C38      1.0000 0.87040  0.06290  0.78570  Biso   1.000  C
  H51      1.0000 0.13780  0.88570  0.15080  Biso   1.000  H
  H52      1.0000 0.86220  0.11430  0.84920  Biso   1.000  H
  H53      1.0000 0.15460  0.89790  0.27600  Biso   1.000  H
  H54      1.0000 0.84540  0.10210  0.72400  Biso   1.000  H
  C39      1.0000 0.00530  0.96120  0.21420  Biso   1.000  C
  C40      1.0000 0.99470  0.03880  0.78580  Biso   1.000  C
  H55      1.0000 0.97460  0.97990  0.14400  Biso   1.000  H
  H56      1.0000 0.02540  0.02010  0.85600  Biso   1.000  H
  H57      1.0000 0.99910  0.02780  0.26520  Biso   1.000  H
  H58      1.0000 0.00090  0.97220  0.73480  Biso   1.000  H
  C41      1.0000 0.93370  0.86350  0.24180  Biso   1.000  C
  C42      1.0000 0.06630  0.13650  0.75820  Biso   1.000  C
  H59      1.0000 0.95170  0.85670  0.31750  Biso   1.000  H
  H60      1.0000 0.04830  0.14330  0.68250  Biso   1.000  H
  H61      1.0000 0.85290  0.88000  0.22830  Biso   1.000  H
  H62      1.0000 0.14710  0.12000  0.77170  Biso   1.000  H
  C43      1.0000 0.73320  0.66220  0.41440  Biso   1.000  C
  C44      1.0000 0.26680  0.33780  0.58560  Biso   1.000  C
  H63      1.0000 0.76170  0.72620  0.46580  Biso   1.000  H
  H64      1.0000 0.23830  0.27380  0.53420  Biso   1.000  H
  H65      1.0000 0.65440  0.67250  0.38730  Biso   1.000  H
  H66      1.0000 0.34560  0.32750  0.61270  Biso   1.000  H
  H67      1.0000 0.77890  0.65730  0.35640  Biso   1.000  H
  H68      1.0000 0.22110  0.34270  0.64360  Biso   1.000  H
  C45      1.0000 0.04860  0.82250  0.52750  Biso   1.000  C
  C46      1.0000 0.95140  0.17750  0.47250  Biso   1.000  C
  H69      1.0000 0.98120  0.79480  0.48390  Biso   1.000  H
  H70      1.0000 0.01880  0.20520  0.51610  Biso   1.000  H
  C47      1.0000 0.11160  0.91780  0.51450  Biso   1.000  C
  C48      1.0000 0.88840  0.08220  0.48550  Biso   1.000  C
  H71      1.0000 0.09690  0.96670  0.46190  Biso   1.000  H
  H72      1.0000 0.90310  0.03330  0.53810  Biso   1.000  H
  C49      1.0000 0.19960  0.92620  0.59370  Biso   1.000  C
  C50      1.0000 0.80040  0.07380  0.40630  Biso   1.000  C
  H73      1.0000 0.25850  0.98340  0.60720  Biso   1.000  H
  H74      1.0000 0.74150  0.01660  0.39280  Biso   1.000  H
  C51      1.0000 0.39210  0.61010  0.22810  Biso   1.000  C
  C52      1.0000 0.60790  0.38990  0.77190  Biso   1.000  C
  H75      1.0000 0.46170  0.64780  0.25870  Biso   1.000  H
  H76      1.0000 0.53830  0.35220  0.74130  Biso   1.000  H
  C53      1.0000 0.30840  0.65700  0.16360  Biso   1.000  C
  C54      1.0000 0.69160  0.34300  0.83640  Biso   1.000  C
  H77      1.0000 0.31020  0.73010  0.14190  Biso   1.000  H
  H78      1.0000 0.68980  0.26990  0.85810  Biso   1.000  H
  C55      1.0000 0.22340  0.57530  0.13850  Biso   1.000  C
  C56      1.0000 0.77660  0.42470  0.86150  Biso   1.000  C
  H79      1.0000 0.15370  0.58090  0.09560  Biso   1.000  H
  H80      1.0000 0.84630  0.41910  0.90440  Biso   1.000  H
  Cl1      1.0000 0.00275  0.72432  0.91720  Biso   1.000  Cl
  Cl2      1.0000 0.99725  0.27568  0.08280  Biso   1.000  Cl
  O13      1.0000 0.94890  0.61730  0.91820  Biso   1.000  O
  O14      1.0000 0.05110  0.38270  0.08180  Biso   1.000  O
  O15      1.0000 0.12160  0.71890  0.95760  Biso   1.000  O
  O16      1.0000 0.87840  0.28110  0.04240  Biso   1.000  O
  O17      1.0000 0.95650  0.81510  0.97730  Biso   1.000  O
  O18      1.0000 0.04350  0.18490  0.02270  Biso   1.000  O
  O19      1.0000 0.11500  0.76670  0.95610  Biso   1.000  O
  O20      1.0000 0.88500  0.23330  0.04390  Biso   1.000  O
  O21      1.0000 0.92120  0.78440  0.97250  Biso   1.000  O
  O22      1.0000 0.07880  0.21560  0.02750  Biso   1.000  O
  O23      1.0000 0.99260  0.61180  0.94420  Biso   1.000  O
  O24      1.0000 0.00740  0.38820  0.05580  Biso   1.000  O
  O25      1.0000 0.98560  0.74010  0.80930  Biso   1.000  O
  O26      1.0000 0.01440  0.25990  0.19070  Biso   1.000  O
  Cl3      1.0000 0.50982  0.92556  0.31794  Biso   1.000  Cl
  Cl4      1.0000 0.49018  0.07444  0.68206  Biso   1.000  Cl
  O27      1.0000 0.54030  0.03190  0.29120  Biso   1.000  O
  O28      1.0000 0.45970  0.96810  0.70880  Biso   1.000  O
  O29      1.0000 0.40980  0.93820  0.37050  Biso   1.000  O
  O30      1.0000 0.59020  0.06180  0.62950  Biso   1.000  O
  O31      1.0000 0.58960  0.87520  0.37700  Biso   1.000  O
  O32      1.0000 0.41040  0.12480  0.62300  Biso   1.000  O
  O33      1.0000 0.47840  0.87590  0.21140  Biso   1.000  O
  O34      1.0000 0.52160  0.12410  0.78860  Biso   1.000  O
  O35      1.0000 0.40120  0.88270  0.32140  Biso   1.000  O
  O36      1.0000 0.59880  0.11730  0.67860  Biso   1.000  O
  O37      1.0000 0.56040  0.94530  0.42580  Biso   1.000  O
  O38      1.0000 0.43960  0.05470  0.57420  Biso   1.000  O
  O39      1.0000 0.57880  0.83810  0.27610  Biso   1.000  O
  O40      1.0000 0.42120  0.16190  0.72390  Biso   1.000  O
  O41      1.0000 0.28940  0.83220  0.85500  Biso   1.000  O
  O42      1.0000 0.71060  0.16780  0.14500  Biso   1.000  O
  H81      1.0000 0.24370  0.79080  0.87980  Biso   1.000  H
  H82      1.0000 0.75630  0.20920  0.12020  Biso   1.000  H
  C57      1.0000 0.30110  0.94160  0.91490  Biso   1.000  C
  C58      1.0000 0.69890  0.05840  0.08510  Biso   1.000  C
  H83      1.0000 0.33080  0.93430  0.98780  Biso   1.000  H
  H84      1.0000 0.66920  0.06570  0.01220  Biso   1.000  H
  H85      1.0000 0.22720  0.97460  0.91260  Biso   1.000  H
  H86      1.0000 0.77280  0.02540  0.08740  Biso   1.000  H
  H87      1.0000 0.35330  0.99020  0.88510  Biso   1.000  H
  H88      1.0000 0.64670  0.00980  0.11490  Biso   1.000  H
