data_image0
_cell_length_a       8.7634
_cell_length_b       18.041
_cell_length_c       21.515
_cell_angle_alpha    90
_cell_angle_beta     90
_cell_angle_gamma    90

_symmetry_space_group_name_H-M    "P 1"
_symmetry_int_tables_number       1

loop_
  _symmetry_equiv_pos_as_xyz
  'x, y, z'

loop_
  _atom_site_label
  _atom_site_occupancy
  _atom_site_fract_x
  _atom_site_fract_y
  _atom_site_fract_z
  _atom_site_thermal_displace_type
  _atom_site_B_iso_or_equiv
  _atom_site_type_symbol
  O1       1.0000 0.86470  0.07630  0.51790  Biso   1.000  O
  O2       1.0000 0.63530  0.92370  0.01790  Biso   1.000  O
  O3       1.0000 0.13530  0.57630  0.98210  Biso   1.000  O
  O4       1.0000 0.36470  0.42370  0.48210  Biso   1.000  O
  O5       1.0000 0.13530  0.92370  0.48210  Biso   1.000  O
  O6       1.0000 0.36470  0.07630  0.98210  Biso   1.000  O
  O7       1.0000 0.86470  0.42370  0.01790  Biso   1.000  O
  O8       1.0000 0.63530  0.57630  0.51790  Biso   1.000  O
  Cu1      1.0000 0.19508  0.75082  0.57889  Biso   1.000  Cu
  Cu2      1.0000 0.30492  0.24918  0.07889  Biso   1.000  Cu
  Cu3      1.0000 0.80492  0.25082  0.92111  Biso   1.000  Cu
  Cu4      1.0000 0.69508  0.74918  0.42111  Biso   1.000  Cu
  Cu5      1.0000 0.80492  0.24918  0.42111  Biso   1.000  Cu
  Cu6      1.0000 0.69508  0.75082  0.92111  Biso   1.000  Cu
  Cu7      1.0000 0.19508  0.74918  0.07889  Biso   1.000  Cu
  Cu8      1.0000 0.30492  0.25082  0.57889  Biso   1.000  Cu
  Cu9      1.0000 0.94996  0.84370  0.51601  Biso   1.000  Cu
  Cu10     1.0000 0.55004  0.15630  0.01601  Biso   1.000  Cu
  Cu11     1.0000 0.05004  0.34370  0.98399  Biso   1.000  Cu
  Cu12     1.0000 0.44996  0.65630  0.48399  Biso   1.000  Cu
  Cu13     1.0000 0.05004  0.15630  0.48399  Biso   1.000  Cu
  Cu14     1.0000 0.44996  0.84370  0.98399  Biso   1.000  Cu
  Cu15     1.0000 0.94996  0.65630  0.01601  Biso   1.000  Cu
  Cu16     1.0000 0.55004  0.34370  0.51601  Biso   1.000  Cu
  N1       1.0000 0.28170  0.75270  0.66010  Biso   1.000  N
  N2       1.0000 0.21830  0.24730  0.16010  Biso   1.000  N
  N3       1.0000 0.71830  0.25270  0.83990  Biso   1.000  N
  N4       1.0000 0.78170  0.74730  0.33990  Biso   1.000  N
  N5       1.0000 0.71830  0.24730  0.33990  Biso   1.000  N
  N6       1.0000 0.78170  0.75270  0.83990  Biso   1.000  N
  N7       1.0000 0.28170  0.74730  0.16010  Biso   1.000  N
  N8       1.0000 0.21830  0.25270  0.66010  Biso   1.000  N
  N9       1.0000 0.82130  0.92320  0.54890  Biso   1.000  N
  N10      1.0000 0.67870  0.07680  0.04890  Biso   1.000  N
  N11      1.0000 0.17870  0.42320  0.95110  Biso   1.000  N
  N12      1.0000 0.32130  0.57680  0.45110  Biso   1.000  N
  N13      1.0000 0.17870  0.07680  0.45110  Biso   1.000  N
  N14      1.0000 0.32130  0.92320  0.95110  Biso   1.000  N
  N15      1.0000 0.82130  0.57680  0.04890  Biso   1.000  N
  N16      1.0000 0.67870  0.42320  0.54890  Biso   1.000  N
  N17      1.0000 0.09120  0.75860  0.49820  Biso   1.000  N
  N18      1.0000 0.40880  0.24140  0.99820  Biso   1.000  N
  N19      1.0000 0.90880  0.25860  0.00180  Biso   1.000  N
  N20      1.0000 0.59120  0.74140  0.50180  Biso   1.000  N
  N21      1.0000 0.90880  0.24140  0.50180  Biso   1.000  N
  N22      1.0000 0.59120  0.75860  0.00180  Biso   1.000  N
  N23      1.0000 0.09120  0.74140  0.99820  Biso   1.000  N
  N24      1.0000 0.40880  0.25860  0.49820  Biso   1.000  N
  N25      1.0000 0.04520  0.70740  0.46630  Biso   1.000  N
  N26      1.0000 0.45480  0.29260  0.96630  Biso   1.000  N
  N27      1.0000 0.95480  0.20740  0.03370  Biso   1.000  N
  N28      1.0000 0.54520  0.79260  0.53370  Biso   1.000  N
  N29      1.0000 0.95480  0.29260  0.53370  Biso   1.000  N
  N30      1.0000 0.54520  0.70740  0.03370  Biso   1.000  N
  N31      1.0000 0.04520  0.79260  0.96630  Biso   1.000  N
  N32      1.0000 0.45480  0.20740  0.46630  Biso   1.000  N
  N33      1.0000 0.00180  0.66080  0.43500  Biso   1.000  N
  N34      1.0000 0.49820  0.33920  0.93500  Biso   1.000  N
  N35      1.0000 0.99820  0.16080  0.06500  Biso   1.000  N
  N36      1.0000 0.50180  0.83920  0.56500  Biso   1.000  N
  N37      1.0000 0.99820  0.33920  0.56500  Biso   1.000  N
  N38      1.0000 0.50180  0.66080  0.06500  Biso   1.000  N
  N39      1.0000 0.00180  0.83920  0.93500  Biso   1.000  N
  N40      1.0000 0.49820  0.16080  0.43500  Biso   1.000  N
  O9       1.0000 0.33330  0.67160  0.56030  Biso   1.000  O
  O10      1.0000 0.16670  0.32840  0.06030  Biso   1.000  O
  O11      1.0000 0.66670  0.17160  0.93970  Biso   1.000  O
  O12      1.0000 0.83330  0.82840  0.43970  Biso   1.000  O
  O13      1.0000 0.66670  0.32840  0.43970  Biso   1.000  O
  O14      1.0000 0.83330  0.67160  0.93970  Biso   1.000  O
  O15      1.0000 0.33330  0.82840  0.06030  Biso   1.000  O
  O16      1.0000 0.16670  0.17160  0.56030  Biso   1.000  O
  O17      1.0000 0.06370  0.83540  0.59583  Biso   1.000  O
  O18      1.0000 0.43630  0.16460  0.09583  Biso   1.000  O
  O19      1.0000 0.93630  0.33540  0.90417  Biso   1.000  O
  O20      1.0000 0.56370  0.66460  0.40417  Biso   1.000  O
  O21      1.0000 0.93630  0.16460  0.40417  Biso   1.000  O
  O22      1.0000 0.56370  0.83540  0.90417  Biso   1.000  O
  O23      1.0000 0.06370  0.66460  0.09583  Biso   1.000  O
  O24      1.0000 0.43630  0.33540  0.59583  Biso   1.000  O
  C1       1.0000 0.38150  0.63910  0.61790  Biso   1.000  C
  C2       1.0000 0.11850  0.36090  0.11790  Biso   1.000  C
  C3       1.0000 0.61850  0.13910  0.88210  Biso   1.000  C
  C4       1.0000 0.88150  0.86090  0.38210  Biso   1.000  C
  C5       1.0000 0.61850  0.36090  0.38210  Biso   1.000  C
  C6       1.0000 0.88150  0.63910  0.88210  Biso   1.000  C
  C7       1.0000 0.38150  0.86090  0.11790  Biso   1.000  C
  C8       1.0000 0.11850  0.13910  0.61790  Biso   1.000  C
  H1       1.0000 0.30200  0.60470  0.63320  Biso   1.000  H
  H2       1.0000 0.19800  0.39530  0.13320  Biso   1.000  H
  H3       1.0000 0.69800  0.10470  0.86680  Biso   1.000  H
  H4       1.0000 0.80200  0.89530  0.36680  Biso   1.000  H
  H5       1.0000 0.69800  0.39530  0.36680  Biso   1.000  H
  H6       1.0000 0.80200  0.60470  0.86680  Biso   1.000  H
  H7       1.0000 0.30200  0.89530  0.13320  Biso   1.000  H
  H8       1.0000 0.19800  0.10470  0.63320  Biso   1.000  H
  H9       1.0000 0.47640  0.61040  0.61130  Biso   1.000  H
  H10      1.0000 0.02360  0.38960  0.11130  Biso   1.000  H
  H11      1.0000 0.52360  0.11040  0.88870  Biso   1.000  H
  H12      1.0000 0.97640  0.88960  0.38870  Biso   1.000  H
  H13      1.0000 0.52360  0.38960  0.38870  Biso   1.000  H
  H14      1.0000 0.97640  0.61040  0.88870  Biso   1.000  H
  H15      1.0000 0.47640  0.88960  0.11130  Biso   1.000  H
  H16      1.0000 0.02360  0.11040  0.61130  Biso   1.000  H
  C9       1.0000 0.40930  0.69890  0.66550  Biso   1.000  C
  C10      1.0000 0.09070  0.30110  0.16550  Biso   1.000  C
  C11      1.0000 0.59070  0.19890  0.83450  Biso   1.000  C
  C12      1.0000 0.90930  0.80110  0.33450  Biso   1.000  C
  C13      1.0000 0.59070  0.30110  0.33450  Biso   1.000  C
  C14      1.0000 0.90930  0.69890  0.83450  Biso   1.000  C
  C15      1.0000 0.40930  0.80110  0.16550  Biso   1.000  C
  C16      1.0000 0.09070  0.19890  0.66550  Biso   1.000  C
  H17      1.0000 0.50800  0.72380  0.65750  Biso   1.000  H
  H18      1.0000 0.99200  0.27620  0.15750  Biso   1.000  H
  H19      1.0000 0.49200  0.22380  0.84250  Biso   1.000  H
  H20      1.0000 0.00800  0.77620  0.34250  Biso   1.000  H
  H21      1.0000 0.49200  0.27620  0.34250  Biso   1.000  H
  H22      1.0000 0.00800  0.72380  0.84250  Biso   1.000  H
  H23      1.0000 0.50800  0.77620  0.15750  Biso   1.000  H
  H24      1.0000 0.99200  0.22380  0.65750  Biso   1.000  H
  H25      1.0000 0.41190  0.67730  0.70780  Biso   1.000  H
  H26      1.0000 0.08810  0.32270  0.20780  Biso   1.000  H
  H27      1.0000 0.58810  0.17730  0.79220  Biso   1.000  H
  H28      1.0000 0.91190  0.82270  0.29220  Biso   1.000  H
  H29      1.0000 0.58810  0.32270  0.29220  Biso   1.000  H
  H30      1.0000 0.91190  0.67730  0.79220  Biso   1.000  H
  H31      1.0000 0.41190  0.82270  0.20780  Biso   1.000  H
  H32      1.0000 0.08810  0.17730  0.70780  Biso   1.000  H
  C17      1.0000 0.23280  0.78950  0.70670  Biso   1.000  C
  C18      1.0000 0.26720  0.21050  0.20670  Biso   1.000  C
  C19      1.0000 0.76720  0.28950  0.79330  Biso   1.000  C
  C20      1.0000 0.73280  0.71050  0.29330  Biso   1.000  C
  C21      1.0000 0.76720  0.21050  0.29330  Biso   1.000  C
  C22      1.0000 0.73280  0.78950  0.79330  Biso   1.000  C
  C23      1.0000 0.23280  0.71050  0.20670  Biso   1.000  C
  C24      1.0000 0.26720  0.28950  0.70670  Biso   1.000  C
  H33      1.0000 0.27950  0.78030  0.74580  Biso   1.000  H
  H34      1.0000 0.22050  0.21970  0.24580  Biso   1.000  H
  H35      1.0000 0.72050  0.28030  0.75420  Biso   1.000  H
  H36      1.0000 0.77950  0.71970  0.25420  Biso   1.000  H
  H37      1.0000 0.72050  0.21970  0.25420  Biso   1.000  H
  H38      1.0000 0.77950  0.78030  0.75420  Biso   1.000  H
  H39      1.0000 0.27950  0.71970  0.24580  Biso   1.000  H
  H40      1.0000 0.22050  0.28030  0.74580  Biso   1.000  H
  C25      1.0000 0.11200  0.84420  0.70490  Biso   1.000  C
  C26      1.0000 0.38800  0.15580  0.20490  Biso   1.000  C
  C27      1.0000 0.88800  0.34420  0.79510  Biso   1.000  C
  C28      1.0000 0.61200  0.65580  0.29510  Biso   1.000  C
  C29      1.0000 0.88800  0.15580  0.29510  Biso   1.000  C
  C30      1.0000 0.61200  0.84420  0.79510  Biso   1.000  C
  C31      1.0000 0.11200  0.65580  0.20490  Biso   1.000  C
  C32      1.0000 0.38800  0.34420  0.70490  Biso   1.000  C
  C33      1.0000 0.03700  0.86570  0.65010  Biso   1.000  C
  C34      1.0000 0.46300  0.13430  0.15010  Biso   1.000  C
  C35      1.0000 0.96300  0.36570  0.84990  Biso   1.000  C
  C36      1.0000 0.53700  0.63430  0.34990  Biso   1.000  C
  C37      1.0000 0.96300  0.13430  0.34990  Biso   1.000  C
  C38      1.0000 0.53700  0.86570  0.84990  Biso   1.000  C
  C39      1.0000 0.03700  0.63430  0.15010  Biso   1.000  C
  C40      1.0000 0.46300  0.36570  0.65010  Biso   1.000  C
  C41      1.0000 0.92470  0.92220  0.65500  Biso   1.000  C
  C42      1.0000 0.57530  0.07780  0.15500  Biso   1.000  C
  C43      1.0000 0.07530  0.42220  0.84500  Biso   1.000  C
  C44      1.0000 0.42470  0.57780  0.34500  Biso   1.000  C
  C45      1.0000 0.07530  0.07780  0.34500  Biso   1.000  C
  C46      1.0000 0.42470  0.92220  0.84500  Biso   1.000  C
  C47      1.0000 0.92470  0.57780  0.15500  Biso   1.000  C
  C48      1.0000 0.57530  0.42220  0.65500  Biso   1.000  C
  C49      1.0000 0.89910  0.95680  0.71280  Biso   1.000  C
  C50      1.0000 0.60090  0.04320  0.21280  Biso   1.000  C
  C51      1.0000 0.10090  0.45680  0.78720  Biso   1.000  C
  C52      1.0000 0.39910  0.54320  0.28720  Biso   1.000  C
  C53      1.0000 0.10090  0.04320  0.28720  Biso   1.000  C
  C54      1.0000 0.39910  0.95680  0.78720  Biso   1.000  C
  C55      1.0000 0.89910  0.54320  0.21280  Biso   1.000  C
  C56      1.0000 0.60090  0.45680  0.71280  Biso   1.000  C
  H41      1.0000 0.82870  0.99680  0.71470  Biso   1.000  H
  H42      1.0000 0.67130  0.00320  0.21470  Biso   1.000  H
  H43      1.0000 0.17130  0.49680  0.78530  Biso   1.000  H
  H44      1.0000 0.32870  0.50320  0.28530  Biso   1.000  H
  H45      1.0000 0.17130  0.00320  0.28530  Biso   1.000  H
  H46      1.0000 0.32870  0.99680  0.78530  Biso   1.000  H
  H47      1.0000 0.82870  0.50320  0.21470  Biso   1.000  H
  H48      1.0000 0.67130  0.49680  0.71470  Biso   1.000  H
  C57      1.0000 0.97080  0.93540  0.76600  Biso   1.000  C
  C58      1.0000 0.52920  0.06460  0.26600  Biso   1.000  C
  C59      1.0000 0.02920  0.43540  0.73400  Biso   1.000  C
  C60      1.0000 0.47080  0.56460  0.23400  Biso   1.000  C
  C61      1.0000 0.02920  0.06460  0.23400  Biso   1.000  C
  C62      1.0000 0.47080  0.93540  0.73400  Biso   1.000  C
  C63      1.0000 0.97080  0.56460  0.26600  Biso   1.000  C
  C64      1.0000 0.52920  0.43540  0.76600  Biso   1.000  C
  C65      1.0000 0.07400  0.87820  0.76190  Biso   1.000  C
  C66      1.0000 0.42600  0.12180  0.26190  Biso   1.000  C
  C67      1.0000 0.92600  0.37820  0.73810  Biso   1.000  C
  C68      1.0000 0.57400  0.62180  0.23810  Biso   1.000  C
  C69      1.0000 0.92600  0.12180  0.23810  Biso   1.000  C
  C70      1.0000 0.57400  0.87820  0.73810  Biso   1.000  C
  C71      1.0000 0.07400  0.62180  0.26190  Biso   1.000  C
  C72      1.0000 0.42600  0.37820  0.76190  Biso   1.000  C
  H49      1.0000 0.12160  0.86090  0.79880  Biso   1.000  H
  H50      1.0000 0.37840  0.13910  0.29880  Biso   1.000  H
  H51      1.0000 0.87840  0.36090  0.70120  Biso   1.000  H
  H52      1.0000 0.62160  0.63910  0.20120  Biso   1.000  H
  H53      1.0000 0.87840  0.13910  0.20120  Biso   1.000  H
  H54      1.0000 0.62160  0.86090  0.70120  Biso   1.000  H
  H55      1.0000 0.12160  0.63910  0.29880  Biso   1.000  H
  H56      1.0000 0.37840  0.36090  0.79880  Biso   1.000  H
  C73      1.0000 0.93440  0.97370  0.82670  Biso   1.000  C
  C74      1.0000 0.56560  0.02630  0.32670  Biso   1.000  C
  C75      1.0000 0.06560  0.47370  0.67330  Biso   1.000  C
  C76      1.0000 0.43440  0.52630  0.17330  Biso   1.000  C
  C77      1.0000 0.06560  0.02630  0.17330  Biso   1.000  C
  C78      1.0000 0.43440  0.97370  0.67330  Biso   1.000  C
  C79      1.0000 0.93440  0.52630  0.32670  Biso   1.000  C
  C80      1.0000 0.56560  0.47370  0.82670  Biso   1.000  C
  H57      1.0000 0.82380  0.98020  0.83050  Biso   1.000  H
  H58      1.0000 0.67620  0.01980  0.33050  Biso   1.000  H
  H59      1.0000 0.17620  0.48020  0.66950  Biso   1.000  H
  H60      1.0000 0.32380  0.51980  0.16950  Biso   1.000  H
  H61      1.0000 0.17620  0.01980  0.16950  Biso   1.000  H
  H62      1.0000 0.32380  0.98020  0.66950  Biso   1.000  H
  H63      1.0000 0.82380  0.51980  0.33050  Biso   1.000  H
  H64      1.0000 0.67620  0.48020  0.83050  Biso   1.000  H
  H65      1.0000 0.97160  0.94350  0.86140  Biso   1.000  H
  H66      1.0000 0.52840  0.05650  0.36140  Biso   1.000  H
  H67      1.0000 0.02840  0.44350  0.63860  Biso   1.000  H
  H68      1.0000 0.47160  0.55650  0.13860  Biso   1.000  H
  H69      1.0000 0.02840  0.05650  0.13860  Biso   1.000  H
  H70      1.0000 0.47160  0.94350  0.63860  Biso   1.000  H
  H71      1.0000 0.97160  0.55650  0.36140  Biso   1.000  H
  H72      1.0000 0.52840  0.44350  0.86140  Biso   1.000  H
  H73      1.0000 0.98430  0.02230  0.82770  Biso   1.000  H
  H74      1.0000 0.51570  0.97770  0.32770  Biso   1.000  H
  H75      1.0000 0.01570  0.52230  0.67230  Biso   1.000  H
  H76      1.0000 0.48430  0.47770  0.17230  Biso   1.000  H
  H77      1.0000 0.01570  0.97770  0.17230  Biso   1.000  H
  H78      1.0000 0.48430  0.02230  0.67230  Biso   1.000  H
  H79      1.0000 0.98430  0.47770  0.32770  Biso   1.000  H
  H80      1.0000 0.51570  0.52230  0.82770  Biso   1.000  H
  C81      1.0000 0.82820  0.94780  0.60440  Biso   1.000  C
  C82      1.0000 0.67180  0.05220  0.10440  Biso   1.000  C
  C83      1.0000 0.17180  0.44780  0.89560  Biso   1.000  C
  C84      1.0000 0.32820  0.55220  0.39560  Biso   1.000  C
  C85      1.0000 0.17180  0.05220  0.39560  Biso   1.000  C
  C86      1.0000 0.32820  0.94780  0.89560  Biso   1.000  C
  C87      1.0000 0.82820  0.55220  0.10440  Biso   1.000  C
  C88      1.0000 0.67180  0.44780  0.60440  Biso   1.000  C
  H81      1.0000 0.76190  0.98790  0.61390  Biso   1.000  H
  H82      1.0000 0.73810  0.01210  0.11390  Biso   1.000  H
  H83      1.0000 0.23810  0.48790  0.88610  Biso   1.000  H
  H84      1.0000 0.26190  0.51210  0.38610  Biso   1.000  H
  H85      1.0000 0.23810  0.01210  0.38610  Biso   1.000  H
  H86      1.0000 0.26190  0.98790  0.88610  Biso   1.000  H
  H87      1.0000 0.76190  0.51210  0.11390  Biso   1.000  H
  H88      1.0000 0.73810  0.48790  0.61390  Biso   1.000  H
  C89      1.0000 0.71480  0.96350  0.50730  Biso   1.000  C
  C90      1.0000 0.78520  0.03650  0.00730  Biso   1.000  C
  C91      1.0000 0.28520  0.46350  0.99270  Biso   1.000  C
  C92      1.0000 0.21480  0.53650  0.49270  Biso   1.000  C
  C93      1.0000 0.28520  0.03650  0.49270  Biso   1.000  C
  C94      1.0000 0.21480  0.96350  0.99270  Biso   1.000  C
  C95      1.0000 0.71480  0.53650  0.00730  Biso   1.000  C
  C96      1.0000 0.78520  0.46350  0.50730  Biso   1.000  C
  H89      1.0000 0.67100  0.92880  0.47650  Biso   1.000  H
  H90      1.0000 0.82900  0.07120  0.97650  Biso   1.000  H
  H91      1.0000 0.32900  0.42880  0.02350  Biso   1.000  H
  H92      1.0000 0.17100  0.57120  0.52350  Biso   1.000  H
  H93      1.0000 0.32900  0.07120  0.52350  Biso   1.000  H
  H94      1.0000 0.17100  0.92880  0.02350  Biso   1.000  H
  H95      1.0000 0.67100  0.57120  0.97650  Biso   1.000  H
  H96      1.0000 0.82900  0.42880  0.47650  Biso   1.000  H
  H97      1.0000 0.63010  0.98470  0.53200  Biso   1.000  H
  H98      1.0000 0.86990  0.01530  0.03200  Biso   1.000  H
  H99      1.0000 0.36990  0.48470  0.96800  Biso   1.000  H
  H100     1.0000 0.13010  0.51530  0.46800  Biso   1.000  H
  H101     1.0000 0.36990  0.01530  0.46800  Biso   1.000  H
  H102     1.0000 0.13010  0.98470  0.96800  Biso   1.000  H
  H103     1.0000 0.63010  0.51530  0.03200  Biso   1.000  H
  H104     1.0000 0.86990  0.48470  0.53200  Biso   1.000  H
  C97      1.0000 0.80010  0.02500  0.47420  Biso   1.000  C
  C98      1.0000 0.69990  0.97500  0.97420  Biso   1.000  C
  C99      1.0000 0.19990  0.52500  0.02580  Biso   1.000  C
  C100     1.0000 0.30010  0.47500  0.52580  Biso   1.000  C
  C101     1.0000 0.19990  0.97500  0.52580  Biso   1.000  C
  C102     1.0000 0.30010  0.02500  0.02580  Biso   1.000  C
  C103     1.0000 0.80010  0.47500  0.97420  Biso   1.000  C
  C104     1.0000 0.69990  0.52500  0.47420  Biso   1.000  C
  H105     1.0000 0.72920  0.05170  0.44620  Biso   1.000  H
  H106     1.0000 0.77080  0.94830  0.94620  Biso   1.000  H
  H107     1.0000 0.27080  0.55170  0.05380  Biso   1.000  H
  H108     1.0000 0.22920  0.44830  0.55380  Biso   1.000  H
  H109     1.0000 0.27080  0.94830  0.55380  Biso   1.000  H
  H110     1.0000 0.22920  0.05170  0.05380  Biso   1.000  H
  H111     1.0000 0.72920  0.44830  0.94620  Biso   1.000  H
  H112     1.0000 0.77080  0.55170  0.44620  Biso   1.000  H
  H113     1.0000 0.88250  0.00330  0.44850  Biso   1.000  H
  H114     1.0000 0.61750  0.99670  0.94850  Biso   1.000  H
  H115     1.0000 0.11750  0.50330  0.05150  Biso   1.000  H
  H116     1.0000 0.38250  0.49670  0.55150  Biso   1.000  H
  H117     1.0000 0.11750  0.99670  0.55150  Biso   1.000  H
  H118     1.0000 0.38250  0.00330  0.05150  Biso   1.000  H
  H119     1.0000 0.88250  0.49670  0.94850  Biso   1.000  H
  H120     1.0000 0.61750  0.50330  0.44850  Biso   1.000  H
  O25      1.0000 0.71720  0.24150  0.63130  Biso   1.000  O
  O26      1.0000 0.78280  0.75850  0.13130  Biso   1.000  O
  O27      1.0000 0.28280  0.74150  0.86870  Biso   1.000  O
  O28      1.0000 0.21720  0.25850  0.36870  Biso   1.000  O
  O29      1.0000 0.28280  0.75850  0.36870  Biso   1.000  O
  O30      1.0000 0.21720  0.24150  0.86870  Biso   1.000  O
  O31      1.0000 0.71720  0.25850  0.13130  Biso   1.000  O
  O32      1.0000 0.78280  0.74150  0.63130  Biso   1.000  O
  O33      1.0000 0.61740  0.14070  0.57620  Biso   1.000  O
  O34      1.0000 0.88260  0.85930  0.07620  Biso   1.000  O
  O35      1.0000 0.38260  0.64070  0.92380  Biso   1.000  O
  O36      1.0000 0.11740  0.35930  0.42380  Biso   1.000  O
  O37      1.0000 0.38260  0.85930  0.42380  Biso   1.000  O
  O38      1.0000 0.11740  0.14070  0.92380  Biso   1.000  O
  O39      1.0000 0.61740  0.35930  0.07620  Biso   1.000  O
  O40      1.0000 0.88260  0.64070  0.57620  Biso   1.000  O
  O41      1.0000 0.50410  0.17540  0.66660  Biso   1.000  O
  O42      1.0000 0.99590  0.82460  0.16660  Biso   1.000  O
  O43      1.0000 0.49590  0.67540  0.83340  Biso   1.000  O
  O44      1.0000 0.00410  0.32460  0.33340  Biso   1.000  O
  O45      1.0000 0.49590  0.82460  0.33340  Biso   1.000  O
  O46      1.0000 0.00410  0.17540  0.83340  Biso   1.000  O
  O47      1.0000 0.50410  0.32460  0.16660  Biso   1.000  O
  O48      1.0000 0.99590  0.67540  0.66660  Biso   1.000  O
  O49      1.0000 0.74400  0.12080  0.66830  Biso   1.000  O
  O50      1.0000 0.75600  0.87920  0.16830  Biso   1.000  O
  O51      1.0000 0.25600  0.62080  0.83170  Biso   1.000  O
  O52      1.0000 0.24400  0.37920  0.33170  Biso   1.000  O
  O53      1.0000 0.25600  0.87920  0.33170  Biso   1.000  O
  O54      1.0000 0.24400  0.12080  0.83170  Biso   1.000  O
  O55      1.0000 0.74400  0.37920  0.16830  Biso   1.000  O
  O56      1.0000 0.75600  0.62080  0.66830  Biso   1.000  O
  Cl1      1.0000 0.64670  0.16988  0.63627  Biso   1.000  Cl
  Cl2      1.0000 0.85330  0.83012  0.13627  Biso   1.000  Cl
  Cl3      1.0000 0.35330  0.66988  0.86373  Biso   1.000  Cl
  Cl4      1.0000 0.14670  0.33012  0.36373  Biso   1.000  Cl
  Cl5      1.0000 0.35330  0.83012  0.36373  Biso   1.000  Cl
  Cl6      1.0000 0.14670  0.16988  0.86373  Biso   1.000  Cl
  Cl7      1.0000 0.64670  0.33012  0.13627  Biso   1.000  Cl
  Cl8      1.0000 0.85330  0.66988  0.63627  Biso   1.000  Cl
