data_image0
_cell_length_a       10.101
_cell_length_b       11.304
_cell_length_c       8.69
_cell_angle_alpha    90
_cell_angle_beta     90
_cell_angle_gamma    90

_symmetry_space_group_name_H-M    "P 1"
_symmetry_int_tables_number       1

loop_
  _symmetry_equiv_pos_as_xyz
  'x, y, z'

loop_
  _atom_site_label
  _atom_site_occupancy
  _atom_site_fract_x
  _atom_site_fract_y
  _atom_site_fract_z
  _atom_site_thermal_displace_type
  _atom_site_B_iso_or_equiv
  _atom_site_type_symbol
  Cu1      1.0000 0.29896  0.11019  0.07456  Biso   1.000  Cu
  Cu2      1.0000 0.20104  0.88981  0.57456  Biso   1.000  Cu
  Cu3      1.0000 0.70104  0.61019  0.42544  Biso   1.000  Cu
  Cu4      1.0000 0.79896  0.38981  0.92544  Biso   1.000  Cu
  O1       1.0000 0.27150  0.00240  0.89650  Biso   1.000  O
  O2       1.0000 0.22850  0.99760  0.39650  Biso   1.000  O
  O3       1.0000 0.72850  0.50240  0.60350  Biso   1.000  O
  O4       1.0000 0.77150  0.49760  0.10350  Biso   1.000  O
  O5       1.0000 0.36220  0.94910  0.67350  Biso   1.000  O
  O6       1.0000 0.13780  0.05090  0.17350  Biso   1.000  O
  O7       1.0000 0.63780  0.44910  0.82650  Biso   1.000  O
  O8       1.0000 0.86220  0.55090  0.32650  Biso   1.000  O
  N1       1.0000 0.46970  0.13120  0.98390  Biso   1.000  N
  N2       1.0000 0.03030  0.86880  0.48390  Biso   1.000  N
  N3       1.0000 0.53030  0.63120  0.51610  Biso   1.000  N
  N4       1.0000 0.96970  0.36880  0.01610  Biso   1.000  N
  N5       1.0000 0.38200  0.20020  0.25000  Biso   1.000  N
  N6       1.0000 0.11800  0.79980  0.75000  Biso   1.000  N
  N7       1.0000 0.61800  0.70020  0.25000  Biso   1.000  N
  N8       1.0000 0.88200  0.29980  0.75000  Biso   1.000  N
  C1       1.0000 0.36590  0.00110  0.80150  Biso   1.000  C
  C2       1.0000 0.13410  0.99890  0.30150  Biso   1.000  C
  C3       1.0000 0.63410  0.50110  0.69850  Biso   1.000  C
  C4       1.0000 0.86590  0.49890  0.19850  Biso   1.000  C
  C5       1.0000 0.49550  0.06880  0.83840  Biso   1.000  C
  C6       1.0000 0.00450  0.93120  0.33840  Biso   1.000  C
  C7       1.0000 0.50450  0.56880  0.66160  Biso   1.000  C
  C8       1.0000 0.99550  0.43120  0.16160  Biso   1.000  C
  C9       1.0000 0.60690  0.97770  0.85570  Biso   1.000  C
  C10      1.0000 0.89310  0.02230  0.35570  Biso   1.000  C
  C11      1.0000 0.39310  0.47770  0.64430  Biso   1.000  C
  C12      1.0000 0.10690  0.52230  0.14430  Biso   1.000  C
  C13      1.0000 0.52280  0.15500  0.70550  Biso   1.000  C
  C14      1.0000 0.97720  0.84500  0.20550  Biso   1.000  C
  C15      1.0000 0.47720  0.65500  0.79450  Biso   1.000  C
  C16      1.0000 0.02280  0.34500  0.29450  Biso   1.000  C
  C17      1.0000 0.55700  0.20220  0.04890  Biso   1.000  C
  C18      1.0000 0.94300  0.79780  0.54890  Biso   1.000  C
  C19      1.0000 0.44300  0.70220  0.45110  Biso   1.000  C
  C20      1.0000 0.05700  0.29780  0.95110  Biso   1.000  C
  O9       1.0000 0.67220  0.22490  0.00410  Biso   1.000  O
  O10      1.0000 0.82780  0.77510  0.50410  Biso   1.000  O
  O11      1.0000 0.32780  0.72490  0.49590  Biso   1.000  O
  O12      1.0000 0.17220  0.27510  0.99590  Biso   1.000  O
  C21      1.0000 0.50400  0.26250  0.19660  Biso   1.000  C
  C22      1.0000 0.99600  0.73750  0.69660  Biso   1.000  C
  C23      1.0000 0.49600  0.76250  0.30340  Biso   1.000  C
  C24      1.0000 0.00400  0.23750  0.80340  Biso   1.000  C
  C25      1.0000 0.61190  0.26060  0.32080  Biso   1.000  C
  C26      1.0000 0.88810  0.73940  0.82080  Biso   1.000  C
  C27      1.0000 0.38810  0.76060  0.17920  Biso   1.000  C
  C28      1.0000 0.11190  0.23940  0.67920  Biso   1.000  C
  C29      1.0000 0.46400  0.38950  0.15450  Biso   1.000  C
  C30      1.0000 0.03600  0.61050  0.65450  Biso   1.000  C
  C31      1.0000 0.53600  0.88950  0.34550  Biso   1.000  C
  C32      1.0000 0.96400  0.11050  0.84550  Biso   1.000  C
  H1       1.0000 0.31800  0.25600  0.29000  Biso   1.000  H
  H2       1.0000 0.18200  0.74400  0.79000  Biso   1.000  H
  H3       1.0000 0.68200  0.75600  0.21000  Biso   1.000  H
  H4       1.0000 0.81800  0.24400  0.71000  Biso   1.000  H
  H5       1.0000 0.40460  0.14290  0.31510  Biso   1.000  H
  H6       1.0000 0.09540  0.85710  0.81510  Biso   1.000  H
  H7       1.0000 0.59540  0.64290  0.18490  Biso   1.000  H
  H8       1.0000 0.90460  0.35710  0.68490  Biso   1.000  H
  H9       1.0000 0.61870  0.93570  0.76680  Biso   1.000  H
  H10      1.0000 0.88130  0.06430  0.26680  Biso   1.000  H
  H11      1.0000 0.38130  0.43570  0.73320  Biso   1.000  H
  H12      1.0000 0.11870  0.56430  0.23320  Biso   1.000  H
  H13      1.0000 0.58560  0.92470  0.93680  Biso   1.000  H
  H14      1.0000 0.91440  0.07530  0.43680  Biso   1.000  H
  H15      1.0000 0.41440  0.42470  0.56320  Biso   1.000  H
  H16      1.0000 0.08560  0.57530  0.06320  Biso   1.000  H
  H17      1.0000 0.68260  0.01150  0.86570  Biso   1.000  H
  H18      1.0000 0.81740  0.98850  0.36570  Biso   1.000  H
  H19      1.0000 0.31740  0.51150  0.63430  Biso   1.000  H
  H20      1.0000 0.18260  0.48850  0.13430  Biso   1.000  H
  H21      1.0000 0.59690  0.19980  0.72500  Biso   1.000  H
  H22      1.0000 0.90310  0.80020  0.22500  Biso   1.000  H
  H23      1.0000 0.40310  0.69980  0.77500  Biso   1.000  H
  H24      1.0000 0.09690  0.30020  0.27500  Biso   1.000  H
  H25      1.0000 0.53880  0.09890  0.59700  Biso   1.000  H
  H26      1.0000 0.96120  0.90110  0.09700  Biso   1.000  H
  H27      1.0000 0.46120  0.59890  0.90300  Biso   1.000  H
  H28      1.0000 0.03880  0.40110  0.40300  Biso   1.000  H
  H29      1.0000 0.44700  0.21700  0.68600  Biso   1.000  H
  H30      1.0000 0.05300  0.78300  0.18600  Biso   1.000  H
  H31      1.0000 0.55300  0.71700  0.81400  Biso   1.000  H
  H32      1.0000 0.94700  0.28300  0.31400  Biso   1.000  H
  H33      1.0000 0.58500  0.31070  0.41690  Biso   1.000  H
  H34      1.0000 0.91500  0.68930  0.91690  Biso   1.000  H
  H35      1.0000 0.41500  0.81070  0.08310  Biso   1.000  H
  H36      1.0000 0.08500  0.18930  0.58310  Biso   1.000  H
  H37      1.0000 0.64540  0.17470  0.35260  Biso   1.000  H
  H38      1.0000 0.85460  0.82530  0.85260  Biso   1.000  H
  H39      1.0000 0.35460  0.67470  0.14740  Biso   1.000  H
  H40      1.0000 0.14540  0.32530  0.64740  Biso   1.000  H
  H41      1.0000 0.67780  0.29170  0.27970  Biso   1.000  H
  H42      1.0000 0.82220  0.70830  0.77970  Biso   1.000  H
  H43      1.0000 0.32220  0.79170  0.22030  Biso   1.000  H
  H44      1.0000 0.17780  0.20830  0.72030  Biso   1.000  H
  H45      1.0000 0.39560  0.38590  0.07550  Biso   1.000  H
  H46      1.0000 0.10440  0.61410  0.57550  Biso   1.000  H
  H47      1.0000 0.60440  0.88590  0.42450  Biso   1.000  H
  H48      1.0000 0.89560  0.11410  0.92450  Biso   1.000  H
  H49      1.0000 0.43750  0.44040  0.23480  Biso   1.000  H
  H50      1.0000 0.06250  0.55960  0.73480  Biso   1.000  H
  H51      1.0000 0.56250  0.94040  0.26520  Biso   1.000  H
  H52      1.0000 0.93750  0.05960  0.76520  Biso   1.000  H
  H53      1.0000 0.53410  0.43450  0.11360  Biso   1.000  H
  H54      1.0000 0.96590  0.56550  0.61360  Biso   1.000  H
  H55      1.0000 0.46590  0.93450  0.38640  Biso   1.000  H
  H56      1.0000 0.03410  0.06550  0.88640  Biso   1.000  H
