data_image0
_cell_length_a       15.2152
_cell_length_b       17.3574
_cell_length_c       15.9778
_cell_angle_alpha    90
_cell_angle_beta     109.716
_cell_angle_gamma    90

_symmetry_space_group_name_H-M    "P 1"
_symmetry_int_tables_number       1

loop_
  _symmetry_equiv_pos_as_xyz
  'x, y, z'

loop_
  _atom_site_label
  _atom_site_occupancy
  _atom_site_fract_x
  _atom_site_fract_y
  _atom_site_fract_z
  _atom_site_thermal_displace_type
  _atom_site_B_iso_or_equiv
  _atom_site_type_symbol
  Cu1      1.0000 0.34907  0.49912  0.37017  Biso   1.000  Cu
  Cu2      1.0000 0.65093  0.99912  0.12983  Biso   1.000  Cu
  Cu3      1.0000 0.65093  0.50088  0.62983  Biso   1.000  Cu
  Cu4      1.0000 0.34907  0.00088  0.87017  Biso   1.000  Cu
  C1       1.0000 0.45740  0.59171  0.29280  Biso   1.000  C
  C2       1.0000 0.54260  0.09171  0.20720  Biso   1.000  C
  C3       1.0000 0.54260  0.40829  0.70720  Biso   1.000  C
  C4       1.0000 0.45740  0.90829  0.79280  Biso   1.000  C
  N1       1.0000 0.36634  0.39669  0.43178  Biso   1.000  N
  N2       1.0000 0.63366  0.89669  0.06822  Biso   1.000  N
  N3       1.0000 0.63366  0.60331  0.56822  Biso   1.000  N
  N4       1.0000 0.36634  0.10331  0.93178  Biso   1.000  N
  O1       1.0000 0.16291  0.53410  0.21538  Biso   1.000  O
  O2       1.0000 0.83709  0.03410  0.28462  Biso   1.000  O
  O3       1.0000 0.83709  0.46590  0.78462  Biso   1.000  O
  O4       1.0000 0.16291  0.96590  0.71538  Biso   1.000  O
  K1       1.0000 0.53636  0.67561  0.11454  Biso   1.000  K
  K2       1.0000 0.46364  0.17561  0.38546  Biso   1.000  K
  K3       1.0000 0.46364  0.32439  0.88546  Biso   1.000  K
  K4       1.0000 0.53636  0.82439  0.61454  Biso   1.000  K
  Cu5      1.0000 0.26025  0.48078  0.18818  Biso   1.000  Cu
  Cu6      1.0000 0.73975  0.98078  0.31182  Biso   1.000  Cu
  Cu7      1.0000 0.73975  0.51922  0.81182  Biso   1.000  Cu
  Cu8      1.0000 0.26025  0.01922  0.68818  Biso   1.000  Cu
  C5       1.0000 0.51670  0.52337  0.33600  Biso   1.000  C
  C6       1.0000 0.48330  0.02337  0.16400  Biso   1.000  C
  C7       1.0000 0.48330  0.47663  0.66400  Biso   1.000  C
  C8       1.0000 0.51670  0.97663  0.83600  Biso   1.000  C
  O5       1.0000 0.47830  0.30038  0.48485  Biso   1.000  O
  O6       1.0000 0.52170  0.80038  0.01515  Biso   1.000  O
  O7       1.0000 0.52170  0.69962  0.51515  Biso   1.000  O
  O8       1.0000 0.47830  0.19962  0.98485  Biso   1.000  O
  N5       1.0000 0.47408  0.47620  0.37662  Biso   1.000  N
  N6       1.0000 0.52592  0.97620  0.12338  Biso   1.000  N
  N7       1.0000 0.52592  0.52380  0.62338  Biso   1.000  N
  N8       1.0000 0.47408  0.02380  0.87662  Biso   1.000  N
  O9       1.0000 0.49136  0.64009  0.25461  Biso   1.000  O
  O10      1.0000 0.50864  0.14009  0.24539  Biso   1.000  O
  O11      1.0000 0.50864  0.35991  0.74539  Biso   1.000  O
  O12      1.0000 0.49136  0.85991  0.75461  Biso   1.000  O
  C9       1.0000 0.60480  0.50770  0.33570  Biso   1.000  C
  C10      1.0000 0.39520  0.00770  0.16430  Biso   1.000  C
  C11      1.0000 0.39520  0.49230  0.66430  Biso   1.000  C
  C12      1.0000 0.60480  0.99230  0.83570  Biso   1.000  C
  H1       1.0000 0.63480  0.54092  0.30642  Biso   1.000  H
  H2       1.0000 0.36520  0.04092  0.19358  Biso   1.000  H
  H3       1.0000 0.36520  0.45908  0.69358  Biso   1.000  H
  H4       1.0000 0.63480  0.95908  0.80642  Biso   1.000  H
  N9       1.0000 0.37386  0.59196  0.30243  Biso   1.000  N
  N10      1.0000 0.62614  0.09196  0.19757  Biso   1.000  N
  N11      1.0000 0.62614  0.40804  0.69757  Biso   1.000  N
  N12      1.0000 0.37386  0.90804  0.80243  Biso   1.000  N
  N13      1.0000 0.35605  0.42696  0.15878  Biso   1.000  N
  N14      1.0000 0.64395  0.92696  0.34122  Biso   1.000  N
  N15      1.0000 0.64395  0.57304  0.84122  Biso   1.000  N
  N16      1.0000 0.35605  0.07304  0.65878  Biso   1.000  N
  C13      1.0000 0.60350  0.39250  0.42030  Biso   1.000  C
  C14      1.0000 0.39650  0.89250  0.07970  Biso   1.000  C
  C15      1.0000 0.39650  0.60750  0.57970  Biso   1.000  C
  C16      1.0000 0.60350  0.10750  0.92030  Biso   1.000  C
  H5       1.0000 0.63308  0.34707  0.44962  Biso   1.000  H
  H6       1.0000 0.36692  0.84707  0.05038  Biso   1.000  H
  H7       1.0000 0.36692  0.65293  0.55038  Biso   1.000  H
  H8       1.0000 0.63308  0.15293  0.94962  Biso   1.000  H
  O13      1.0000 0.33449  0.26385  0.27844  Biso   1.000  O
  O14      1.0000 0.66551  0.76385  0.22156  Biso   1.000  O
  O15      1.0000 0.66551  0.73615  0.72156  Biso   1.000  O
  O16      1.0000 0.33449  0.23615  0.77844  Biso   1.000  O
  N17      1.0000 0.25790  0.38095  0.24921  Biso   1.000  N
  N18      1.0000 0.74210  0.88095  0.25079  Biso   1.000  N
  N19      1.0000 0.74210  0.61905  0.75079  Biso   1.000  N
  N20      1.0000 0.25790  0.11905  0.74921  Biso   1.000  N
  C17      1.0000 0.51400  0.41166  0.41720  Biso   1.000  C
  C18      1.0000 0.48600  0.91166  0.08280  Biso   1.000  C
  C19      1.0000 0.48600  0.58834  0.58280  Biso   1.000  C
  C20      1.0000 0.51400  0.08834  0.91720  Biso   1.000  C
  O17      1.0000 0.67490  0.57853  0.11620  Biso   1.000  O
  O18      1.0000 0.32510  0.07853  0.38380  Biso   1.000  O
  O19      1.0000 0.32510  0.42147  0.88380  Biso   1.000  O
  O20      1.0000 0.67490  0.92147  0.61620  Biso   1.000  O
  O21      1.0000 0.39648  0.58299  0.03673  Biso   1.000  O
  O22      1.0000 0.60352  0.08299  0.46327  Biso   1.000  O
  O23      1.0000 0.60352  0.41701  0.96327  Biso   1.000  O
  O24      1.0000 0.39648  0.91701  0.53673  Biso   1.000  O
  C21      1.0000 0.64900  0.44180  0.37930  Biso   1.000  C
  C22      1.0000 0.35100  0.94180  0.12070  Biso   1.000  C
  C23      1.0000 0.35100  0.55820  0.62070  Biso   1.000  C
  C24      1.0000 0.64900  0.05820  0.87930  Biso   1.000  C
  H9       1.0000 0.71070  0.43027  0.38127  Biso   1.000  H
  H10      1.0000 0.28930  0.93027  0.11873  Biso   1.000  H
  H11      1.0000 0.28930  0.56973  0.61873  Biso   1.000  H
  H12      1.0000 0.71070  0.06973  0.88127  Biso   1.000  H
  N21      1.0000 0.29680  0.56172  0.11774  Biso   1.000  N
  N22      1.0000 0.70320  0.06172  0.38226  Biso   1.000  N
  N23      1.0000 0.70320  0.43828  0.88226  Biso   1.000  N
  N24      1.0000 0.29680  0.93828  0.61774  Biso   1.000  N
  C25      1.0000 0.74500  0.63020  0.10430  Biso   1.000  C
  C26      1.0000 0.25500  0.13020  0.39570  Biso   1.000  C
  C27      1.0000 0.25500  0.36980  0.89570  Biso   1.000  C
  C28      1.0000 0.74500  0.86980  0.60430  Biso   1.000  C
  C29      1.0000 0.72070  0.50860  0.15870  Biso   1.000  C
  C30      1.0000 0.27930  0.00860  0.34130  Biso   1.000  C
  C31      1.0000 0.27930  0.49140  0.84130  Biso   1.000  C
  C32      1.0000 0.72070  0.99140  0.65870  Biso   1.000  C
  C33      1.0000 0.07770  0.59050  0.30100  Biso   1.000  C
  C34      1.0000 0.92230  0.09050  0.19900  Biso   1.000  C
  C35      1.0000 0.92230  0.40950  0.69900  Biso   1.000  C
  C36      1.0000 0.07770  0.90950  0.80100  Biso   1.000  C
  H13      1.0000 0.08360  0.59622  0.36371  Biso   1.000  H
  H14      1.0000 0.91640  0.09622  0.13629  Biso   1.000  H
  H15      1.0000 0.91640  0.40378  0.63629  Biso   1.000  H
  H16      1.0000 0.08360  0.90378  0.86371  Biso   1.000  H
  H17      1.0000 0.02095  0.56141  0.26977  Biso   1.000  H
  H18      1.0000 0.97905  0.06141  0.23023  Biso   1.000  H
  H19      1.0000 0.97905  0.43859  0.73023  Biso   1.000  H
  H20      1.0000 0.02095  0.93859  0.76977  Biso   1.000  H
  H21      1.0000 0.07416  0.64160  0.27390  Biso   1.000  H
  H22      1.0000 0.92584  0.14160  0.22610  Biso   1.000  H
  H23      1.0000 0.92584  0.35840  0.72610  Biso   1.000  H
  H24      1.0000 0.07416  0.85840  0.77390  Biso   1.000  H
  C37      1.0000 0.16120  0.54830  0.29440  Biso   1.000  C
  C38      1.0000 0.83880  0.04830  0.20560  Biso   1.000  C
  C39      1.0000 0.83880  0.45170  0.70560  Biso   1.000  C
  C40      1.0000 0.16120  0.95170  0.79440  Biso   1.000  C
  C41      1.0000 0.27020  0.68265  0.18550  Biso   1.000  C
  C42      1.0000 0.72980  0.18265  0.31450  Biso   1.000  C
  C43      1.0000 0.72980  0.31735  0.81450  Biso   1.000  C
  C44      1.0000 0.27020  0.81735  0.68550  Biso   1.000  C
  C45      1.0000 0.31980  0.66077  0.27540  Biso   1.000  C
  C46      1.0000 0.68020  0.16077  0.22460  Biso   1.000  C
  C47      1.0000 0.68020  0.33923  0.72460  Biso   1.000  C
  C48      1.0000 0.31980  0.83923  0.77540  Biso   1.000  C
  C49      1.0000 0.31850  0.70820  0.34350  Biso   1.000  C
  C50      1.0000 0.68150  0.20820  0.15650  Biso   1.000  C
  C51      1.0000 0.68150  0.29180  0.65650  Biso   1.000  C
  C52      1.0000 0.31850  0.79180  0.84350  Biso   1.000  C
  H25      1.0000 0.35022  0.69254  0.40301  Biso   1.000  H
  H26      1.0000 0.64978  0.19254  0.09699  Biso   1.000  H
  H27      1.0000 0.64978  0.30746  0.59699  Biso   1.000  H
  H28      1.0000 0.35022  0.80746  0.90301  Biso   1.000  H
  C53      1.0000 0.27200  0.77920  0.32810  Biso   1.000  C
  C54      1.0000 0.72800  0.27920  0.17190  Biso   1.000  C
  C55      1.0000 0.72800  0.22080  0.67190  Biso   1.000  C
  C56      1.0000 0.27200  0.72080  0.82810  Biso   1.000  C
  H29      1.0000 0.27251  0.81080  0.37674  Biso   1.000  H
  H30      1.0000 0.72749  0.31080  0.12326  Biso   1.000  H
  H31      1.0000 0.72749  0.18920  0.62326  Biso   1.000  H
  H32      1.0000 0.27251  0.68920  0.87674  Biso   1.000  H
  C57      1.0000 0.22630  0.80260  0.24370  Biso   1.000  C
  C58      1.0000 0.77370  0.30260  0.25630  Biso   1.000  C
  C59      1.0000 0.77370  0.19740  0.75630  Biso   1.000  C
  C60      1.0000 0.22630  0.69740  0.74370  Biso   1.000  C
  H33      1.0000 0.19522  0.85101  0.23350  Biso   1.000  H
  H34      1.0000 0.80478  0.35101  0.26650  Biso   1.000  H
  H35      1.0000 0.80478  0.14899  0.76650  Biso   1.000  H
  H36      1.0000 0.19522  0.64899  0.73350  Biso   1.000  H
  C61      1.0000 0.22420  0.75609  0.17080  Biso   1.000  C
  C62      1.0000 0.77580  0.25609  0.32920  Biso   1.000  C
  C63      1.0000 0.77580  0.24391  0.82920  Biso   1.000  C
  C64      1.0000 0.22420  0.74391  0.67080  Biso   1.000  C
  C65      1.0000 0.17780  0.78240  0.08320  Biso   1.000  C
  C66      1.0000 0.82220  0.28240  0.41680  Biso   1.000  C
  C67      1.0000 0.82220  0.21760  0.91680  Biso   1.000  C
  C68      1.0000 0.17780  0.71760  0.58320  Biso   1.000  C
  H37      1.0000 0.14844  0.83142  0.07428  Biso   1.000  H
  H38      1.0000 0.85156  0.33142  0.42572  Biso   1.000  H
  H39      1.0000 0.85156  0.16858  0.92572  Biso   1.000  H
  H40      1.0000 0.14844  0.66858  0.57428  Biso   1.000  H
  C69      1.0000 0.17460  0.73950  0.01270  Biso   1.000  C
  C70      1.0000 0.82540  0.23950  0.48730  Biso   1.000  C
  C71      1.0000 0.82540  0.26050  0.98730  Biso   1.000  C
  C72      1.0000 0.17460  0.76050  0.51270  Biso   1.000  C
  H41      1.0000 0.14411  0.75841  0.95431  Biso   1.000  H
  H42      1.0000 0.85589  0.25841  0.54569  Biso   1.000  H
  H43      1.0000 0.85589  0.24159  0.04569  Biso   1.000  H
  H44      1.0000 0.14411  0.74159  0.45431  Biso   1.000  H
  C73      1.0000 0.44960  0.36381  0.44980  Biso   1.000  C
  C74      1.0000 0.55040  0.86381  0.05020  Biso   1.000  C
  C75      1.0000 0.55040  0.63619  0.55020  Biso   1.000  C
  C76      1.0000 0.44960  0.13619  0.94980  Biso   1.000  C
  N25      1.0000 0.22772  0.52962  0.36746  Biso   1.000  N
  N26      1.0000 0.77228  0.02962  0.13254  Biso   1.000  N
  N27      1.0000 0.77228  0.47038  0.63254  Biso   1.000  N
  N28      1.0000 0.22772  0.97038  0.86746  Biso   1.000  N
  H45      1.0000 0.21620  0.53116  0.41784  Biso   1.000  H
  H46      1.0000 0.78380  0.03116  0.08216  Biso   1.000  H
  H47      1.0000 0.78380  0.46884  0.58216  Biso   1.000  H
  H48      1.0000 0.21620  0.96884  0.91784  Biso   1.000  H
  C77      1.0000 0.29430  0.35424  0.44930  Biso   1.000  C
  C78      1.0000 0.70570  0.85424  0.05070  Biso   1.000  C
  C79      1.0000 0.70570  0.64576  0.55070  Biso   1.000  C
  C80      1.0000 0.29430  0.14576  0.94930  Biso   1.000  C
  C81      1.0000 0.30670  0.33113  0.53520  Biso   1.000  C
  C82      1.0000 0.69330  0.83113  0.96480  Biso   1.000  C
  C83      1.0000 0.69330  0.66887  0.46480  Biso   1.000  C
  C84      1.0000 0.30670  0.16887  0.03520  Biso   1.000  C
  H49      1.0000 0.36513  0.33953  0.58057  Biso   1.000  H
  H50      1.0000 0.63487  0.83953  0.91943  Biso   1.000  H
  H51      1.0000 0.63487  0.66047  0.41943  Biso   1.000  H
  H52      1.0000 0.36513  0.16047  0.08057  Biso   1.000  H
  C85      1.0000 0.23420  0.29540  0.55620  Biso   1.000  C
  C86      1.0000 0.76580  0.79540  0.94380  Biso   1.000  C
  C87      1.0000 0.76580  0.70460  0.44380  Biso   1.000  C
  C88      1.0000 0.23420  0.20460  0.05620  Biso   1.000  C
  H53      1.0000 0.24411  0.27933  0.61552  Biso   1.000  H
  H54      1.0000 0.75589  0.77933  0.88448  Biso   1.000  H
  H55      1.0000 0.75589  0.72067  0.38448  Biso   1.000  H
  H56      1.0000 0.24411  0.22067  0.11552  Biso   1.000  H
  C89      1.0000 0.15010  0.28350  0.49270  Biso   1.000  C
  C90      1.0000 0.84990  0.78350  0.00730  Biso   1.000  C
  C91      1.0000 0.84990  0.71650  0.50730  Biso   1.000  C
  C92      1.0000 0.15010  0.21650  0.99270  Biso   1.000  C
  H57      1.0000 0.10113  0.26062  0.50841  Biso   1.000  H
  H58      1.0000 0.89887  0.76062  0.99159  Biso   1.000  H
  H59      1.0000 0.89887  0.73938  0.49159  Biso   1.000  H
  H60      1.0000 0.10113  0.23938  0.00841  Biso   1.000  H
  C93      1.0000 0.13390  0.30470  0.40290  Biso   1.000  C
  C94      1.0000 0.86610  0.80470  0.09710  Biso   1.000  C
  C95      1.0000 0.86610  0.69530  0.59710  Biso   1.000  C
  C96      1.0000 0.13390  0.19530  0.90290  Biso   1.000  C
  C97      1.0000 0.32220  0.32884  0.24610  Biso   1.000  C
  C98      1.0000 0.67780  0.82884  0.25390  Biso   1.000  C
  C99      1.0000 0.67780  0.67116  0.75390  Biso   1.000  C
  C100     1.0000 0.32220  0.17116  0.74610  Biso   1.000  C
  C101     1.0000 0.20810  0.33935  0.37940  Biso   1.000  C
  C102     1.0000 0.79190  0.83935  0.12060  Biso   1.000  C
  C103     1.0000 0.79190  0.66065  0.62060  Biso   1.000  C
  C104     1.0000 0.20810  0.16065  0.87940  Biso   1.000  C
  C105     1.0000 0.18870  0.35470  0.28610  Biso   1.000  C
  C106     1.0000 0.81130  0.85470  0.21390  Biso   1.000  C
  C107     1.0000 0.81130  0.64530  0.71390  Biso   1.000  C
  C108     1.0000 0.18870  0.14530  0.78610  Biso   1.000  C
  C109     1.0000 0.10220  0.34200  0.22630  Biso   1.000  C
  C110     1.0000 0.89780  0.84200  0.27370  Biso   1.000  C
  C111     1.0000 0.89780  0.65800  0.77370  Biso   1.000  C
  C112     1.0000 0.10220  0.15800  0.72630  Biso   1.000  C
  H61      1.0000 0.09036  0.35383  0.16538  Biso   1.000  H
  H62      1.0000 0.90964  0.85383  0.33462  Biso   1.000  H
  H63      1.0000 0.90964  0.64617  0.83462  Biso   1.000  H
  H64      1.0000 0.09036  0.14617  0.66538  Biso   1.000  H
  C113     1.0000 0.02980  0.31170  0.25280  Biso   1.000  C
  C114     1.0000 0.97020  0.81170  0.24720  Biso   1.000  C
  C115     1.0000 0.97020  0.68830  0.74720  Biso   1.000  C
  C116     1.0000 0.02980  0.18830  0.75280  Biso   1.000  C
  H65      1.0000 0.96926  0.30492  0.21019  Biso   1.000  H
  H66      1.0000 0.03074  0.80492  0.28981  Biso   1.000  H
  H67      1.0000 0.03074  0.69508  0.78981  Biso   1.000  H
  H68      1.0000 0.96926  0.19508  0.71019  Biso   1.000  H
  C117     1.0000 0.04630  0.29240  0.33830  Biso   1.000  C
  C118     1.0000 0.95370  0.79240  0.16170  Biso   1.000  C
  C119     1.0000 0.95370  0.70760  0.66170  Biso   1.000  C
  C120     1.0000 0.04630  0.20760  0.83830  Biso   1.000  C
  H69      1.0000 0.99774  0.26997  0.35504  Biso   1.000  H
  H70      1.0000 0.00226  0.76997  0.14496  Biso   1.000  H
  H71      1.0000 0.00226  0.73003  0.64496  Biso   1.000  H
  H72      1.0000 0.99774  0.23003  0.85504  Biso   1.000  H
  C121     1.0000 0.38040  0.35704  0.19290  Biso   1.000  C
  C122     1.0000 0.61960  0.85704  0.30710  Biso   1.000  C
  C123     1.0000 0.61960  0.64296  0.80710  Biso   1.000  C
  C124     1.0000 0.38040  0.14296  0.69290  Biso   1.000  C
  C125     1.0000 0.45120  0.31730  0.17590  Biso   1.000  C
  C126     1.0000 0.54880  0.81730  0.32410  Biso   1.000  C
  C127     1.0000 0.54880  0.68270  0.82410  Biso   1.000  C
  C128     1.0000 0.45120  0.18270  0.67590  Biso   1.000  C
  H73      1.0000 0.46900  0.26725  0.19972  Biso   1.000  H
  H74      1.0000 0.53100  0.76725  0.30028  Biso   1.000  H
  H75      1.0000 0.53100  0.73275  0.80028  Biso   1.000  H
  H76      1.0000 0.46900  0.23275  0.69972  Biso   1.000  H
  C129     1.0000 0.49580  0.35250  0.12270  Biso   1.000  C
  C130     1.0000 0.50420  0.85250  0.37730  Biso   1.000  C
  C131     1.0000 0.50420  0.64750  0.87730  Biso   1.000  C
  C132     1.0000 0.49580  0.14750  0.62270  Biso   1.000  C
  H77      1.0000 0.54449  0.32628  0.10970  Biso   1.000  H
  H78      1.0000 0.45551  0.82628  0.39030  Biso   1.000  H
  H79      1.0000 0.45551  0.67372  0.89030  Biso   1.000  H
  H80      1.0000 0.54449  0.17372  0.60970  Biso   1.000  H
  C133     1.0000 0.46940  0.42560  0.08890  Biso   1.000  C
  C134     1.0000 0.53060  0.92560  0.41110  Biso   1.000  C
  C135     1.0000 0.53060  0.57440  0.91110  Biso   1.000  C
  C136     1.0000 0.46940  0.07440  0.58890  Biso   1.000  C
  H81      1.0000 0.49949  0.45004  0.05270  Biso   1.000  H
  H82      1.0000 0.50051  0.95004  0.44730  Biso   1.000  H
  H83      1.0000 0.50051  0.54996  0.94730  Biso   1.000  H
  H84      1.0000 0.49949  0.04996  0.55270  Biso   1.000  H
  C137     1.0000 0.39860  0.46225  0.10870  Biso   1.000  C
  C138     1.0000 0.60140  0.96225  0.39130  Biso   1.000  C
  C139     1.0000 0.60140  0.53775  0.89130  Biso   1.000  C
  C140     1.0000 0.39860  0.03775  0.60870  Biso   1.000  C
  C141     1.0000 0.36250  0.54310  0.08270  Biso   1.000  C
  C142     1.0000 0.63750  0.04310  0.41730  Biso   1.000  C
  C143     1.0000 0.63750  0.45690  0.91730  Biso   1.000  C
  C144     1.0000 0.36250  0.95690  0.58270  Biso   1.000  C
  C145     1.0000 0.26200  0.63780  0.10800  Biso   1.000  C
  C146     1.0000 0.73800  0.13780  0.39200  Biso   1.000  C
  C147     1.0000 0.73800  0.36220  0.89200  Biso   1.000  C
  C148     1.0000 0.26200  0.86220  0.60800  Biso   1.000  C
  C149     1.0000 0.21630  0.66660  0.02520  Biso   1.000  C
  C150     1.0000 0.78370  0.16660  0.47480  Biso   1.000  C
  C151     1.0000 0.78370  0.33340  0.97480  Biso   1.000  C
  C152     1.0000 0.21630  0.83340  0.52520  Biso   1.000  C
  H85      1.0000 0.21269  0.63630  0.97469  Biso   1.000  H
  H86      1.0000 0.78731  0.13630  0.52531  Biso   1.000  H
  H87      1.0000 0.78731  0.36370  0.02531  Biso   1.000  H
  H88      1.0000 0.21269  0.86370  0.47469  Biso   1.000  H
  C153     1.0000 0.82100  0.62100  0.18860  Biso   1.000  C
  C154     1.0000 0.17900  0.12100  0.31140  Biso   1.000  C
  C155     1.0000 0.17900  0.37900  0.81140  Biso   1.000  C
  C156     1.0000 0.82100  0.87900  0.68860  Biso   1.000  C
  C157     1.0000 0.80750  0.53840  0.22330  Biso   1.000  C
  C158     1.0000 0.19250  0.03840  0.27670  Biso   1.000  C
  C159     1.0000 0.19250  0.46160  0.77670  Biso   1.000  C
  C160     1.0000 0.80750  0.96160  0.72330  Biso   1.000  C
  C161     1.0000 0.82620  0.58280  0.10730  Biso   1.000  C
  C162     1.0000 0.17380  0.08280  0.39270  Biso   1.000  C
  C163     1.0000 0.17380  0.41720  0.89270  Biso   1.000  C
  C164     1.0000 0.82620  0.91720  0.60730  Biso   1.000  C
  C165     1.0000 0.82260  0.50860  0.15840  Biso   1.000  C
  C166     1.0000 0.17740  0.00860  0.34160  Biso   1.000  C
  C167     1.0000 0.17740  0.49140  0.84160  Biso   1.000  C
  C168     1.0000 0.82260  0.99140  0.65840  Biso   1.000  C
