data_image0
_cell_length_a       8.9664
_cell_length_b       12.5605
_cell_length_c       13.3868
_cell_angle_alpha    99.718
_cell_angle_beta     95.044
_cell_angle_gamma    101.399

_symmetry_space_group_name_H-M    "P 1"
_symmetry_int_tables_number       1

loop_
  _symmetry_equiv_pos_as_xyz
  'x, y, z'

loop_
  _atom_site_label
  _atom_site_occupancy
  _atom_site_fract_x
  _atom_site_fract_y
  _atom_site_fract_z
  _atom_site_thermal_displace_type
  _atom_site_B_iso_or_equiv
  _atom_site_type_symbol
  Cu1      1.0000 0.41353  0.66738  0.57260  Biso   1.000  Cu
  Cu2      1.0000 0.58647  0.33262  0.42740  Biso   1.000  Cu
  O1       1.0000 0.50536  0.41071  0.85252  Biso   1.000  O
  O2       1.0000 0.49464  0.58929  0.14748  Biso   1.000  O
  O3       1.0000 0.27670  0.24347  0.11353  Biso   1.000  O
  O4       1.0000 0.72330  0.75653  0.88647  Biso   1.000  O
  O5       1.0000 0.81417  0.11734  0.90468  Biso   1.000  O
  O6       1.0000 0.18583  0.88266  0.09532  Biso   1.000  O
  O7       1.0000 0.02633  0.32775  0.66450  Biso   1.000  O
  O8       1.0000 0.97367  0.67225  0.33550  Biso   1.000  O
  O9       1.0000 0.48068  0.02495  0.85194  Biso   1.000  O
  O10      1.0000 0.51932  0.97505  0.14806  Biso   1.000  O
  O11      1.0000 0.03648  0.94442  0.62501  Biso   1.000  O
  O12      1.0000 0.96352  0.05558  0.37499  Biso   1.000  O
  N1       1.0000 0.34090  0.80120  0.64198  Biso   1.000  N
  N2       1.0000 0.65910  0.19880  0.35802  Biso   1.000  N
  N3       1.0000 0.25710  0.98857  0.73893  Biso   1.000  N
  N4       1.0000 0.74290  0.01143  0.26107  Biso   1.000  N
  N5       1.0000 0.34710  0.54876  0.66952  Biso   1.000  N
  N6       1.0000 0.65290  0.45124  0.33048  Biso   1.000  N
  N7       1.0000 0.26540  0.36564  0.75885  Biso   1.000  N
  N8       1.0000 0.73460  0.63436  0.24115  Biso   1.000  N
  N9       1.0000 0.89150  0.22610  0.17333  Biso   1.000  N
  N10      1.0000 0.10850  0.77390  0.82667  Biso   1.000  N
  N11      1.0000 0.04800  0.18164  0.00642  Biso   1.000  N
  N12      1.0000 0.95200  0.81836  0.99358  Biso   1.000  N
  C1       1.0000 0.45860  0.31597  0.89394  Biso   1.000  C
  C2       1.0000 0.54140  0.68403  0.10606  Biso   1.000  C
  C3       1.0000 0.48990  0.21705  0.84861  Biso   1.000  C
  C4       1.0000 0.51010  0.78295  0.15139  Biso   1.000  C
  H1       1.0000 0.53980  0.21150  0.78880  Biso   1.000  H
  H2       1.0000 0.46020  0.78850  0.21120  Biso   1.000  H
  C5       1.0000 0.44590  0.12631  0.89357  Biso   1.000  C
  C6       1.0000 0.55410  0.87369  0.10643  Biso   1.000  C
  C7       1.0000 0.37570  0.13202  0.98153  Biso   1.000  C
  C8       1.0000 0.62430  0.86798  0.01847  Biso   1.000  C
  H3       1.0000 0.34760  0.06890  0.01170  Biso   1.000  H
  H4       1.0000 0.65240  0.93110  0.98830  Biso   1.000  H
  C9       1.0000 0.34800  0.23354  0.02395  Biso   1.000  C
  C10      1.0000 0.65200  0.76646  0.97605  Biso   1.000  C
  C11      1.0000 0.38850  0.32629  0.98212  Biso   1.000  C
  C12      1.0000 0.61150  0.67371  0.01788  Biso   1.000  C
  H5       1.0000 0.36900  0.39530  0.01280  Biso   1.000  H
  H6       1.0000 0.63100  0.60470  0.98720  Biso   1.000  H
  C13      1.0000 0.99970  0.03950  0.68076  Biso   1.000  C
  C14      1.0000 0.00030  0.96050  0.31924  Biso   1.000  C
  C15      1.0000 0.92700  0.03025  0.76649  Biso   1.000  C
  C16      1.0000 0.07300  0.96975  0.23351  Biso   1.000  C
  H7       1.0000 0.90190  0.96160  0.78850  Biso   1.000  H
  H8       1.0000 0.09810  0.03840  0.21150  Biso   1.000  H
  C17      1.0000 0.89240  0.12460  0.81884  Biso   1.000  C
  C18      1.0000 0.10760  0.87540  0.18116  Biso   1.000  C
  C19      1.0000 0.92590  0.22502  0.78766  Biso   1.000  C
  C20      1.0000 0.07410  0.77498  0.21234  Biso   1.000  C
  H9       1.0000 0.90080  0.28920  0.82470  Biso   1.000  H
  H10      1.0000 0.09920  0.71080  0.17530  Biso   1.000  H
  C21      1.0000 0.99710  0.22889  0.70085  Biso   1.000  C
  C22      1.0000 0.00290  0.77111  0.29915  Biso   1.000  C
  C23      1.0000 0.03490  0.13674  0.64562  Biso   1.000  C
  C24      1.0000 0.96510  0.86326  0.35438  Biso   1.000  C
  H11      1.0000 0.08330  0.14060  0.58560  Biso   1.000  H
  H12      1.0000 0.91670  0.85940  0.41440  Biso   1.000  H
  C25      1.0000 0.44740  0.52369  0.73710  Biso   1.000  C
  C26      1.0000 0.55260  0.47631  0.26290  Biso   1.000  C
  H13      1.0000 0.54840  0.56790  0.75450  Biso   1.000  H
  H14      1.0000 0.45160  0.43210  0.24550  Biso   1.000  H
  C27      1.0000 0.40200  0.43223  0.78146  Biso   1.000  C
  C28      1.0000 0.59800  0.56777  0.21854  Biso   1.000  C
  C29      1.0000 0.16900  0.39290  0.69214  Biso   1.000  C
  C30      1.0000 0.83100  0.60710  0.30786  Biso   1.000  C
  C31      1.0000 0.20590  0.48479  0.64742  Biso   1.000  C
  C32      1.0000 0.79410  0.51521  0.35258  Biso   1.000  C
  H15      1.0000 0.13150  0.50220  0.60140  Biso   1.000  H
  H16      1.0000 0.86850  0.49780  0.39860  Biso   1.000  H
  C33      1.0000 0.11970  0.22330  0.09952  Biso   1.000  C
  C34      1.0000 0.88030  0.77670  0.90048  Biso   1.000  C
  C35      1.0000 0.04410  0.24573  0.18401  Biso   1.000  C
  C36      1.0000 0.95590  0.75427  0.81599  Biso   1.000  C
  H17      1.0000 0.10100  0.27510  0.24950  Biso   1.000  H
  H18      1.0000 0.89900  0.72490  0.75050  Biso   1.000  H
  C37      1.0000 0.81690  0.18530  0.07996  Biso   1.000  C
  C38      1.0000 0.18310  0.81470  0.92004  Biso   1.000  C
  H19      1.0000 0.70800  0.17120  0.06970  Biso   1.000  H
  H20      1.0000 0.29200  0.82880  0.93030  Biso   1.000  H
  C39      1.0000 0.89690  0.16340  0.99801  Biso   1.000  C
  C40      1.0000 0.10310  0.83660  0.00199  Biso   1.000  C
  C41      1.0000 0.43010  0.86697  0.72344  Biso   1.000  C
  C42      1.0000 0.56990  0.13303  0.27656  Biso   1.000  C
  H21      1.0000 0.52290  0.84960  0.74890  Biso   1.000  H
  H22      1.0000 0.47710  0.15040  0.25110  Biso   1.000  H
  C43      1.0000 0.38540  0.96032  0.76989  Biso   1.000  C
  C44      1.0000 0.61460  0.03968  0.23011  Biso   1.000  C
  C45      1.0000 0.17070  0.92048  0.66005  Biso   1.000  C
  C46      1.0000 0.82930  0.07952  0.33995  Biso   1.000  C
  C47      1.0000 0.20980  0.82595  0.60882  Biso   1.000  C
  C48      1.0000 0.79020  0.17405  0.39118  Biso   1.000  C
  H23      1.0000 0.14440  0.78010  0.55150  Biso   1.000  H
  H24      1.0000 0.85560  0.21990  0.44850  Biso   1.000  H
  N13      1.0000 0.68530  0.68837  0.55767  Biso   1.000  N
  N14      1.0000 0.31470  0.31163  0.44233  Biso   1.000  N
  N15      1.0000 0.24900  0.58610  0.37940  Biso   1.000  N
  N16      1.0000 0.75100  0.41390  0.62060  Biso   1.000  N
  O13      1.0000 0.58250  0.63500  0.48614  Biso   1.000  O
  O14      1.0000 0.41750  0.36500  0.51386  Biso   1.000  O
  O15      1.0000 0.82070  0.70625  0.55108  Biso   1.000  O
  O16      1.0000 0.17930  0.29375  0.44892  Biso   1.000  O
  O17      1.0000 0.63070  0.72251  0.63891  Biso   1.000  O
  O18      1.0000 0.36930  0.27749  0.36109  Biso   1.000  O
  O19      1.0000 0.32770  0.66090  0.34883  Biso   1.000  O
  O20      1.0000 0.67230  0.33910  0.65117  Biso   1.000  O
  O21      1.0000 0.17790  0.50075  0.32536  Biso   1.000  O
  O22      1.0000 0.82210  0.49925  0.67464  Biso   1.000  O
  O23      1.0000 0.23570  0.59896  0.47701  Biso   1.000  O
  O24      1.0000 0.76430  0.40104  0.52299  Biso   1.000  O
  C49      1.0000 0.02860  0.52880  0.90720  Biso   1.000  C
  C50      1.0000 0.97140  0.47120  0.09280  Biso   1.000  C
  H25      1.0000 0.04860  0.54840  0.84340  Biso   1.000  H
  H26      1.0000 0.95140  0.45160  0.15660  Biso   1.000  H
  C51      1.0000 0.87960  0.48810  0.92360  Biso   1.000  C
  C52      1.0000 0.12040  0.51190  0.07640  Biso   1.000  C
  H27      1.0000 0.79710  0.48020  0.87140  Biso   1.000  H
  H28      1.0000 0.20290  0.51980  0.12860  Biso   1.000  H
  C53      1.0000 0.85150  0.45900  0.01650  Biso   1.000  C
  C54      1.0000 0.14850  0.54100  0.98350  Biso   1.000  C
  H29      1.0000 0.74940  0.43060  0.02790  Biso   1.000  H
  H30      1.0000 0.25060  0.56940  0.97210  Biso   1.000  H
  C55      1.0000 0.53340  0.90590  0.44500  Biso   1.000  C
  C56      1.0000 0.46660  0.09410  0.55500  Biso   1.000  C
  H31      1.0000 0.55590  0.84120  0.40700  Biso   1.000  H
  H32      1.0000 0.44410  0.15880  0.59300  Biso   1.000  H
  C57      1.0000 0.39790  0.93750  0.41850  Biso   1.000  C
  C58      1.0000 0.60210  0.06250  0.58150  Biso   1.000  C
  H33      1.0000 0.32760  0.89410  0.36230  Biso   1.000  H
  H34      1.0000 0.67240  0.10590  0.63770  Biso   1.000  H
  C59      1.0000 0.36440  0.03140  0.47310  Biso   1.000  C
  C60      1.0000 0.63560  0.96860  0.52690  Biso   1.000  C
  H35      1.0000 0.27160  0.05280  0.45440  Biso   1.000  H
  H36      1.0000 0.72840  0.94720  0.54560  Biso   1.000  H
