data_image0
_cell_length_a       11.9159
_cell_length_b       11.2325
_cell_length_c       11.9666
_cell_angle_alpha    90
_cell_angle_beta     101.544
_cell_angle_gamma    90

_symmetry_space_group_name_H-M    "P 1"
_symmetry_int_tables_number       1

loop_
  _symmetry_equiv_pos_as_xyz
  'x, y, z'

loop_
  _atom_site_label
  _atom_site_occupancy
  _atom_site_fract_x
  _atom_site_fract_y
  _atom_site_fract_z
  _atom_site_thermal_displace_type
  _atom_site_B_iso_or_equiv
  _atom_site_type_symbol
  Cu1      1.0000 0.89005  0.99691  0.09748  Biso   1.000  Cu
  Cu2      1.0000 0.60995  0.49691  0.40252  Biso   1.000  Cu
  Cu3      1.0000 0.10995  0.00309  0.90252  Biso   1.000  Cu
  Cu4      1.0000 0.39005  0.50309  0.59748  Biso   1.000  Cu
  Br1      1.0000 0.01953  0.15740  0.99803  Biso   1.000  Br
  Br2      1.0000 0.48047  0.65740  0.50197  Biso   1.000  Br
  Br3      1.0000 0.98047  0.84260  0.00197  Biso   1.000  Br
  Br4      1.0000 0.51953  0.34260  0.49803  Biso   1.000  Br
  Br5      1.0000 0.80933  0.16231  0.18182  Biso   1.000  Br
  Br6      1.0000 0.69067  0.66231  0.31818  Biso   1.000  Br
  Br7      1.0000 0.19067  0.83769  0.81818  Biso   1.000  Br
  Br8      1.0000 0.30933  0.33769  0.68182  Biso   1.000  Br
  N1       1.0000 0.97660  0.94210  0.25100  Biso   1.000  N
  N2       1.0000 0.52340  0.44210  0.24900  Biso   1.000  N
  N3       1.0000 0.02340  0.05790  0.74900  Biso   1.000  N
  N4       1.0000 0.47660  0.55790  0.75100  Biso   1.000  N
  N5       1.0000 0.94720  0.83900  0.28660  Biso   1.000  N
  N6       1.0000 0.55280  0.33900  0.21340  Biso   1.000  N
  N7       1.0000 0.05280  0.16100  0.71340  Biso   1.000  N
  N8       1.0000 0.44720  0.66100  0.78660  Biso   1.000  N
  N9       1.0000 0.01050  0.82200  0.39220  Biso   1.000  N
  N10      1.0000 0.48950  0.32200  0.10780  Biso   1.000  N
  N11      1.0000 0.98950  0.17800  0.60780  Biso   1.000  N
  N12      1.0000 0.51050  0.67800  0.89220  Biso   1.000  N
  N13      1.0000 0.07930  0.62410  0.43900  Biso   1.000  N
  N14      1.0000 0.42070  0.12410  0.06100  Biso   1.000  N
  N15      1.0000 0.92070  0.37590  0.56100  Biso   1.000  N
  N16      1.0000 0.57930  0.87590  0.93900  Biso   1.000  N
  N17      1.0000 0.17340  0.61120  0.52270  Biso   1.000  N
  N18      1.0000 0.32660  0.11120  0.97730  Biso   1.000  N
  N19      1.0000 0.82660  0.38880  0.47730  Biso   1.000  N
  N20      1.0000 0.67340  0.88880  0.02270  Biso   1.000  N
  N21      1.0000 0.23960  0.53320  0.48740  Biso   1.000  N
  N22      1.0000 0.26040  0.03320  0.01260  Biso   1.000  N
  N23      1.0000 0.76040  0.46680  0.51260  Biso   1.000  N
  N24      1.0000 0.73960  0.96680  0.98740  Biso   1.000  N
  C1       1.0000 0.06090  0.99340  0.33340  Biso   1.000  C
  C2       1.0000 0.43910  0.49340  0.16660  Biso   1.000  C
  C3       1.0000 0.93910  0.00660  0.66660  Biso   1.000  C
  C4       1.0000 0.56090  0.50660  0.83340  Biso   1.000  C
  C5       1.0000 0.11980  0.10160  0.33670  Biso   1.000  C
  C6       1.0000 0.38020  0.60160  0.16330  Biso   1.000  C
  C7       1.0000 0.88020  0.89840  0.66330  Biso   1.000  C
  C8       1.0000 0.61980  0.39840  0.83670  Biso   1.000  C
  C9       1.0000 0.20010  0.12420  0.43340  Biso   1.000  C
  C10      1.0000 0.29990  0.62420  0.06660  Biso   1.000  C
  C11      1.0000 0.79990  0.87580  0.56660  Biso   1.000  C
  C12      1.0000 0.70010  0.37580  0.93340  Biso   1.000  C
  C13      1.0000 0.22180  0.04440  0.52610  Biso   1.000  C
  C14      1.0000 0.27820  0.54440  0.97390  Biso   1.000  C
  C15      1.0000 0.77820  0.95560  0.47390  Biso   1.000  C
  C16      1.0000 0.72180  0.45560  0.02610  Biso   1.000  C
  C17      1.0000 0.16670  0.93850  0.52390  Biso   1.000  C
  C18      1.0000 0.33330  0.43850  0.97610  Biso   1.000  C
  C19      1.0000 0.83330  0.06150  0.47610  Biso   1.000  C
  C20      1.0000 0.66670  0.56150  0.02390  Biso   1.000  C
  C21      1.0000 0.08440  0.91400  0.42520  Biso   1.000  C
  C22      1.0000 0.41560  0.41400  0.07480  Biso   1.000  C
  C23      1.0000 0.91560  0.08600  0.57480  Biso   1.000  C
  C24      1.0000 0.58440  0.58600  0.92520  Biso   1.000  C
  C25      1.0000 0.08570  0.55220  0.34770  Biso   1.000  C
  C26      1.0000 0.41430  0.05220  0.15230  Biso   1.000  C
  C27      1.0000 0.91430  0.44780  0.65230  Biso   1.000  C
  C28      1.0000 0.58570  0.94780  0.84770  Biso   1.000  C
  C29      1.0000 0.01140  0.53330  0.24310  Biso   1.000  C
  C30      1.0000 0.48860  0.03330  0.25690  Biso   1.000  C
  C31      1.0000 0.98860  0.46670  0.75690  Biso   1.000  C
  C32      1.0000 0.51140  0.96670  0.74310  Biso   1.000  C
  C33      1.0000 0.04770  0.45270  0.17350  Biso   1.000  C
  C34      1.0000 0.45230  0.95270  0.32650  Biso   1.000  C
  C35      1.0000 0.95230  0.54730  0.82650  Biso   1.000  C
  C36      1.0000 0.54770  0.04730  0.67350  Biso   1.000  C
  C37      1.0000 0.15370  0.39280  0.20430  Biso   1.000  C
  C38      1.0000 0.34630  0.89280  0.29570  Biso   1.000  C
  C39      1.0000 0.84630  0.60720  0.79570  Biso   1.000  C
  C40      1.0000 0.65370  0.10720  0.70430  Biso   1.000  C
  C41      1.0000 0.22640  0.41120  0.30700  Biso   1.000  C
  C42      1.0000 0.27360  0.91120  0.19300  Biso   1.000  C
  C43      1.0000 0.77360  0.58880  0.69300  Biso   1.000  C
  C44      1.0000 0.72640  0.08880  0.80700  Biso   1.000  C
  C45      1.0000 0.18920  0.49330  0.37970  Biso   1.000  C
  C46      1.0000 0.31080  0.99330  0.12030  Biso   1.000  C
  C47      1.0000 0.81080  0.50670  0.62030  Biso   1.000  C
  C48      1.0000 0.68920  0.00670  0.87970  Biso   1.000  C
  C49      1.0000 0.99480  0.71200  0.45210  Biso   1.000  C
  C50      1.0000 0.50520  0.21200  0.04790  Biso   1.000  C
  C51      1.0000 0.00520  0.28800  0.54790  Biso   1.000  C
  C52      1.0000 0.49480  0.78800  0.95210  Biso   1.000  C
