data_image0
_cell_length_a       9.5648
_cell_length_b       11.1913
_cell_length_c       10.191
_cell_angle_alpha    90
_cell_angle_beta     108.284
_cell_angle_gamma    90

_symmetry_space_group_name_H-M    "P 1"
_symmetry_int_tables_number       1

loop_
  _symmetry_equiv_pos_as_xyz
  'x, y, z'

loop_
  _atom_site_label
  _atom_site_occupancy
  _atom_site_fract_x
  _atom_site_fract_y
  _atom_site_fract_z
  _atom_site_thermal_displace_type
  _atom_site_B_iso_or_equiv
  _atom_site_type_symbol
  Cu1      1.0000 0.72396  0.74628  0.24693  Biso   1.000  Cu
  Cu2      1.0000 0.77604  0.24628  0.25307  Biso   1.000  Cu
  Cu3      1.0000 0.27604  0.25372  0.75307  Biso   1.000  Cu
  Cu4      1.0000 0.22396  0.75372  0.74693  Biso   1.000  Cu
  O1       1.0000 0.75356  0.89959  0.34492  Biso   1.000  O
  O2       1.0000 0.74644  0.39959  0.15508  Biso   1.000  O
  O3       1.0000 0.24644  0.10041  0.65508  Biso   1.000  O
  O4       1.0000 0.25356  0.60041  0.84492  Biso   1.000  O
  O5       1.0000 0.88757  0.68234  0.39838  Biso   1.000  O
  O6       1.0000 0.61243  0.18234  0.10162  Biso   1.000  O
  O7       1.0000 0.11243  0.31766  0.60162  Biso   1.000  O
  O8       1.0000 0.38757  0.81766  0.89838  Biso   1.000  O
  O9       1.0000 0.78057  0.09526  0.35166  Biso   1.000  O
  O10      1.0000 0.71943  0.59526  0.14834  Biso   1.000  O
  O11      1.0000 0.21943  0.90474  0.64834  Biso   1.000  O
  O12      1.0000 0.28057  0.40474  0.85166  Biso   1.000  O
  O13      1.0000 0.05990  0.68686  0.59961  Biso   1.000  O
  O14      1.0000 0.44010  0.18686  0.90039  Biso   1.000  O
  O15      1.0000 0.94010  0.31314  0.40039  Biso   1.000  O
  O16      1.0000 0.55990  0.81314  0.09961  Biso   1.000  O
  N1       1.0000 0.55057  0.68333  0.37545  Biso   1.000  N
  N2       1.0000 0.94943  0.18333  0.12455  Biso   1.000  N
  N3       1.0000 0.44943  0.31667  0.62455  Biso   1.000  N
  N4       1.0000 0.05057  0.81667  0.87545  Biso   1.000  N
  N5       1.0000 0.37590  0.66292  0.55363  Biso   1.000  N
  N6       1.0000 0.12410  0.16292  0.94637  Biso   1.000  N
  N7       1.0000 0.62410  0.33708  0.44637  Biso   1.000  N
  N8       1.0000 0.87590  0.83708  0.05363  Biso   1.000  N
  C1       1.0000 0.75006  0.99809  0.28872  Biso   1.000  C
  C2       1.0000 0.74994  0.49809  0.21128  Biso   1.000  C
  C3       1.0000 0.24994  0.00191  0.71128  Biso   1.000  C
  C4       1.0000 0.25006  0.50191  0.78872  Biso   1.000  C
  C5       1.0000 0.98770  0.73484  0.48872  Biso   1.000  C
  C6       1.0000 0.51230  0.23484  0.01128  Biso   1.000  C
  C7       1.0000 0.01230  0.26516  0.51128  Biso   1.000  C
  C8       1.0000 0.48770  0.76516  0.98872  Biso   1.000  C
  C9       1.0000 0.58500  0.73576  0.49700  Biso   1.000  C
  C10      1.0000 0.91500  0.23576  0.00300  Biso   1.000  C
  C11      1.0000 0.41500  0.26424  0.50300  Biso   1.000  C
  C12      1.0000 0.08500  0.76424  0.99700  Biso   1.000  C
  C13      1.0000 0.49720  0.72600  0.58470  Biso   1.000  C
  C14      1.0000 0.00280  0.22600  0.91530  Biso   1.000  C
  C15      1.0000 0.50280  0.27400  0.41530  Biso   1.000  C
  C16      1.0000 0.99720  0.77400  0.08470  Biso   1.000  C
  C17      1.0000 0.20920  0.53257  0.38800  Biso   1.000  C
  C18      1.0000 0.29080  0.03257  0.11200  Biso   1.000  C
  C19      1.0000 0.79080  0.46743  0.61200  Biso   1.000  C
  C20      1.0000 0.70920  0.96743  0.88800  Biso   1.000  C
  C21      1.0000 0.17030  0.47390  0.26370  Biso   1.000  C
  C22      1.0000 0.32970  0.97390  0.23630  Biso   1.000  C
  C23      1.0000 0.82970  0.52610  0.73630  Biso   1.000  C
  C24      1.0000 0.67030  0.02610  0.76370  Biso   1.000  C
  C25      1.0000 0.25660  0.48480  0.17460  Biso   1.000  C
  C26      1.0000 0.24340  0.98480  0.32540  Biso   1.000  C
  C27      1.0000 0.74340  0.51520  0.82540  Biso   1.000  C
  C28      1.0000 0.75660  0.01520  0.67460  Biso   1.000  C
  C29      1.0000 0.38070  0.55395  0.21090  Biso   1.000  C
  C30      1.0000 0.11930  0.05395  0.28910  Biso   1.000  C
  C31      1.0000 0.61930  0.44605  0.78910  Biso   1.000  C
  C32      1.0000 0.88070  0.94605  0.71090  Biso   1.000  C
  C33      1.0000 0.42450  0.61503  0.33862  Biso   1.000  C
  C34      1.0000 0.07550  0.11503  0.16138  Biso   1.000  C
  C35      1.0000 0.57550  0.38497  0.66138  Biso   1.000  C
  C36      1.0000 0.92450  0.88497  0.83862  Biso   1.000  C
  C37      1.0000 0.33730  0.60485  0.42837  Biso   1.000  C
  C38      1.0000 0.16270  0.10485  0.07163  Biso   1.000  C
  C39      1.0000 0.66270  0.39515  0.57163  Biso   1.000  C
  C40      1.0000 0.83730  0.89515  0.92837  Biso   1.000  C
  H1       1.0000 0.72280  0.99990  0.19270  Biso   1.000  H
  H2       1.0000 0.77720  0.49990  0.30730  Biso   1.000  H
  H3       1.0000 0.27720  0.00010  0.80730  Biso   1.000  H
  H4       1.0000 0.22280  0.50010  0.69270  Biso   1.000  H
  H5       1.0000 0.00950  0.81340  0.47250  Biso   1.000  H
  H6       1.0000 0.49050  0.31340  0.02750  Biso   1.000  H
  H7       1.0000 0.99050  0.18660  0.52750  Biso   1.000  H
  H8       1.0000 0.50950  0.68660  0.97250  Biso   1.000  H
  H9       1.0000 0.67060  0.78110  0.52620  Biso   1.000  H
  H10      1.0000 0.82940  0.28110  0.97380  Biso   1.000  H
  H11      1.0000 0.32940  0.21890  0.47380  Biso   1.000  H
  H12      1.0000 0.17060  0.71890  0.02620  Biso   1.000  H
  H13      1.0000 0.52680  0.76630  0.66870  Biso   1.000  H
  H14      1.0000 0.97320  0.26630  0.83130  Biso   1.000  H
  H15      1.0000 0.47320  0.23370  0.33130  Biso   1.000  H
  H16      1.0000 0.02680  0.73370  0.16870  Biso   1.000  H
  H17      1.0000 0.15140  0.52490  0.44590  Biso   1.000  H
  H18      1.0000 0.34860  0.02490  0.05410  Biso   1.000  H
  H19      1.0000 0.84860  0.47510  0.55410  Biso   1.000  H
  H20      1.0000 0.65140  0.97510  0.94590  Biso   1.000  H
  H21      1.0000 0.08630  0.42650  0.23790  Biso   1.000  H
  H22      1.0000 0.41370  0.92650  0.26210  Biso   1.000  H
  H23      1.0000 0.91370  0.57350  0.76210  Biso   1.000  H
  H24      1.0000 0.58630  0.07350  0.73790  Biso   1.000  H
  H25      1.0000 0.22870  0.44470  0.09040  Biso   1.000  H
  H26      1.0000 0.27130  0.94470  0.40960  Biso   1.000  H
  H27      1.0000 0.77130  0.55530  0.90960  Biso   1.000  H
  H28      1.0000 0.72870  0.05530  0.59040  Biso   1.000  H
  H29      1.0000 0.43650  0.56080  0.15120  Biso   1.000  H
  H30      1.0000 0.06350  0.06080  0.34880  Biso   1.000  H
  H31      1.0000 0.56350  0.43920  0.84880  Biso   1.000  H
  H32      1.0000 0.93650  0.93920  0.65120  Biso   1.000  H
