data_image0
_cell_length_a       10.2057
_cell_length_b       12.8715
_cell_length_c       16.634
_cell_angle_alpha    72.597
_cell_angle_beta     85.361
_cell_angle_gamma    81.907

_symmetry_space_group_name_H-M    "P 1"
_symmetry_int_tables_number       1

loop_
  _symmetry_equiv_pos_as_xyz
  'x, y, z'

loop_
  _atom_site_label
  _atom_site_occupancy
  _atom_site_fract_x
  _atom_site_fract_y
  _atom_site_fract_z
  _atom_site_thermal_displace_type
  _atom_site_B_iso_or_equiv
  _atom_site_type_symbol
  Cu1      1.0000 0.30827  0.69287  0.46814  Biso   1.000  Cu
  Cu2      1.0000 0.69173  0.30713  0.53186  Biso   1.000  Cu
  Cu3      1.0000 0.23206  0.31394  0.82611  Biso   1.000  Cu
  Cu4      1.0000 0.76794  0.68606  0.17389  Biso   1.000  Cu
  O1       1.0000 0.49850  0.63400  0.47590  Biso   1.000  O
  O2       1.0000 0.50150  0.36600  0.52410  Biso   1.000  O
  O3       1.0000 0.40360  0.37400  0.80820  Biso   1.000  O
  O4       1.0000 0.59640  0.62600  0.19180  Biso   1.000  O
  O5       1.0000 0.29420  0.20470  0.76900  Biso   1.000  O
  O6       1.0000 0.70580  0.79530  0.23100  Biso   1.000  O
  O7       1.0000 0.30030  0.32860  0.64260  Biso   1.000  O
  O8       1.0000 0.69970  0.67140  0.35740  Biso   1.000  O
  O9       1.0000 0.33820  0.80070  0.36010  Biso   1.000  O
  O10      1.0000 0.66180  0.19930  0.63990  Biso   1.000  O
  O11      1.0000 0.38180  0.67870  0.28860  Biso   1.000  O
  O12      1.0000 0.61820  0.32130  0.71140  Biso   1.000  O
  N1       1.0000 0.26900  0.80870  0.54650  Biso   1.000  N
  N2       1.0000 0.73100  0.19130  0.45350  Biso   1.000  N
  N3       1.0000 0.26240  0.58070  0.57730  Biso   1.000  N
  N4       1.0000 0.73760  0.41930  0.42270  Biso   1.000  N
  H1       1.0000 0.31270  0.51380  0.57950  Biso   1.000  H
  H2       1.0000 0.68730  0.48620  0.42050  Biso   1.000  H
  N5       1.0000 0.10920  0.72490  0.45320  Biso   1.000  N
  N6       1.0000 0.89080  0.27510  0.54680  Biso   1.000  N
  H3       1.0000 0.09210  0.74750  0.39610  Biso   1.000  H
  H4       1.0000 0.90790  0.25250  0.60390  Biso   1.000  H
  N7       1.0000 0.21950  0.19560  0.95600  Biso   1.000  N
  N8       1.0000 0.78050  0.80440  0.04400  Biso   1.000  N
  N9       1.0000 0.15060  0.42660  0.88430  Biso   1.000  N
  N10      1.0000 0.84940  0.57340  0.11570  Biso   1.000  N
  H5       1.0000 0.18400  0.49290  0.85910  Biso   1.000  H
  H6       1.0000 0.81600  0.50710  0.14090  Biso   1.000  H
  N11      1.0000 0.04350  0.28250  0.82100  Biso   1.000  N
  N12      1.0000 0.95650  0.71750  0.17900  Biso   1.000  N
  H7       1.0000 0.03690  0.26160  0.77270  Biso   1.000  H
  H8       1.0000 0.96310  0.73840  0.22730  Biso   1.000  H
  C1       1.0000 0.38260  0.86990  0.54000  Biso   1.000  C
  C2       1.0000 0.61740  0.13010  0.46000  Biso   1.000  C
  H9       1.0000 0.40830  0.89900  0.47950  Biso   1.000  H
  H10      1.0000 0.59170  0.10100  0.52050  Biso   1.000  H
  H11      1.0000 0.45800  0.81760  0.56730  Biso   1.000  H
  H12      1.0000 0.54200  0.18240  0.43270  Biso   1.000  H
  C3       1.0000 0.24120  0.73980  0.63340  Biso   1.000  C
  C4       1.0000 0.75880  0.26020  0.36660  Biso   1.000  C
  H13      1.0000 0.14430  0.74280  0.64470  Biso   1.000  H
  H14      1.0000 0.85570  0.25720  0.35530  Biso   1.000  H
  H15      1.0000 0.27850  0.76900  0.67410  Biso   1.000  H
  H16      1.0000 0.72150  0.23100  0.32590  Biso   1.000  H
  C5       1.0000 0.30120  0.62100  0.64550  Biso   1.000  C
  C6       1.0000 0.69880  0.37900  0.35450  Biso   1.000  C
  H17      1.0000 0.39890  0.61580  0.64530  Biso   1.000  H
  H18      1.0000 0.60110  0.38420  0.35470  Biso   1.000  H
  H19      1.0000 0.27010  0.57460  0.70080  Biso   1.000  H
  H20      1.0000 0.72990  0.42540  0.29920  Biso   1.000  H
  C7       1.0000 0.11840  0.56720  0.58010  Biso   1.000  C
  C8       1.0000 0.88160  0.43280  0.41990  Biso   1.000  C
  H21      1.0000 0.06940  0.60330  0.62040  Biso   1.000  H
  H22      1.0000 0.93060  0.39670  0.37960  Biso   1.000  H
  H23      1.0000 0.10780  0.48810  0.60050  Biso   1.000  H
  H24      1.0000 0.89220  0.51190  0.39950  Biso   1.000  H
  C9       1.0000 0.06100  0.61660  0.49410  Biso   1.000  C
  C10      1.0000 0.93900  0.38340  0.50590  Biso   1.000  C
  H25      1.0000 0.08820  0.56680  0.45880  Biso   1.000  H
  H26      1.0000 0.91180  0.43320  0.54120  Biso   1.000  H
  H27      1.0000 0.96300  0.62610  0.49980  Biso   1.000  H
  H28      1.0000 0.03700  0.37390  0.50020  Biso   1.000  H
  C11      1.0000 0.04990  0.81220  0.49280  Biso   1.000  C
  C12      1.0000 0.95010  0.18780  0.50720  Biso   1.000  C
  H29      1.0000 0.00730  0.77740  0.54810  Biso   1.000  H
  H30      1.0000 0.99270  0.22260  0.45190  Biso   1.000  H
  H31      1.0000 0.98040  0.86120  0.45650  Biso   1.000  H
  H32      1.0000 0.01960  0.13880  0.54350  Biso   1.000  H
  C13      1.0000 0.15320  0.88060  0.50540  Biso   1.000  C
  C14      1.0000 0.84680  0.11940  0.49460  Biso   1.000  C
  H33      1.0000 0.18130  0.92870  0.45000  Biso   1.000  H
  H34      1.0000 0.81870  0.07130  0.55000  Biso   1.000  H
  H35      1.0000 0.11360  0.92770  0.54060  Biso   1.000  H
  H36      1.0000 0.88640  0.07230  0.45940  Biso   1.000  H
  C15      1.0000 0.34800  0.13010  0.97890  Biso   1.000  C
  C16      1.0000 0.65200  0.86990  0.02110  Biso   1.000  C
  H37      1.0000 0.41150  0.17980  0.98270  Biso   1.000  H
  H38      1.0000 0.58850  0.82020  0.01730  Biso   1.000  H
  H39      1.0000 0.38110  0.09790  0.93290  Biso   1.000  H
  H40      1.0000 0.61890  0.90210  0.06710  Biso   1.000  H
  C17      1.0000 0.16510  0.26160  0.01050  Biso   1.000  C
  C18      1.0000 0.83490  0.73840  0.98950  Biso   1.000  C
  H41      1.0000 0.20540  0.23090  0.06610  Biso   1.000  H
  H42      1.0000 0.79460  0.76910  0.93390  Biso   1.000  H
  H43      1.0000 0.06850  0.25820  0.01910  Biso   1.000  H
  H44      1.0000 0.93150  0.74180  0.98090  Biso   1.000  H
  C19      1.0000 0.19060  0.38220  0.97320  Biso   1.000  C
  C20      1.0000 0.80940  0.61780  0.02680  Biso   1.000  C
  H45      1.0000 0.13990  0.42670  0.00730  Biso   1.000  H
  H46      1.0000 0.86010  0.57330  0.99270  Biso   1.000  H
  H47      1.0000 0.28590  0.38760  0.97590  Biso   1.000  H
  H48      1.0000 0.71410  0.61240  0.02410  Biso   1.000  H
  C21      1.0000 0.00230  0.44160  0.87640  Biso   1.000  C
  C22      1.0000 0.99770  0.55840  0.12360  Biso   1.000  C
  H49      1.0000 0.97010  0.52100  0.85950  Biso   1.000  H
  H50      1.0000 0.02990  0.47900  0.14050  Biso   1.000  H
  H51      1.0000 0.96030  0.40790  0.93210  Biso   1.000  H
  H52      1.0000 0.03970  0.59210  0.06790  Biso   1.000  H
  C23      1.0000 0.96000  0.39100  0.81240  Biso   1.000  C
  C24      1.0000 0.04000  0.60900  0.18760  Biso   1.000  C
  H53      1.0000 0.86530  0.38010  0.82270  Biso   1.000  H
  H54      1.0000 0.13470  0.61990  0.17730  Biso   1.000  H
  H55      1.0000 0.97160  0.44050  0.75470  Biso   1.000  H
  H56      1.0000 0.02840  0.55950  0.24530  Biso   1.000  H
  C25      1.0000 0.00600  0.19350  0.89590  Biso   1.000  C
  C26      1.0000 0.99400  0.80650  0.10410  Biso   1.000  C
  H57      1.0000 0.95460  0.14530  0.87780  Biso   1.000  H
  H58      1.0000 0.04540  0.85470  0.12220  Biso   1.000  H
  H59      1.0000 0.94840  0.22620  0.93510  Biso   1.000  H
  H60      1.0000 0.05160  0.77380  0.06490  Biso   1.000  H
  C27      1.0000 0.12540  0.12540  0.94170  Biso   1.000  C
  C28      1.0000 0.87460  0.87460  0.05830  Biso   1.000  C
  H61      1.0000 0.09600  0.07710  0.99660  Biso   1.000  H
  H62      1.0000 0.90400  0.92290  0.00340  Biso   1.000  H
  H63      1.0000 0.17110  0.07820  0.90810  Biso   1.000  H
  H64      1.0000 0.82890  0.92180  0.09190  Biso   1.000  H
  C29      1.0000 0.36170  0.96530  0.57860  Biso   1.000  C
  C30      1.0000 0.63830  0.03470  0.42140  Biso   1.000  C
  C31      1.0000 0.38350  0.94550  0.66360  Biso   1.000  C
  C32      1.0000 0.61650  0.05450  0.33640  Biso   1.000  C
  H65      1.0000 0.41210  0.87320  0.69720  Biso   1.000  H
  H66      1.0000 0.58790  0.12680  0.30280  Biso   1.000  H
  C33      1.0000 0.36340  0.03150  0.69940  Biso   1.000  C
  C34      1.0000 0.63660  0.96850  0.30060  Biso   1.000  C
  H67      1.0000 0.37830  0.01800  0.75750  Biso   1.000  H
  H68      1.0000 0.62170  0.98200  0.24250  Biso   1.000  H
  C35      1.0000 0.32160  0.13730  0.65020  Biso   1.000  C
  C36      1.0000 0.67840  0.86270  0.34980  Biso   1.000  C
  C37      1.0000 0.29980  0.15710  0.56520  Biso   1.000  C
  C38      1.0000 0.70020  0.84290  0.43480  Biso   1.000  C
  H69      1.0000 0.27120  0.22940  0.53160  Biso   1.000  H
  H70      1.0000 0.72880  0.77060  0.46840  Biso   1.000  H
  C39      1.0000 0.31980  0.07110  0.52940  Biso   1.000  C
  C40      1.0000 0.68020  0.92890  0.47060  Biso   1.000  C
  H71      1.0000 0.30490  0.08460  0.47140  Biso   1.000  H
  H72      1.0000 0.69510  0.91540  0.52860  Biso   1.000  H
  C41      1.0000 0.30420  0.23200  0.68830  Biso   1.000  C
  C42      1.0000 0.69580  0.76800  0.31170  Biso   1.000  C
  C43      1.0000 0.34660  0.03740  0.06180  Biso   1.000  C
  C44      1.0000 0.65340  0.96260  0.93820  Biso   1.000  C
  C45      1.0000 0.33400  0.93170  0.06090  Biso   1.000  C
  C46      1.0000 0.66600  0.06830  0.93910  Biso   1.000  C
  H73      1.0000 0.32410  0.91750  0.00900  Biso   1.000  H
  H74      1.0000 0.67590  0.08250  0.99100  Biso   1.000  H
  C47      1.0000 0.33590  0.84680  0.13580  Biso   1.000  C
  C48      1.0000 0.66410  0.15320  0.86420  Biso   1.000  C
  H75      1.0000 0.32730  0.77450  0.13510  Biso   1.000  H
  H76      1.0000 0.67270  0.22550  0.86490  Biso   1.000  H
  C49      1.0000 0.35040  0.86760  0.21170  Biso   1.000  C
  C50      1.0000 0.64960  0.13240  0.78830  Biso   1.000  C
  C51      1.0000 0.36300  0.97330  0.21270  Biso   1.000  C
  C52      1.0000 0.63700  0.02670  0.78730  Biso   1.000  C
  H77      1.0000 0.37290  0.98750  0.26460  Biso   1.000  H
  H78      1.0000 0.62710  0.01250  0.73540  Biso   1.000  H
  C53      1.0000 0.36110  0.05820  0.13780  Biso   1.000  C
  C54      1.0000 0.63890  0.94180  0.86220  Biso   1.000  C
  H79      1.0000 0.36970  0.13050  0.13840  Biso   1.000  H
  H80      1.0000 0.63030  0.86950  0.86160  Biso   1.000  H
  C55      1.0000 0.35830  0.77470  0.29180  Biso   1.000  C
  C56      1.0000 0.64170  0.22530  0.70820  Biso   1.000  C
  P1       1.0000 0.24020  0.29790  0.28035  Biso   1.000  P
  P2       1.0000 0.75980  0.70210  0.71965  Biso   1.000  P
  F1       1.0000 0.08260  0.31870  0.27300  Biso   1.000  F
  F2       1.0000 0.91740  0.68130  0.72700  Biso   1.000  F
  F3       1.0000 0.38890  0.28380  0.29620  Biso   1.000  F
  F4       1.0000 0.61110  0.71620  0.70380  Biso   1.000  F
  F5       1.0000 0.24600  0.42340  0.25540  Biso   1.000  F
  F6       1.0000 0.75400  0.57660  0.74460  Biso   1.000  F
  F7       1.0000 0.24900  0.17260  0.30470  Biso   1.000  F
  F8       1.0000 0.75100  0.82740  0.69530  Biso   1.000  F
  F9       1.0000 0.25220  0.30860  0.18590  Biso   1.000  F
  F10      1.0000 0.74780  0.69140  0.81410  Biso   1.000  F
  F11      1.0000 0.21660  0.29620  0.37650  Biso   1.000  F
  F12      1.0000 0.78340  0.70380  0.62350  Biso   1.000  F
  P3       1.0000 0.25750  0.71930  0.89850  Biso   1.000  P
  P4       1.0000 0.74250  0.28070  0.10150  Biso   1.000  P
  F13      1.0000 0.31060  0.64930  0.83650  Biso   1.000  F
  F14      1.0000 0.68940  0.35070  0.16350  Biso   1.000  F
  F15      1.0000 0.18700  0.80030  0.94890  Biso   1.000  F
  F16      1.0000 0.81300  0.19970  0.05110  Biso   1.000  F
  F17      1.0000 0.11660  0.67470  0.90380  Biso   1.000  F
  F18      1.0000 0.88340  0.32530  0.09620  Biso   1.000  F
  F19      1.0000 0.38490  0.76700  0.89160  Biso   1.000  F
  F20      1.0000 0.61510  0.23300  0.10840  Biso   1.000  F
  F21      1.0000 0.21860  0.81550  0.81570  Biso   1.000  F
  F22      1.0000 0.78140  0.18450  0.18430  Biso   1.000  F
  F23      1.0000 0.27400  0.62060  0.97890  Biso   1.000  F
  F24      1.0000 0.72600  0.37940  0.02110  Biso   1.000  F
  O13      1.0000 0.52430  0.46820  0.89890  Biso   1.000  O
  O14      1.0000 0.47570  0.53180  0.10110  Biso   1.000  O
  O15      1.0000 0.99740  0.85650  0.29010  Biso   1.000  O
  O16      1.0000 0.00260  0.14350  0.70990  Biso   1.000  O
  O17      1.0000 0.65870  0.51520  0.59790  Biso   1.000  O
  O18      1.0000 0.34130  0.48480  0.40210  Biso   1.000  O
