data_image0
_cell_length_a       6.9091
_cell_length_b       8.6855
_cell_length_c       34.899
_cell_angle_alpha    90
_cell_angle_beta     92.974
_cell_angle_gamma    90

_symmetry_space_group_name_H-M    "P 1"
_symmetry_int_tables_number       1

loop_
  _symmetry_equiv_pos_as_xyz
  'x, y, z'

loop_
  _atom_site_label
  _atom_site_occupancy
  _atom_site_fract_x
  _atom_site_fract_y
  _atom_site_fract_z
  _atom_site_thermal_displace_type
  _atom_site_B_iso_or_equiv
  _atom_site_type_symbol
  Cu1      1.0000 0.95692  0.87437  0.14783  Biso   1.000  Cu
  Cu2      1.0000 0.04308  0.37437  0.35217  Biso   1.000  Cu
  Cu3      1.0000 0.04308  0.12563  0.85217  Biso   1.000  Cu
  Cu4      1.0000 0.95692  0.62563  0.64783  Biso   1.000  Cu
  S1       1.0000 0.98543  0.81422  0.25851  Biso   1.000  S
  S2       1.0000 0.01457  0.31422  0.24149  Biso   1.000  S
  S3       1.0000 0.01457  0.18578  0.74149  Biso   1.000  S
  S4       1.0000 0.98543  0.68578  0.75851  Biso   1.000  S
  S5       1.0000 0.76836  0.34348  0.01097  Biso   1.000  S
  S6       1.0000 0.23164  0.84348  0.48903  Biso   1.000  S
  S7       1.0000 0.23164  0.65652  0.98903  Biso   1.000  S
  S8       1.0000 0.76836  0.15652  0.51097  Biso   1.000  S
  O1       1.0000 0.81470  0.77370  0.18764  Biso   1.000  O
  O2       1.0000 0.18530  0.27370  0.31236  Biso   1.000  O
  O3       1.0000 0.18530  0.22630  0.81236  Biso   1.000  O
  O4       1.0000 0.81470  0.72630  0.68764  Biso   1.000  O
  O5       1.0000 0.04960  0.57280  0.32722  Biso   1.000  O
  O6       1.0000 0.95040  0.07280  0.17278  Biso   1.000  O
  O7       1.0000 0.95040  0.42720  0.67278  Biso   1.000  O
  O8       1.0000 0.04960  0.92720  0.82722  Biso   1.000  O
  O9       1.0000 0.29280  0.61470  0.36954  Biso   1.000  O
  O10      1.0000 0.70720  0.11470  0.13046  Biso   1.000  O
  O11      1.0000 0.70720  0.38530  0.63046  Biso   1.000  O
  O12      1.0000 0.29280  0.88530  0.86954  Biso   1.000  O
  O13      1.0000 0.75690  0.17640  0.94724  Biso   1.000  O
  O14      1.0000 0.24310  0.67640  0.55276  Biso   1.000  O
  O15      1.0000 0.24310  0.82360  0.05276  Biso   1.000  O
  O16      1.0000 0.75690  0.32360  0.44724  Biso   1.000  O
  O17      1.0000 0.97760  0.68440  0.12055  Biso   1.000  O
  O18      1.0000 0.02240  0.18440  0.37945  Biso   1.000  O
  O19      1.0000 0.02240  0.31560  0.87945  Biso   1.000  O
  O20      1.0000 0.97760  0.81560  0.62055  Biso   1.000  O
  O21      1.0000 0.66080  0.66470  0.10854  Biso   1.000  O
  O22      1.0000 0.33920  0.16470  0.39146  Biso   1.000  O
  O23      1.0000 0.33920  0.33530  0.89146  Biso   1.000  O
  O24      1.0000 0.66080  0.83530  0.60854  Biso   1.000  O
  O25      1.0000 0.15830  0.95110  0.11680  Biso   1.000  O
  O26      1.0000 0.84170  0.45110  0.38320  Biso   1.000  O
  O27      1.0000 0.84170  0.04890  0.88320  Biso   1.000  O
  O28      1.0000 0.15830  0.54890  0.61680  Biso   1.000  O
  O29      1.0000 0.67170  0.03480  0.36558  Biso   1.000  O
  O30      1.0000 0.32830  0.53480  0.13442  Biso   1.000  O
  O31      1.0000 0.32830  0.96520  0.63442  Biso   1.000  O
  O32      1.0000 0.67170  0.46520  0.86558  Biso   1.000  O
  O33      1.0000 0.66730  0.72480  0.38212  Biso   1.000  O
  O34      1.0000 0.33270  0.22480  0.11788  Biso   1.000  O
  O35      1.0000 0.33270  0.27520  0.61788  Biso   1.000  O
  O36      1.0000 0.66730  0.77520  0.88212  Biso   1.000  O
  N1       1.0000 0.70130  0.86320  0.20840  Biso   1.000  N
  N2       1.0000 0.29870  0.36320  0.29160  Biso   1.000  N
  N3       1.0000 0.29870  0.13680  0.79160  Biso   1.000  N
  N4       1.0000 0.70130  0.63680  0.70840  Biso   1.000  N
  N5       1.0000 0.58470  0.16710  0.96187  Biso   1.000  N
  N6       1.0000 0.41530  0.66710  0.53813  Biso   1.000  N
  N7       1.0000 0.41530  0.83290  0.03813  Biso   1.000  N
  N8       1.0000 0.58470  0.33290  0.46187  Biso   1.000  N
  C1       1.0000 0.76300  0.89590  0.24509  Biso   1.000  C
  C2       1.0000 0.23700  0.39590  0.25491  Biso   1.000  C
  C3       1.0000 0.23700  0.10410  0.75491  Biso   1.000  C
  C4       1.0000 0.76300  0.60410  0.74509  Biso   1.000  C
  C5       1.0000 0.64130  0.98230  0.26747  Biso   1.000  C
  C6       1.0000 0.35870  0.48230  0.23253  Biso   1.000  C
  C7       1.0000 0.35870  0.01770  0.73253  Biso   1.000  C
  C8       1.0000 0.64130  0.51770  0.76747  Biso   1.000  C
  H1       1.0000 0.67950  0.00700  0.29270  Biso   1.000  H
  H2       1.0000 0.32050  0.50700  0.20730  Biso   1.000  H
  H3       1.0000 0.32050  0.99300  0.70730  Biso   1.000  H
  H4       1.0000 0.67950  0.49300  0.79270  Biso   1.000  H
  C9       1.0000 0.46450  0.03070  0.25203  Biso   1.000  C
  C10      1.0000 0.53550  0.53070  0.24797  Biso   1.000  C
  C11      1.0000 0.53550  0.96930  0.74797  Biso   1.000  C
  C12      1.0000 0.46450  0.46930  0.75203  Biso   1.000  C
  H5       1.0000 0.38230  0.08700  0.26700  Biso   1.000  H
  H6       1.0000 0.61770  0.58700  0.23300  Biso   1.000  H
  H7       1.0000 0.61770  0.91300  0.73300  Biso   1.000  H
  H8       1.0000 0.38230  0.41300  0.76700  Biso   1.000  H
  C13      1.0000 0.40810  0.99580  0.21415  Biso   1.000  C
  C14      1.0000 0.59190  0.49580  0.28585  Biso   1.000  C
  C15      1.0000 0.59190  0.00420  0.78585  Biso   1.000  C
  C16      1.0000 0.40810  0.50420  0.71415  Biso   1.000  C
  H9       1.0000 0.28980  0.03040  0.20350  Biso   1.000  H
  H10      1.0000 0.71020  0.53040  0.29650  Biso   1.000  H
  H11      1.0000 0.71020  0.96960  0.79650  Biso   1.000  H
  H12      1.0000 0.28980  0.46960  0.70350  Biso   1.000  H
  C17      1.0000 0.52770  0.91060  0.19292  Biso   1.000  C
  C18      1.0000 0.47230  0.41060  0.30708  Biso   1.000  C
  C19      1.0000 0.47230  0.08940  0.80708  Biso   1.000  C
  C20      1.0000 0.52770  0.58940  0.69292  Biso   1.000  C
  H13      1.0000 0.49050  0.88480  0.16770  Biso   1.000  H
  H14      1.0000 0.50950  0.38480  0.33230  Biso   1.000  H
  H15      1.0000 0.50950  0.11520  0.83230  Biso   1.000  H
  H16      1.0000 0.49050  0.61520  0.66770  Biso   1.000  H
  C21      1.0000 0.02020  0.88590  0.30723  Biso   1.000  C
  C22      1.0000 0.97980  0.38590  0.19277  Biso   1.000  C
  C23      1.0000 0.97980  0.11410  0.69277  Biso   1.000  C
  C24      1.0000 0.02020  0.61410  0.80723  Biso   1.000  C
  H17      1.0000 0.02990  0.99730  0.30700  Biso   1.000  H
  H18      1.0000 0.97010  0.49730  0.19300  Biso   1.000  H
  H19      1.0000 0.97010  0.00270  0.69300  Biso   1.000  H
  H20      1.0000 0.02990  0.50270  0.80700  Biso   1.000  H
  H21      1.0000 0.91020  0.85770  0.32190  Biso   1.000  H
  H22      1.0000 0.08980  0.35770  0.17810  Biso   1.000  H
  H23      1.0000 0.08980  0.14230  0.67810  Biso   1.000  H
  H24      1.0000 0.91020  0.64230  0.82190  Biso   1.000  H
  C25      1.0000 0.20590  0.81660  0.32586  Biso   1.000  C
  C26      1.0000 0.79410  0.31660  0.17414  Biso   1.000  C
  C27      1.0000 0.79410  0.18340  0.67414  Biso   1.000  C
  C28      1.0000 0.20590  0.68340  0.82586  Biso   1.000  C
  H25      1.0000 0.30280  0.81170  0.30680  Biso   1.000  H
  H26      1.0000 0.69720  0.31170  0.19320  Biso   1.000  H
  H27      1.0000 0.69720  0.18830  0.69320  Biso   1.000  H
  H28      1.0000 0.30280  0.68830  0.80680  Biso   1.000  H
  H29      1.0000 0.25460  0.88520  0.34610  Biso   1.000  H
  H30      1.0000 0.74540  0.38520  0.15390  Biso   1.000  H
  H31      1.0000 0.74540  0.11480  0.65390  Biso   1.000  H
  H32      1.0000 0.25460  0.61480  0.84610  Biso   1.000  H
  C29      1.0000 0.18210  0.65750  0.34270  Biso   1.000  C
  C30      1.0000 0.81790  0.15750  0.15730  Biso   1.000  C
  C31      1.0000 0.81790  0.34250  0.65730  Biso   1.000  C
  C32      1.0000 0.18210  0.84250  0.84270  Biso   1.000  C
  C33      1.0000 0.55950  0.24600  0.99486  Biso   1.000  C
  C34      1.0000 0.44050  0.74600  0.50514  Biso   1.000  C
  C35      1.0000 0.44050  0.75400  0.00514  Biso   1.000  C
  C36      1.0000 0.55950  0.25400  0.49486  Biso   1.000  C
  C37      1.0000 0.38160  0.23910  0.01102  Biso   1.000  C
  C38      1.0000 0.61840  0.73910  0.48898  Biso   1.000  C
  C39      1.0000 0.61840  0.76090  0.98898  Biso   1.000  C
  C40      1.0000 0.38160  0.26090  0.51102  Biso   1.000  C
  H33      1.0000 0.36180  0.29250  0.03360  Biso   1.000  H
  H34      1.0000 0.63820  0.79250  0.46640  Biso   1.000  H
  H35      1.0000 0.63820  0.70750  0.96640  Biso   1.000  H
  H36      1.0000 0.36180  0.20750  0.53360  Biso   1.000  H
  C41      1.0000 0.23310  0.15340  0.99385  Biso   1.000  C
  C42      1.0000 0.76690  0.65340  0.50615  Biso   1.000  C
  C43      1.0000 0.76690  0.84660  0.00615  Biso   1.000  C
  C44      1.0000 0.23310  0.34660  0.49385  Biso   1.000  C
  H37      1.0000 0.11310  0.14890  0.00470  Biso   1.000  H
  H38      1.0000 0.88690  0.64890  0.49530  Biso   1.000  H
  H39      1.0000 0.88690  0.85110  0.99530  Biso   1.000  H
  H40      1.0000 0.11310  0.35110  0.50470  Biso   1.000  H
  C45      1.0000 0.26400  0.07520  0.96074  Biso   1.000  C
  C46      1.0000 0.73600  0.57520  0.53926  Biso   1.000  C
  C47      1.0000 0.73600  0.92480  0.03926  Biso   1.000  C
  C48      1.0000 0.26400  0.42480  0.46074  Biso   1.000  C
  H41      1.0000 0.16530  0.01610  0.94910  Biso   1.000  H
  H42      1.0000 0.83470  0.51610  0.55090  Biso   1.000  H
  H43      1.0000 0.83470  0.98390  0.05090  Biso   1.000  H
  H44      1.0000 0.16530  0.48390  0.44910  Biso   1.000  H
  C49      1.0000 0.43970  0.08390  0.94490  Biso   1.000  C
  C50      1.0000 0.56030  0.58390  0.55510  Biso   1.000  C
  C51      1.0000 0.56030  0.91610  0.05510  Biso   1.000  C
  C52      1.0000 0.43970  0.41610  0.44490  Biso   1.000  C
  H45      1.0000 0.45970  0.03200  0.92210  Biso   1.000  H
  H46      1.0000 0.54030  0.53200  0.57790  Biso   1.000  H
  H47      1.0000 0.54030  0.96800  0.07790  Biso   1.000  H
  H48      1.0000 0.45970  0.46800  0.42210  Biso   1.000  H
  C53      1.0000 0.69510  0.42740  0.05541  Biso   1.000  C
  C54      1.0000 0.30490  0.92740  0.44459  Biso   1.000  C
  C55      1.0000 0.30490  0.57260  0.94459  Biso   1.000  C
  C56      1.0000 0.69510  0.07260  0.55541  Biso   1.000  C
  H49      1.0000 0.59200  0.50170  0.05040  Biso   1.000  H
  H50      1.0000 0.40800  0.00170  0.44960  Biso   1.000  H
  H51      1.0000 0.40800  0.49830  0.94960  Biso   1.000  H
  H52      1.0000 0.59200  0.99830  0.55040  Biso   1.000  H
  H53      1.0000 0.64890  0.34820  0.07230  Biso   1.000  H
  H54      1.0000 0.35110  0.84820  0.42770  Biso   1.000  H
  H55      1.0000 0.35110  0.65180  0.92770  Biso   1.000  H
  H56      1.0000 0.64890  0.15180  0.57230  Biso   1.000  H
  C57      1.0000 0.87270  0.50560  0.07359  Biso   1.000  C
  C58      1.0000 0.12730  0.00560  0.42641  Biso   1.000  C
  C59      1.0000 0.12730  0.49440  0.92641  Biso   1.000  C
  C60      1.0000 0.87270  0.99440  0.57359  Biso   1.000  C
  H57      1.0000 0.94340  0.55460  0.05360  Biso   1.000  H
  H58      1.0000 0.05660  0.05460  0.44640  Biso   1.000  H
  H59      1.0000 0.05660  0.44540  0.94640  Biso   1.000  H
  H60      1.0000 0.94340  0.94540  0.55360  Biso   1.000  H
  H61      1.0000 0.95660  0.42800  0.08560  Biso   1.000  H
  H62      1.0000 0.04340  0.92800  0.41440  Biso   1.000  H
  H63      1.0000 0.04340  0.57200  0.91440  Biso   1.000  H
  H64      1.0000 0.95660  0.07200  0.58560  Biso   1.000  H
  C61      1.0000 0.82650  0.62550  0.10336  Biso   1.000  C
  C62      1.0000 0.17350  0.12550  0.39664  Biso   1.000  C
  C63      1.0000 0.17350  0.37450  0.89664  Biso   1.000  C
  C64      1.0000 0.82650  0.87450  0.60336  Biso   1.000  C
  H65      1.0000 0.19200  0.04200  0.11840  Biso   1.000  H
  H66      1.0000 0.80800  0.54200  0.38160  Biso   1.000  H
  H67      1.0000 0.80800  0.95800  0.88160  Biso   1.000  H
  H68      1.0000 0.19200  0.45800  0.61840  Biso   1.000  H
  H69      1.0000 0.18400  0.91100  0.09580  Biso   1.000  H
  H70      1.0000 0.81600  0.41100  0.40420  Biso   1.000  H
  H71      1.0000 0.81600  0.08900  0.90420  Biso   1.000  H
  H72      1.0000 0.18400  0.58900  0.59580  Biso   1.000  H
  H73      1.0000 0.55600  0.69600  0.37840  Biso   1.000  H
  H74      1.0000 0.44400  0.19600  0.12160  Biso   1.000  H
  H75      1.0000 0.44400  0.30400  0.62160  Biso   1.000  H
  H76      1.0000 0.55600  0.80400  0.87840  Biso   1.000  H
  H77      1.0000 0.69100  0.81400  0.37990  Biso   1.000  H
  H78      1.0000 0.30900  0.31400  0.12010  Biso   1.000  H
  H79      1.0000 0.30900  0.18600  0.62010  Biso   1.000  H
  H80      1.0000 0.69100  0.68600  0.87990  Biso   1.000  H
  H81      1.0000 0.56700  0.07100  0.37270  Biso   1.000  H
  H82      1.0000 0.43300  0.57100  0.12730  Biso   1.000  H
  H83      1.0000 0.43300  0.92900  0.62730  Biso   1.000  H
  H84      1.0000 0.56700  0.42900  0.87270  Biso   1.000  H
  H85      1.0000 0.76700  0.07900  0.37720  Biso   1.000  H
  H86      1.0000 0.23300  0.57900  0.12280  Biso   1.000  H
  H87      1.0000 0.23300  0.92100  0.62280  Biso   1.000  H
  H88      1.0000 0.76700  0.42100  0.87720  Biso   1.000  H
