data_image0
_cell_length_a       8.4254
_cell_length_b       18.0692
_cell_length_c       7.4187
_cell_angle_alpha    90
_cell_angle_beta     114.412
_cell_angle_gamma    90

_symmetry_space_group_name_H-M    "P 1"
_symmetry_int_tables_number       1

loop_
  _symmetry_equiv_pos_as_xyz
  'x, y, z'

loop_
  _atom_site_label
  _atom_site_occupancy
  _atom_site_fract_x
  _atom_site_fract_y
  _atom_site_fract_z
  _atom_site_thermal_displace_type
  _atom_site_B_iso_or_equiv
  _atom_site_type_symbol
  Cu1      1.0000 0.39418  0.38136  0.39933  Biso   1.000  Cu
  Cu2      1.0000 0.39418  0.61864  0.89933  Biso   1.000  Cu
  Cu3      1.0000 0.89418  0.88136  0.39933  Biso   1.000  Cu
  Cu4      1.0000 0.89418  0.11864  0.89933  Biso   1.000  Cu
  N1       1.0000 0.18730  0.31814  0.43060  Biso   1.000  N
  N2       1.0000 0.18730  0.68186  0.93060  Biso   1.000  N
  N3       1.0000 0.68730  0.81814  0.43060  Biso   1.000  N
  N4       1.0000 0.68730  0.18186  0.93060  Biso   1.000  N
  N5       1.0000 0.93680  0.21790  0.42550  Biso   1.000  N
  N6       1.0000 0.93680  0.78210  0.92550  Biso   1.000  N
  N7       1.0000 0.43680  0.71790  0.42550  Biso   1.000  N
  N8       1.0000 0.43680  0.28210  0.92550  Biso   1.000  N
  O1       1.0000 0.41240  0.15523  0.41450  Biso   1.000  O
  O2       1.0000 0.41240  0.84477  0.91450  Biso   1.000  O
  O3       1.0000 0.91240  0.65523  0.41450  Biso   1.000  O
  O4       1.0000 0.91240  0.34477  0.91450  Biso   1.000  O
  O5       1.0000 0.48160  0.27394  0.41010  Biso   1.000  O
  O6       1.0000 0.48160  0.72606  0.91010  Biso   1.000  O
  O7       1.0000 0.98160  0.77394  0.41010  Biso   1.000  O
  O8       1.0000 0.98160  0.22606  0.91010  Biso   1.000  O
  O9       1.0000 0.03820  0.09067  0.19740  Biso   1.000  O
  O10      1.0000 0.03820  0.90933  0.69740  Biso   1.000  O
  O11      1.0000 0.53820  0.59067  0.19740  Biso   1.000  O
  O12      1.0000 0.53820  0.40933  0.69740  Biso   1.000  O
  O13      1.0000 0.13900  0.07149  0.51760  Biso   1.000  O
  O14      1.0000 0.13900  0.92851  0.01760  Biso   1.000  O
  O15      1.0000 0.63900  0.57149  0.51760  Biso   1.000  O
  O16      1.0000 0.63900  0.42851  0.01760  Biso   1.000  O
  O17      1.0000 0.27150  0.48202  0.38410  Biso   1.000  O
  O18      1.0000 0.27150  0.51798  0.88410  Biso   1.000  O
  O19      1.0000 0.77150  0.98202  0.38410  Biso   1.000  O
  O20      1.0000 0.77150  0.01798  0.88410  Biso   1.000  O
  H1       1.0000 0.31680  0.50800  0.48720  Biso   1.000  H
  H2       1.0000 0.31680  0.49200  0.98720  Biso   1.000  H
  H3       1.0000 0.81680  0.00800  0.48720  Biso   1.000  H
  H4       1.0000 0.81680  0.99200  0.98720  Biso   1.000  H
  H5       1.0000 0.16180  0.48900  0.32020  Biso   1.000  H
  H6       1.0000 0.16180  0.51100  0.82020  Biso   1.000  H
  H7       1.0000 0.66180  0.98900  0.32020  Biso   1.000  H
  H8       1.0000 0.66180  0.01100  0.82020  Biso   1.000  H
  O21      1.0000 0.60110  0.42619  0.36050  Biso   1.000  O
  O22      1.0000 0.60110  0.57381  0.86050  Biso   1.000  O
  O23      1.0000 0.10110  0.92619  0.36050  Biso   1.000  O
  O24      1.0000 0.10110  0.07381  0.86050  Biso   1.000  O
  H9       1.0000 0.61200  0.47080  0.40210  Biso   1.000  H
  H10      1.0000 0.61200  0.52920  0.90210  Biso   1.000  H
  H11      1.0000 0.11200  0.97080  0.40210  Biso   1.000  H
  H12      1.0000 0.11200  0.02920  0.90210  Biso   1.000  H
  H13      1.0000 0.60000  0.42200  0.24710  Biso   1.000  H
  H14      1.0000 0.60000  0.57800  0.74710  Biso   1.000  H
  H15      1.0000 0.10000  0.92200  0.24710  Biso   1.000  H
  H16      1.0000 0.10000  0.07800  0.74710  Biso   1.000  H
  O25      1.0000 0.25840  0.37715  0.07940  Biso   1.000  O
  O26      1.0000 0.25840  0.62285  0.57940  Biso   1.000  O
  O27      1.0000 0.75840  0.87715  0.07940  Biso   1.000  O
  O28      1.0000 0.75840  0.12285  0.57940  Biso   1.000  O
  H17      1.0000 0.31410  0.34900  0.03790  Biso   1.000  H
  H18      1.0000 0.31410  0.65100  0.53790  Biso   1.000  H
  H19      1.0000 0.81410  0.84900  0.03790  Biso   1.000  H
  H20      1.0000 0.81410  0.15100  0.53790  Biso   1.000  H
  H21      1.0000 0.15010  0.37500  0.02490  Biso   1.000  H
  H22      1.0000 0.15010  0.62500  0.52490  Biso   1.000  H
  H23      1.0000 0.65010  0.87500  0.02490  Biso   1.000  H
  H24      1.0000 0.65010  0.12500  0.52490  Biso   1.000  H
  C1       1.0000 0.38170  0.22270  0.40950  Biso   1.000  C
  C2       1.0000 0.38170  0.77730  0.90950  Biso   1.000  C
  C3       1.0000 0.88170  0.72270  0.40950  Biso   1.000  C
  C4       1.0000 0.88170  0.27730  0.90950  Biso   1.000  C
  C5       1.0000 0.20740  0.24570  0.41080  Biso   1.000  C
  C6       1.0000 0.20740  0.75430  0.91080  Biso   1.000  C
  C7       1.0000 0.70740  0.74570  0.41080  Biso   1.000  C
  C8       1.0000 0.70740  0.25430  0.91080  Biso   1.000  C
  C9       1.0000 0.08040  0.19530  0.40430  Biso   1.000  C
  C10      1.0000 0.08040  0.80470  0.90430  Biso   1.000  C
  C11      1.0000 0.58040  0.69530  0.40430  Biso   1.000  C
  C12      1.0000 0.58040  0.30470  0.90430  Biso   1.000  C
  C13      1.0000 0.92090  0.29030  0.44740  Biso   1.000  C
  C14      1.0000 0.92090  0.70970  0.94740  Biso   1.000  C
  C15      1.0000 0.42090  0.79030  0.44740  Biso   1.000  C
  C16      1.0000 0.42090  0.20970  0.94740  Biso   1.000  C
  H25      1.0000 0.82370  0.30730  0.46420  Biso   1.000  H
  H26      1.0000 0.82370  0.69270  0.96420  Biso   1.000  H
  H27      1.0000 0.32370  0.80730  0.46420  Biso   1.000  H
  H28      1.0000 0.32370  0.19270  0.96420  Biso   1.000  H
  C17      1.0000 0.04170  0.34080  0.44610  Biso   1.000  C
  C18      1.0000 0.04170  0.65920  0.94610  Biso   1.000  C
  C19      1.0000 0.54170  0.84080  0.44610  Biso   1.000  C
  C20      1.0000 0.54170  0.15920  0.94610  Biso   1.000  C
  H29      1.0000 0.02270  0.39110  0.45610  Biso   1.000  H
  H30      1.0000 0.02270  0.60890  0.95610  Biso   1.000  H
  H31      1.0000 0.52270  0.89110  0.45610  Biso   1.000  H
  H32      1.0000 0.52270  0.10890  0.95610  Biso   1.000  H
  C21      1.0000 0.08900  0.11310  0.36900  Biso   1.000  C
  C22      1.0000 0.08900  0.88690  0.86900  Biso   1.000  C
  C23      1.0000 0.58900  0.61310  0.36900  Biso   1.000  C
  C24      1.0000 0.58900  0.38690  0.86900  Biso   1.000  C
  O29      1.0000 0.43960  0.98170  0.72570  Biso   1.000  O
  O30      1.0000 0.43960  0.01830  0.22570  Biso   1.000  O
  O31      1.0000 0.93960  0.48170  0.72570  Biso   1.000  O
  O32      1.0000 0.93960  0.51830  0.22570  Biso   1.000  O
  H33      1.0000 0.35370  0.00990  0.66420  Biso   1.000  H
  H34      1.0000 0.35370  0.99010  0.16420  Biso   1.000  H
  H35      1.0000 0.85370  0.50990  0.66420  Biso   1.000  H
  H36      1.0000 0.85370  0.49010  0.16420  Biso   1.000  H
  H37      1.0000 0.40430  0.93990  0.74630  Biso   1.000  H
  H38      1.0000 0.40430  0.06010  0.24630  Biso   1.000  H
  H39      1.0000 0.90430  0.43990  0.74630  Biso   1.000  H
  H40      1.0000 0.90430  0.56010  0.24630  Biso   1.000  H
