data_image0
_cell_length_a       10.5682
_cell_length_b       13.51
_cell_length_c       13.9695
_cell_angle_alpha    100.964
_cell_angle_beta     98.654
_cell_angle_gamma    96.257

_symmetry_space_group_name_H-M    "P 1"
_symmetry_int_tables_number       1

loop_
  _symmetry_equiv_pos_as_xyz
  'x, y, z'

loop_
  _atom_site_label
  _atom_site_occupancy
  _atom_site_fract_x
  _atom_site_fract_y
  _atom_site_fract_z
  _atom_site_thermal_displace_type
  _atom_site_B_iso_or_equiv
  _atom_site_type_symbol
  Cu1      1.0000 0.67667  0.17423  0.67313  Biso   1.000  Cu
  Cu2      1.0000 0.32333  0.82577  0.32687  Biso   1.000  Cu
  Cu3      1.0000 0.76363  0.03530  0.51952  Biso   1.000  Cu
  Cu4      1.0000 0.23637  0.96470  0.48048  Biso   1.000  Cu
  Cu5      1.0000 0.92636  0.95351  0.38487  Biso   1.000  Cu
  Cu6      1.0000 0.07364  0.04649  0.61513  Biso   1.000  Cu
  Cu7      1.0000 0.09394  0.90180  0.23245  Biso   1.000  Cu
  Cu8      1.0000 0.90606  0.09820  0.76755  Biso   1.000  Cu
  O1       1.0000 0.65940  0.31570  0.68200  Biso   1.000  O
  O2       1.0000 0.34060  0.68430  0.31800  Biso   1.000  O
  O3       1.0000 0.67250  0.15490  0.52750  Biso   1.000  O
  O4       1.0000 0.32750  0.84510  0.47250  Biso   1.000  O
  O5       1.0000 0.83890  0.07350  0.41040  Biso   1.000  O
  O6       1.0000 0.16110  0.92650  0.58960  Biso   1.000  O
  O7       1.0000 0.96310  0.98990  0.26120  Biso   1.000  O
  O8       1.0000 0.03690  0.01010  0.73880  Biso   1.000  O
  O9       1.0000 0.14040  0.97200  0.13390  Biso   1.000  O
  O10      1.0000 0.85960  0.02800  0.86610  Biso   1.000  O
  O11      1.0000 0.40220  0.08680  0.57940  Biso   1.000  O
  O12      1.0000 0.59780  0.91320  0.42060  Biso   1.000  O
  O13      1.0000 0.28380  0.14720  0.68510  Biso   1.000  O
  O14      1.0000 0.71620  0.85280  0.31490  Biso   1.000  O
  O15      1.0000 0.49120  0.15930  0.73000  Biso   1.000  O
  O16      1.0000 0.50880  0.84070  0.27000  Biso   1.000  O
  O17      1.0000 0.88740  0.93970  0.51450  Biso   1.000  O
  O18      1.0000 0.11260  0.06030  0.48550  Biso   1.000  O
  O19      1.0000 0.96590  0.14770  0.65730  Biso   1.000  O
  O20      1.0000 0.03410  0.85230  0.34270  Biso   1.000  O
  O21      1.0000 0.71160  0.03340  0.64660  Biso   1.000  O
  O22      1.0000 0.28840  0.96660  0.35340  Biso   1.000  O
  O23      1.0000 0.80120  0.20370  0.79730  Biso   1.000  O
  O24      1.0000 0.19880  0.79630  0.20270  Biso   1.000  O
  N1       1.0000 0.39270  0.12920  0.66300  Biso   1.000  N
  N2       1.0000 0.60730  0.87080  0.33700  Biso   1.000  N
  C1       1.0000 0.85840  0.84400  0.54090  Biso   1.000  C
  C2       1.0000 0.14160  0.15600  0.45910  Biso   1.000  C
  C3       1.0000 0.99410  0.25320  0.65760  Biso   1.000  C
  C4       1.0000 0.00590  0.74680  0.34240  Biso   1.000  C
  C5       1.0000 0.61890  0.95520  0.66200  Biso   1.000  C
  C6       1.0000 0.38110  0.04480  0.33800  Biso   1.000  C
  C7       1.0000 0.75450  0.22760  0.88680  Biso   1.000  C
  C8       1.0000 0.24550  0.77240  0.11320  Biso   1.000  C
  C9       1.0000 0.66780  0.36740  0.61580  Biso   1.000  C
  C10      1.0000 0.33220  0.63260  0.38420  Biso   1.000  C
  C11      1.0000 0.67340  0.47950  0.65090  Biso   1.000  C
  C12      1.0000 0.32660  0.52050  0.34910  Biso   1.000  C
  C13      1.0000 0.65060  0.54570  0.58680  Biso   1.000  C
  C14      1.0000 0.34940  0.45430  0.41320  Biso   1.000  C
  C15      1.0000 0.65730  0.64980  0.62450  Biso   1.000  C
  C16      1.0000 0.34270  0.35020  0.37550  Biso   1.000  C
  C17      1.0000 0.68610  0.68880  0.72370  Biso   1.000  C
  C18      1.0000 0.31390  0.31120  0.27630  Biso   1.000  C
  C19      1.0000 0.70650  0.62200  0.78950  Biso   1.000  C
  C20      1.0000 0.29350  0.37800  0.21050  Biso   1.000  C
  C21      1.0000 0.70000  0.51900  0.75260  Biso   1.000  C
  C22      1.0000 0.30000  0.48100  0.24740  Biso   1.000  C
  C23      1.0000 0.68230  0.22620  0.47630  Biso   1.000  C
  C24      1.0000 0.31770  0.77380  0.52370  Biso   1.000  C
  C25      1.0000 0.67660  0.32720  0.51580  Biso   1.000  C
  C26      1.0000 0.32340  0.67280  0.48420  Biso   1.000  C
  C27      1.0000 0.78860  0.12610  0.34520  Biso   1.000  C
  C28      1.0000 0.21140  0.87390  0.65480  Biso   1.000  C
  C29      1.0000 0.70330  0.19680  0.37250  Biso   1.000  C
  C30      1.0000 0.29670  0.80320  0.62750  Biso   1.000  C
  C31      1.0000 0.82450  0.11860  0.25040  Biso   1.000  C
  C32      1.0000 0.17550  0.88140  0.74960  Biso   1.000  C
  C33      1.0000 0.64480  0.24630  0.30210  Biso   1.000  C
  C34      1.0000 0.35520  0.75370  0.69790  Biso   1.000  C
  C35      1.0000 0.75960  0.16840  0.18220  Biso   1.000  C
  C36      1.0000 0.24040  0.83160  0.81780  Biso   1.000  C
  C37      1.0000 0.66790  0.22960  0.20510  Biso   1.000  C
  C38      1.0000 0.33210  0.77040  0.79490  Biso   1.000  C
  C39      1.0000 0.59840  0.28240  0.12970  Biso   1.000  C
  C40      1.0000 0.40160  0.71760  0.87030  Biso   1.000  C
  C41      1.0000 0.93270  0.06580  0.22120  Biso   1.000  C
  C42      1.0000 0.06730  0.93420  0.77880  Biso   1.000  C
  C43      1.0000 0.00410  0.10000  0.15450  Biso   1.000  C
  C44      1.0000 0.99590  0.90000  0.84550  Biso   1.000  C
  C45      1.0000 0.10260  0.05280  0.11480  Biso   1.000  C
  C46      1.0000 0.89740  0.94720  0.88520  Biso   1.000  C
  C47      1.0000 0.17890  0.09000  0.04830  Biso   1.000  C
  C48      1.0000 0.82110  0.91000  0.95170  Biso   1.000  C
  C49      1.0000 0.29380  0.05570  0.03000  Biso   1.000  C
  C50      1.0000 0.70620  0.94430  0.97000  Biso   1.000  C
  C51      1.0000 0.36230  0.09310  0.96510  Biso   1.000  C
  C52      1.0000 0.63770  0.90690  0.03490  Biso   1.000  C
  C53      1.0000 0.31720  0.16570  0.91600  Biso   1.000  C
  C54      1.0000 0.68280  0.83430  0.08400  Biso   1.000  C
  C55      1.0000 0.20270  0.20100  0.93140  Biso   1.000  C
  C56      1.0000 0.79730  0.79900  0.06860  Biso   1.000  C
  C57      1.0000 0.13330  0.16510  0.99830  Biso   1.000  C
  C58      1.0000 0.86670  0.83490  0.00170  Biso   1.000  C
  C59      1.0000 0.33600  0.11760  0.94390  Biso   1.000  C
  C60      1.0000 0.66400  0.88240  0.05610  Biso   1.000  C
  C61      1.0000 0.28840  0.19770  0.90760  Biso   1.000  C
  C62      1.0000 0.71160  0.80230  0.09240  Biso   1.000  C
  C63      1.0000 0.17760  0.23340  0.93470  Biso   1.000  C
  C64      1.0000 0.82240  0.76660  0.06530  Biso   1.000  C
  C65      1.0000 0.11520  0.18710  0.99730  Biso   1.000  C
  C66      1.0000 0.88480  0.81290  0.00270  Biso   1.000  C
  C67      1.0000 0.15930  0.11220  0.03800  Biso   1.000  C
  C68      1.0000 0.84070  0.88780  0.96200  Biso   1.000  C
  C69      1.0000 0.27170  0.07660  0.01080  Biso   1.000  C
  C70      1.0000 0.72830  0.92340  0.98920  Biso   1.000  C
  H1       1.0000 0.96340  0.26500  0.59150  Biso   1.000  H
  H2       1.0000 0.03660  0.73500  0.40850  Biso   1.000  H
  H3       1.0000 0.93360  0.80760  0.53960  Biso   1.000  H
  H4       1.0000 0.06640  0.19240  0.46040  Biso   1.000  H
  H5       1.0000 0.83710  0.85520  0.60770  Biso   1.000  H
  H6       1.0000 0.16290  0.14480  0.39230  Biso   1.000  H
  H7       1.0000 0.53980  0.94740  0.61290  Biso   1.000  H
  H8       1.0000 0.46020  0.05260  0.38710  Biso   1.000  H
  H9       1.0000 0.59870  0.97380  0.72870  Biso   1.000  H
  H10      1.0000 0.40130  0.02620  0.27130  Biso   1.000  H
  H11      1.0000 0.65460  0.89080  0.65490  Biso   1.000  H
  H12      1.0000 0.34540  0.10920  0.34510  Biso   1.000  H
  H13      1.0000 0.82680  0.24050  0.94250  Biso   1.000  H
  H14      1.0000 0.17320  0.75950  0.05750  Biso   1.000  H
  H15      1.0000 0.71180  0.28860  0.88800  Biso   1.000  H
  H16      1.0000 0.28820  0.71140  0.11200  Biso   1.000  H
  H17      1.0000 0.95060  0.29260  0.70590  Biso   1.000  H
  H18      1.0000 0.04940  0.70740  0.29410  Biso   1.000  H
  H19      1.0000 0.08770  0.27460  0.67550  Biso   1.000  H
  H20      1.0000 0.91230  0.72540  0.32450  Biso   1.000  H
  H21      1.0000 0.64150  0.69420  0.58020  Biso   1.000  H
  H22      1.0000 0.35850  0.30580  0.41980  Biso   1.000  H
  H23      1.0000 0.69230  0.76000  0.74850  Biso   1.000  H
  H24      1.0000 0.30770  0.24000  0.25150  Biso   1.000  H
  H25      1.0000 0.72480  0.64810  0.85900  Biso   1.000  H
  H26      1.0000 0.27520  0.35190  0.14100  Biso   1.000  H
  H27      1.0000 0.71370  0.47450  0.79710  Biso   1.000  H
  H28      1.0000 0.28630  0.52550  0.20290  Biso   1.000  H
  H29      1.0000 0.67880  0.37350  0.47260  Biso   1.000  H
  H30      1.0000 0.32120  0.62650  0.52740  Biso   1.000  H
  H31      1.0000 0.58740  0.29290  0.32100  Biso   1.000  H
  H32      1.0000 0.41260  0.70710  0.67900  Biso   1.000  H
  H33      1.0000 0.78010  0.15940  0.11750  Biso   1.000  H
  H34      1.0000 0.21990  0.84060  0.88250  Biso   1.000  H
  H35      1.0000 0.98440  0.16050  0.13410  Biso   1.000  H
  H36      1.0000 0.01560  0.83950  0.86590  Biso   1.000  H
  H37      1.0000 0.32570  0.00570  0.06290  Biso   1.000  H
  H38      1.0000 0.67430  0.99430  0.93710  Biso   1.000  H
  H39      1.0000 0.44110  0.06890  0.95390  Biso   1.000  H
  H40      1.0000 0.55890  0.93110  0.04610  Biso   1.000  H
  H41      1.0000 0.36520  0.19120  0.87140  Biso   1.000  H
  H42      1.0000 0.63480  0.80880  0.12860  Biso   1.000  H
  H43      1.0000 0.17130  0.24980  0.89660  Biso   1.000  H
  H44      1.0000 0.82870  0.75020  0.10340  Biso   1.000  H
  H45      1.0000 0.05570  0.19080  0.01040  Biso   1.000  H
  H46      1.0000 0.94430  0.80920  0.98960  Biso   1.000  H
  H47      1.0000 0.69240  0.17050  0.89220  Biso   1.000  H
  H48      1.0000 0.30760  0.82950  0.10780  Biso   1.000  H
  H49      1.0000 0.63050  0.51980  0.51730  Biso   1.000  H
  H50      1.0000 0.36950  0.48020  0.48270  Biso   1.000  H
  H51      1.0000 0.63980  0.27480  0.07090  Biso   1.000  H
  H52      1.0000 0.36020  0.72520  0.92910  Biso   1.000  H
  H53      1.0000 0.60320  0.35490  0.15900  Biso   1.000  H
  H54      1.0000 0.39680  0.64510  0.84100  Biso   1.000  H
  H55      1.0000 0.50760  0.25140  0.11060  Biso   1.000  H
  H56      1.0000 0.49240  0.74860  0.88940  Biso   1.000  H
  H57      1.0000 0.78450  0.80330  0.49360  Biso   1.000  H
  H58      1.0000 0.21550  0.19670  0.50640  Biso   1.000  H
  H59      1.0000 0.30450  0.02350  0.03850  Biso   1.000  H
  H60      1.0000 0.69550  0.97650  0.96150  Biso   1.000  H
  H61      1.0000 0.41010  0.09160  0.92380  Biso   1.000  H
  H62      1.0000 0.58990  0.90840  0.07620  Biso   1.000  H
  H63      1.0000 0.33210  0.22850  0.86370  Biso   1.000  H
  H64      1.0000 0.66790  0.77150  0.13630  Biso   1.000  H
  H65      1.0000 0.14580  0.28870  0.91040  Biso   1.000  H
  H66      1.0000 0.85420  0.71130  0.08960  Biso   1.000  H
  H67      1.0000 0.03690  0.20920  0.01270  Biso   1.000  H
  H68      1.0000 0.96310  0.79080  0.98730  Biso   1.000  H
