data_image0
_cell_length_a       20.461
_cell_length_b       20.461
_cell_length_c       24.159
_cell_angle_alpha    90
_cell_angle_beta     90
_cell_angle_gamma    120

_symmetry_space_group_name_H-M    "P 1"
_symmetry_int_tables_number       1

loop_
  _symmetry_equiv_pos_as_xyz
  'x, y, z'

loop_
  _atom_site_label
  _atom_site_occupancy
  _atom_site_fract_x
  _atom_site_fract_y
  _atom_site_fract_z
  _atom_site_thermal_displace_type
  _atom_site_B_iso_or_equiv
  _atom_site_type_symbol
  Cu1      1.0000 0.16662  0.33311  0.33314  Biso   1.000  Cu
  Cu2      1.0000 0.66689  0.83351  0.33314  Biso   1.000  Cu
  Cu3      1.0000 0.16649  0.83338  0.33314  Biso   1.000  Cu
  Cu4      1.0000 0.49995  0.66644  0.66647  Biso   1.000  Cu
  Cu5      1.0000 0.00022  0.16684  0.66647  Biso   1.000  Cu
  Cu6      1.0000 0.49982  0.16671  0.66647  Biso   1.000  Cu
  N1       1.0000 0.00200  0.26390  0.39640  Biso   1.000  N
  N2       1.0000 0.73610  0.73810  0.39640  Biso   1.000  N
  N3       1.0000 0.26190  0.99800  0.39640  Biso   1.000  N
  N4       1.0000 0.33533  0.59723  0.72973  Biso   1.000  N
  N5       1.0000 0.06943  0.07143  0.72973  Biso   1.000  N
  N6       1.0000 0.59523  0.33133  0.72973  Biso   1.000  N
  N7       1.0000 0.13540  0.29940  0.41340  Biso   1.000  N
  N8       1.0000 0.70060  0.83600  0.41340  Biso   1.000  N
  N9       1.0000 0.16400  0.86460  0.41340  Biso   1.000  N
  N10      1.0000 0.46873  0.63273  0.74673  Biso   1.000  N
  N11      1.0000 0.03393  0.16933  0.74673  Biso   1.000  N
  N12      1.0000 0.49733  0.19793  0.74673  Biso   1.000  N
  H1       1.0000 0.14390  0.34030  0.43380  Biso   1.000  H
  H2       1.0000 0.65970  0.80360  0.43380  Biso   1.000  H
  H3       1.0000 0.19640  0.85610  0.43380  Biso   1.000  H
  H4       1.0000 0.47723  0.67363  0.76713  Biso   1.000  H
  H5       1.0000 0.99303  0.13693  0.76713  Biso   1.000  H
  H6       1.0000 0.52973  0.18943  0.76713  Biso   1.000  H
  N13      1.0000 0.26010  0.32900  0.35140  Biso   1.000  N
  N14      1.0000 0.67100  0.93110  0.35140  Biso   1.000  N
  N15      1.0000 0.06890  0.73990  0.35140  Biso   1.000  N
  N16      1.0000 0.59343  0.66233  0.68473  Biso   1.000  N
  N17      1.0000 0.00433  0.26443  0.68473  Biso   1.000  N
  N18      1.0000 0.40223  0.07323  0.68473  Biso   1.000  N
  H7       1.0000 0.25490  0.28560  0.33710  Biso   1.000  H
  H8       1.0000 0.71440  0.96930  0.33710  Biso   1.000  H
  H9       1.0000 0.03070  0.74510  0.33710  Biso   1.000  H
  H10      1.0000 0.58823  0.61893  0.67043  Biso   1.000  H
  H11      1.0000 0.04773  0.30263  0.67043  Biso   1.000  H
  H12      1.0000 0.36403  0.07843  0.67043  Biso   1.000  H
  N19      1.0000 0.33130  0.40080  0.26920  Biso   1.000  N
  N20      1.0000 0.59920  0.93050  0.26920  Biso   1.000  N
  N21      1.0000 0.06950  0.66870  0.26920  Biso   1.000  N
  N22      1.0000 0.66463  0.73413  0.60253  Biso   1.000  N
  N23      1.0000 0.93253  0.26383  0.60253  Biso   1.000  N
  N24      1.0000 0.40283  0.00203  0.60253  Biso   1.000  N
  N25      1.0000 0.20040  0.36910  0.25610  Biso   1.000  N
  N26      1.0000 0.63090  0.83130  0.25610  Biso   1.000  N
  N27      1.0000 0.16870  0.79960  0.25610  Biso   1.000  N
  N28      1.0000 0.53373  0.70243  0.58943  Biso   1.000  N
  N29      1.0000 0.96423  0.16463  0.58943  Biso   1.000  N
  N30      1.0000 0.50203  0.13293  0.58943  Biso   1.000  N
  H13      1.0000 0.19120  0.32800  0.23560  Biso   1.000  H
  H14      1.0000 0.67200  0.86320  0.23560  Biso   1.000  H
  H15      1.0000 0.13680  0.80880  0.23560  Biso   1.000  H
  H16      1.0000 0.52453  0.66133  0.56893  Biso   1.000  H
  H17      1.0000 0.00533  0.19653  0.56893  Biso   1.000  H
  H18      1.0000 0.47013  0.14213  0.56893  Biso   1.000  H
  N31      1.0000 0.07180  0.33600  0.31490  Biso   1.000  N
  N32      1.0000 0.66400  0.73580  0.31490  Biso   1.000  N
  N33      1.0000 0.26420  0.92820  0.31490  Biso   1.000  N
  N34      1.0000 0.40513  0.66933  0.64823  Biso   1.000  N
  N35      1.0000 0.99733  0.06913  0.64823  Biso   1.000  N
  N36      1.0000 0.59753  0.26153  0.64823  Biso   1.000  N
  H19      1.0000 0.07790  0.38010  0.32880  Biso   1.000  H
  H20      1.0000 0.61990  0.69780  0.32880  Biso   1.000  H
  H21      1.0000 0.30220  0.92210  0.32880  Biso   1.000  H
  H22      1.0000 0.41123  0.71343  0.66213  Biso   1.000  H
  H23      1.0000 0.95323  0.03113  0.66213  Biso   1.000  H
  H24      1.0000 0.63553  0.25543  0.66213  Biso   1.000  H
  C1       1.0000 0.00000  0.32480  0.43020  Biso   1.000  C
  C2       1.0000 0.67520  0.67520  0.43020  Biso   1.000  C
  C3       1.0000 0.32480  0.00000  0.43020  Biso   1.000  C
  C4       1.0000 0.33333  0.65813  0.76353  Biso   1.000  C
  C5       1.0000 0.00853  0.00853  0.76353  Biso   1.000  C
  C6       1.0000 0.65813  0.33333  0.76353  Biso   1.000  C
  H25      1.0000 0.96120  0.33370  0.41620  Biso   1.000  H
  H26      1.0000 0.66630  0.62750  0.41620  Biso   1.000  H
  H27      1.0000 0.37250  0.03880  0.41620  Biso   1.000  H
  H28      1.0000 0.29453  0.66703  0.74953  Biso   1.000  H
  H29      1.0000 0.99963  0.96083  0.74953  Biso   1.000  H
  H30      1.0000 0.70583  0.37213  0.74953  Biso   1.000  H
  H31      1.0000 0.04790  0.37050  0.42780  Biso   1.000  H
  H32      1.0000 0.62950  0.67740  0.42780  Biso   1.000  H
  H33      1.0000 0.32260  0.95210  0.42780  Biso   1.000  H
  H34      1.0000 0.38123  0.70383  0.76113  Biso   1.000  H
  H35      1.0000 0.96283  0.01073  0.76113  Biso   1.000  H
  H36      1.0000 0.65593  0.28543  0.76113  Biso   1.000  H
  H37      1.0000 0.98950  0.30910  0.46820  Biso   1.000  H
  H38      1.0000 0.69090  0.68040  0.46820  Biso   1.000  H
  H39      1.0000 0.31960  0.01050  0.46820  Biso   1.000  H
  H40      1.0000 0.32283  0.64243  0.80153  Biso   1.000  H
  H41      1.0000 0.02423  0.01373  0.80153  Biso   1.000  H
  H42      1.0000 0.65293  0.34383  0.80153  Biso   1.000  H
  C7       1.0000 0.04950  0.24030  0.41530  Biso   1.000  C
  C8       1.0000 0.75970  0.80920  0.41530  Biso   1.000  C
  C9       1.0000 0.19080  0.95050  0.41530  Biso   1.000  C
  C10      1.0000 0.38283  0.57363  0.74863  Biso   1.000  C
  C11      1.0000 0.09303  0.14253  0.74863  Biso   1.000  C
  C12      1.0000 0.52413  0.28383  0.74863  Biso   1.000  C
  H43      1.0000 0.04090  0.19670  0.39380  Biso   1.000  H
  H44      1.0000 0.80330  0.84420  0.39380  Biso   1.000  H
  H45      1.0000 0.15580  0.95910  0.39380  Biso   1.000  H
  H46      1.0000 0.37423  0.53003  0.72713  Biso   1.000  H
  H47      1.0000 0.13663  0.17753  0.72713  Biso   1.000  H
  H48      1.0000 0.48913  0.29243  0.72713  Biso   1.000  H
  H49      1.0000 0.03600  0.22380  0.45340  Biso   1.000  H
  H50      1.0000 0.77620  0.81220  0.45340  Biso   1.000  H
  H51      1.0000 0.18780  0.96400  0.45340  Biso   1.000  H
  H52      1.0000 0.36933  0.55713  0.78673  Biso   1.000  H
  H53      1.0000 0.10953  0.14553  0.78673  Biso   1.000  H
  H54      1.0000 0.52113  0.29733  0.78673  Biso   1.000  H
  C13      1.0000 0.18550  0.27260  0.43330  Biso   1.000  C
  C14      1.0000 0.72740  0.91290  0.43330  Biso   1.000  C
  C15      1.0000 0.08710  0.81450  0.43330  Biso   1.000  C
  C16      1.0000 0.51883  0.60593  0.76663  Biso   1.000  C
  C17      1.0000 0.06073  0.24623  0.76663  Biso   1.000  C
  C18      1.0000 0.42043  0.14783  0.76663  Biso   1.000  C
  H55      1.0000 0.16800  0.22170  0.42010  Biso   1.000  H
  H56      1.0000 0.77830  0.94630  0.42010  Biso   1.000  H
  H57      1.0000 0.05370  0.83200  0.42010  Biso   1.000  H
  H58      1.0000 0.50133  0.55503  0.75343  Biso   1.000  H
  H59      1.0000 0.11163  0.27963  0.75343  Biso   1.000  H
  H60      1.0000 0.38703  0.16533  0.75343  Biso   1.000  H
  H61      1.0000 0.18590  0.27200  0.47340  Biso   1.000  H
  H62      1.0000 0.72800  0.91390  0.47340  Biso   1.000  H
  H63      1.0000 0.08610  0.81410  0.47340  Biso   1.000  H
  H64      1.0000 0.51923  0.60533  0.80673  Biso   1.000  H
  H65      1.0000 0.06133  0.24723  0.80673  Biso   1.000  H
  H66      1.0000 0.41943  0.14743  0.80673  Biso   1.000  H
  C19      1.0000 0.26290  0.32470  0.41180  Biso   1.000  C
  C20      1.0000 0.67530  0.93820  0.41180  Biso   1.000  C
  C21      1.0000 0.06180  0.73710  0.41180  Biso   1.000  C
  C22      1.0000 0.59623  0.65803  0.74513  Biso   1.000  C
  C23      1.0000 0.00863  0.27153  0.74513  Biso   1.000  C
  C24      1.0000 0.39513  0.07043  0.74513  Biso   1.000  C
  H67      1.0000 0.28190  0.37450  0.42770  Biso   1.000  H
  H68      1.0000 0.62550  0.90740  0.42770  Biso   1.000  H
  H69      1.0000 0.09260  0.71810  0.42770  Biso   1.000  H
  H70      1.0000 0.61523  0.70783  0.76103  Biso   1.000  H
  H71      1.0000 0.95883  0.24073  0.76103  Biso   1.000  H
  H72      1.0000 0.42593  0.05143  0.76103  Biso   1.000  H
  H73      1.0000 0.29660  0.30630  0.42230  Biso   1.000  H
  H74      1.0000 0.69370  0.99030  0.42230  Biso   1.000  H
  H75      1.0000 0.00970  0.70340  0.42230  Biso   1.000  H
  H76      1.0000 0.62993  0.63963  0.75563  Biso   1.000  H
  H77      1.0000 0.02703  0.32363  0.75563  Biso   1.000  H
  H78      1.0000 0.34303  0.03673  0.75563  Biso   1.000  H
  C25      1.0000 0.33080  0.39360  0.32820  Biso   1.000  C
  C26      1.0000 0.60640  0.93720  0.32820  Biso   1.000  C
  C27      1.0000 0.06280  0.66920  0.32820  Biso   1.000  C
  C28      1.0000 0.66413  0.72693  0.66153  Biso   1.000  C
  C29      1.0000 0.93973  0.27053  0.66153  Biso   1.000  C
  C30      1.0000 0.39613  0.00253  0.66153  Biso   1.000  C
  H79      1.0000 0.33810  0.44000  0.34460  Biso   1.000  H
  H80      1.0000 0.56000  0.89810  0.34460  Biso   1.000  H
  H81      1.0000 0.10190  0.66190  0.34460  Biso   1.000  H
  H82      1.0000 0.67143  0.77333  0.67793  Biso   1.000  H
  H83      1.0000 0.89333  0.23143  0.67793  Biso   1.000  H
  H84      1.0000 0.43523  0.99523  0.67793  Biso   1.000  H
  H85      1.0000 0.37320  0.38770  0.33900  Biso   1.000  H
  H86      1.0000 0.61230  0.98550  0.33900  Biso   1.000  H
  H87      1.0000 0.01450  0.62680  0.33900  Biso   1.000  H
  H88      1.0000 0.70653  0.72103  0.67233  Biso   1.000  H
  H89      1.0000 0.94563  0.31883  0.67233  Biso   1.000  H
  H90      1.0000 0.34783  0.96013  0.67233  Biso   1.000  H
  C31      1.0000 0.32970  0.33890  0.23970  Biso   1.000  C
  C32      1.0000 0.66110  0.99080  0.23970  Biso   1.000  C
  C33      1.0000 0.00920  0.67030  0.23970  Biso   1.000  C
  C34      1.0000 0.66303  0.67223  0.57303  Biso   1.000  C
  C35      1.0000 0.99443  0.32413  0.57303  Biso   1.000  C
  C36      1.0000 0.34253  0.00363  0.57303  Biso   1.000  C
  H91      1.0000 0.33280  0.34860  0.20060  Biso   1.000  H
  H92      1.0000 0.65140  0.98420  0.20060  Biso   1.000  H
  H93      1.0000 0.01580  0.66720  0.20060  Biso   1.000  H
  H94      1.0000 0.66613  0.68193  0.53393  Biso   1.000  H
  H95      1.0000 0.98473  0.31753  0.53393  Biso   1.000  H
  H96      1.0000 0.34913  0.00053  0.53393  Biso   1.000  H
  H97      1.0000 0.28350  0.29320  0.24780  Biso   1.000  H
  H98      1.0000 0.70680  0.99030  0.24780  Biso   1.000  H
  H99      1.0000 0.00970  0.71650  0.24780  Biso   1.000  H
  H100     1.0000 0.61683  0.62653  0.58113  Biso   1.000  H
  H101     1.0000 0.04013  0.32363  0.58113  Biso   1.000  H
  H102     1.0000 0.34303  0.04983  0.58113  Biso   1.000  H
  H103     1.0000 0.37170  0.33340  0.25090  Biso   1.000  H
  H104     1.0000 0.66660  0.03830  0.25090  Biso   1.000  H
  H105     1.0000 0.96170  0.62830  0.25090  Biso   1.000  H
  H106     1.0000 0.70503  0.66673  0.58423  Biso   1.000  H
  H107     1.0000 0.99993  0.37163  0.58423  Biso   1.000  H
  H108     1.0000 0.29503  0.96163  0.58423  Biso   1.000  H
  C37      1.0000 0.27840  0.42530  0.24720  Biso   1.000  C
  C38      1.0000 0.57470  0.85310  0.24720  Biso   1.000  C
  C39      1.0000 0.14690  0.72160  0.24720  Biso   1.000  C
  C40      1.0000 0.61173  0.75863  0.58053  Biso   1.000  C
  C41      1.0000 0.90803  0.18643  0.58053  Biso   1.000  C
  C42      1.0000 0.48023  0.05493  0.58053  Biso   1.000  C
  H109     1.0000 0.28880  0.47190  0.26530  Biso   1.000  H
  H110     1.0000 0.52810  0.81690  0.26530  Biso   1.000  H
  H111     1.0000 0.18310  0.71120  0.26530  Biso   1.000  H
  H112     1.0000 0.62213  0.80523  0.59863  Biso   1.000  H
  H113     1.0000 0.86143  0.15023  0.59863  Biso   1.000  H
  H114     1.0000 0.51643  0.04453  0.59863  Biso   1.000  H
  H115     1.0000 0.28720  0.43540  0.20790  Biso   1.000  H
  H116     1.0000 0.56460  0.85180  0.20790  Biso   1.000  H
  H117     1.0000 0.14820  0.71280  0.20790  Biso   1.000  H
  H118     1.0000 0.62053  0.76873  0.54123  Biso   1.000  H
  H119     1.0000 0.89793  0.18513  0.54123  Biso   1.000  H
  H120     1.0000 0.48153  0.04613  0.54123  Biso   1.000  H
  C43      1.0000 0.15070  0.39710  0.23380  Biso   1.000  C
  C44      1.0000 0.60290  0.75360  0.23380  Biso   1.000  C
  C45      1.0000 0.24640  0.84930  0.23380  Biso   1.000  C
  C46      1.0000 0.48403  0.73043  0.56713  Biso   1.000  C
  C47      1.0000 0.93623  0.08693  0.56713  Biso   1.000  C
  C48      1.0000 0.57973  0.18263  0.56713  Biso   1.000  C
  H121     1.0000 0.15290  0.39900  0.19360  Biso   1.000  H
  H122     1.0000 0.60100  0.75390  0.19360  Biso   1.000  H
  H123     1.0000 0.24610  0.84710  0.19360  Biso   1.000  H
  H124     1.0000 0.48623  0.73233  0.52693  Biso   1.000  H
  H125     1.0000 0.93433  0.08723  0.52693  Biso   1.000  H
  H126     1.0000 0.57943  0.18043  0.52693  Biso   1.000  H
  H127     1.0000 0.16680  0.44740  0.24760  Biso   1.000  H
  H128     1.0000 0.55260  0.71940  0.24760  Biso   1.000  H
  H129     1.0000 0.28060  0.83320  0.24760  Biso   1.000  H
  H130     1.0000 0.50013  0.78073  0.58093  Biso   1.000  H
  H131     1.0000 0.88593  0.05273  0.58093  Biso   1.000  H
  H132     1.0000 0.61393  0.16653  0.58093  Biso   1.000  H
  C49      1.0000 0.06900  0.34100  0.25350  Biso   1.000  C
  C50      1.0000 0.65900  0.72800  0.25350  Biso   1.000  C
  C51      1.0000 0.27200  0.93100  0.25350  Biso   1.000  C
  C52      1.0000 0.40233  0.67433  0.58683  Biso   1.000  C
  C53      1.0000 0.99233  0.06133  0.58683  Biso   1.000  C
  C54      1.0000 0.60533  0.26433  0.58683  Biso   1.000  C
  H133     1.0000 0.03510  0.35900  0.24290  Biso   1.000  H
  H134     1.0000 0.64100  0.67610  0.24290  Biso   1.000  H
  H135     1.0000 0.32390  0.96490  0.24290  Biso   1.000  H
  H136     1.0000 0.36843  0.69233  0.57623  Biso   1.000  H
  H137     1.0000 0.97433  0.00943  0.57623  Biso   1.000  H
  H138     1.0000 0.65723  0.29823  0.57623  Biso   1.000  H
  H139     1.0000 0.05120  0.29170  0.23690  Biso   1.000  H
  H140     1.0000 0.70830  0.75950  0.23690  Biso   1.000  H
  H141     1.0000 0.24050  0.94880  0.23690  Biso   1.000  H
  H142     1.0000 0.38453  0.62503  0.57023  Biso   1.000  H
  H143     1.0000 0.04163  0.09283  0.57023  Biso   1.000  H
  H144     1.0000 0.57383  0.28213  0.57023  Biso   1.000  H
  C55      1.0000 0.00070  0.27500  0.33770  Biso   1.000  C
  C56      1.0000 0.72500  0.72570  0.33770  Biso   1.000  C
  C57      1.0000 0.27430  0.99930  0.33770  Biso   1.000  C
  C58      1.0000 0.33403  0.60833  0.67103  Biso   1.000  C
  C59      1.0000 0.05833  0.05903  0.67103  Biso   1.000  C
  C60      1.0000 0.60763  0.33263  0.67103  Biso   1.000  C
  H145     1.0000 0.96070  0.28590  0.32970  Biso   1.000  H
  H146     1.0000 0.71410  0.67480  0.32970  Biso   1.000  H
  H147     1.0000 0.32520  0.03930  0.32970  Biso   1.000  H
  H148     1.0000 0.29403  0.61923  0.66303  Biso   1.000  H
  H149     1.0000 0.04743  0.00813  0.66303  Biso   1.000  H
  H150     1.0000 0.65853  0.37263  0.66303  Biso   1.000  H
  H151     1.0000 0.98850  0.22830  0.31900  Biso   1.000  H
  H152     1.0000 0.77170  0.76020  0.31900  Biso   1.000  H
  H153     1.0000 0.23980  0.01150  0.31900  Biso   1.000  H
  H154     1.0000 0.32183  0.56163  0.65233  Biso   1.000  H
  H155     1.0000 0.10503  0.09353  0.65233  Biso   1.000  H
  H156     1.0000 0.57313  0.34483  0.65233  Biso   1.000  H
  C61      1.0000 0.12240  0.15650  0.30500  Biso   1.000  C
  C62      1.0000 0.84350  0.96590  0.30500  Biso   1.000  C
  C63      1.0000 0.03410  0.87760  0.30500  Biso   1.000  C
  C64      1.0000 0.45573  0.48983  0.63833  Biso   1.000  C
  C65      1.0000 0.17683  0.29923  0.63833  Biso   1.000  C
  C66      1.0000 0.36743  0.21093  0.63833  Biso   1.000  C
  C67      1.0000 0.05770  0.07400  0.30180  Biso   1.000  C
  C68      1.0000 0.92600  0.98370  0.30180  Biso   1.000  C
  C69      1.0000 0.01630  0.94230  0.30180  Biso   1.000  C
  C70      1.0000 0.39103  0.40733  0.63513  Biso   1.000  C
  C71      1.0000 0.25933  0.31703  0.63513  Biso   1.000  C
  C72      1.0000 0.34963  0.27563  0.63513  Biso   1.000  C
  C73      1.0000 0.98680  0.06040  0.30100  Biso   1.000  C
  C74      1.0000 0.93960  0.92640  0.30100  Biso   1.000  C
  C75      1.0000 0.07360  0.01320  0.30100  Biso   1.000  C
  C76      1.0000 0.32013  0.39373  0.63433  Biso   1.000  C
  C77      1.0000 0.27293  0.25973  0.63433  Biso   1.000  C
  C78      1.0000 0.40693  0.34653  0.63433  Biso   1.000  C
  H157     1.0000 0.97690  0.10010  0.30000  Biso   1.000  H
  H158     1.0000 0.89990  0.87680  0.30000  Biso   1.000  H
  H159     1.0000 0.12320  0.02310  0.30000  Biso   1.000  H
  H160     1.0000 0.31023  0.43343  0.63333  Biso   1.000  H
  H161     1.0000 0.23323  0.21013  0.63333  Biso   1.000  H
  H162     1.0000 0.45653  0.35643  0.63333  Biso   1.000  H
  C79      1.0000 0.21070  0.51130  0.36190  Biso   1.000  C
  C80      1.0000 0.48870  0.69940  0.36190  Biso   1.000  C
  C81      1.0000 0.30060  0.78930  0.36190  Biso   1.000  C
  C82      1.0000 0.54403  0.84463  0.69523  Biso   1.000  C
  C83      1.0000 0.82203  0.03273  0.69523  Biso   1.000  C
  C84      1.0000 0.63393  0.12263  0.69523  Biso   1.000  C
  C85      1.0000 0.27210  0.59010  0.36630  Biso   1.000  C
  C86      1.0000 0.40990  0.68200  0.36630  Biso   1.000  C
  C87      1.0000 0.31800  0.72790  0.36630  Biso   1.000  C
  C88      1.0000 0.60543  0.92343  0.69963  Biso   1.000  C
  C89      1.0000 0.74323  0.01533  0.69963  Biso   1.000  C
  C90      1.0000 0.65133  0.06123  0.69963  Biso   1.000  C
  C91      1.0000 0.25890  0.64840  0.36550  Biso   1.000  C
  C92      1.0000 0.35160  0.61050  0.36550  Biso   1.000  C
  C93      1.0000 0.38950  0.74110  0.36550  Biso   1.000  C
  C94      1.0000 0.59223  0.98173  0.69883  Biso   1.000  C
  C95      1.0000 0.68493  0.94383  0.69883  Biso   1.000  C
  C96      1.0000 0.72283  0.07443  0.69883  Biso   1.000  C
  H163     1.0000 0.20900  0.63740  0.36440  Biso   1.000  H
  H164     1.0000 0.36260  0.57160  0.36440  Biso   1.000  H
  H165     1.0000 0.42840  0.79100  0.36440  Biso   1.000  H
  H166     1.0000 0.54233  0.97073  0.69773  Biso   1.000  H
  H167     1.0000 0.69593  0.90493  0.69773  Biso   1.000  H
  H168     1.0000 0.76173  0.12433  0.69773  Biso   1.000  H
  C97      1.0000 0.35060  0.17500  0.11220  Biso   1.000  C
  C98      1.0000 0.82500  0.17560  0.11220  Biso   1.000  C
  C99      1.0000 0.82440  0.64940  0.11220  Biso   1.000  C
  C100     1.0000 0.68393  0.50833  0.44553  Biso   1.000  C
  C101     1.0000 0.15833  0.50893  0.44553  Biso   1.000  C
  C102     1.0000 0.15773  0.98273  0.44553  Biso   1.000  C
  C103     1.0000 0.27670  0.16470  0.13000  Biso   1.000  C
  C104     1.0000 0.83530  0.11200  0.13000  Biso   1.000  C
  C105     1.0000 0.88800  0.72330  0.13000  Biso   1.000  C
  C106     1.0000 0.61003  0.49803  0.46333  Biso   1.000  C
  C107     1.0000 0.16863  0.44533  0.46333  Biso   1.000  C
  C108     1.0000 0.22133  0.05663  0.46333  Biso   1.000  C
  H169     1.0000 0.24130  0.16410  0.10560  Biso   1.000  H
  H170     1.0000 0.83590  0.07720  0.10560  Biso   1.000  H
  H171     1.0000 0.92280  0.75870  0.10560  Biso   1.000  H
  H172     1.0000 0.57463  0.49743  0.43893  Biso   1.000  H
  H173     1.0000 0.16923  0.41053  0.43893  Biso   1.000  H
  H174     1.0000 0.25613  0.09203  0.43893  Biso   1.000  H
  C109     1.0000 0.26560  0.15560  0.18850  Biso   1.000  C
  C110     1.0000 0.84440  0.11000  0.18850  Biso   1.000  C
  C111     1.0000 0.89000  0.73440  0.18850  Biso   1.000  C
  C112     1.0000 0.59893  0.48893  0.52183  Biso   1.000  C
  C113     1.0000 0.17773  0.44333  0.52183  Biso   1.000  C
  C114     1.0000 0.22333  0.06773  0.52183  Biso   1.000  C
  H175     1.0000 0.21940  0.14940  0.19990  Biso   1.000  H
  H176     1.0000 0.85060  0.07000  0.19990  Biso   1.000  H
  H177     1.0000 0.93000  0.78060  0.19990  Biso   1.000  H
  H178     1.0000 0.55273  0.48273  0.53323  Biso   1.000  H
  H179     1.0000 0.18393  0.40333  0.53323  Biso   1.000  H
  H180     1.0000 0.26333  0.11393  0.53323  Biso   1.000  H
  C115     1.0000 0.30910  0.15420  0.23140  Biso   1.000  C
  C116     1.0000 0.84580  0.15490  0.23140  Biso   1.000  C
  C117     1.0000 0.84510  0.69090  0.23140  Biso   1.000  C
  C118     1.0000 0.64243  0.48753  0.56473  Biso   1.000  C
  C119     1.0000 0.17913  0.48823  0.56473  Biso   1.000  C
  C120     1.0000 0.17843  0.02423  0.56473  Biso   1.000  C
  H181     1.0000 0.29720  0.14720  0.26880  Biso   1.000  H
  H182     1.0000 0.85280  0.15000  0.26880  Biso   1.000  H
  H183     1.0000 0.85000  0.70280  0.26880  Biso   1.000  H
  H184     1.0000 0.63053  0.48053  0.60213  Biso   1.000  H
  H185     1.0000 0.18613  0.48333  0.60213  Biso   1.000  H
  H186     1.0000 0.18333  0.03613  0.60213  Biso   1.000  H
  C121     1.0000 0.38020  0.16640  0.20380  Biso   1.000  C
  C122     1.0000 0.83360  0.21380  0.20380  Biso   1.000  C
  C123     1.0000 0.78620  0.61980  0.20380  Biso   1.000  C
  C124     1.0000 0.71353  0.49973  0.53713  Biso   1.000  C
  C125     1.0000 0.16693  0.54713  0.53713  Biso   1.000  C
  C126     1.0000 0.11953  0.95313  0.53713  Biso   1.000  C
  H187     1.0000 0.41620  0.16830  0.22830  Biso   1.000  H
  H188     1.0000 0.83170  0.24790  0.22830  Biso   1.000  H
  H189     1.0000 0.75210  0.58380  0.22830  Biso   1.000  H
  H190     1.0000 0.74953  0.50163  0.56163  Biso   1.000  H
  H191     1.0000 0.16503  0.58123  0.56163  Biso   1.000  H
  H192     1.0000 0.08543  0.91713  0.56163  Biso   1.000  H
  C127     1.0000 0.40060  0.17470  0.15280  Biso   1.000  C
  C128     1.0000 0.82530  0.22590  0.15280  Biso   1.000  C
  C129     1.0000 0.77410  0.59940  0.15280  Biso   1.000  C
  C130     1.0000 0.73393  0.50803  0.48613  Biso   1.000  C
  C131     1.0000 0.15863  0.55923  0.48613  Biso   1.000  C
  C132     1.0000 0.10743  0.93273  0.48613  Biso   1.000  C
  H193     1.0000 0.44700  0.18030  0.14260  Biso   1.000  H
  H194     1.0000 0.81970  0.26670  0.14260  Biso   1.000  H
  H195     1.0000 0.73330  0.55300  0.14260  Biso   1.000  H
  H196     1.0000 0.78033  0.51363  0.47593  Biso   1.000  H
  H197     1.0000 0.15303  0.60003  0.47593  Biso   1.000  H
  H198     1.0000 0.06663  0.88633  0.47593  Biso   1.000  H
  C133     1.0000 0.13250  0.24150  0.11440  Biso   1.000  C
  C134     1.0000 0.75850  0.89100  0.11440  Biso   1.000  C
  C135     1.0000 0.10900  0.86750  0.11440  Biso   1.000  C
  C136     1.0000 0.46583  0.57483  0.44773  Biso   1.000  C
  C137     1.0000 0.09183  0.22433  0.44773  Biso   1.000  C
  C138     1.0000 0.44233  0.20083  0.44773  Biso   1.000  C
  C139     1.0000 0.11330  0.23460  0.06060  Biso   1.000  C
  C140     1.0000 0.76540  0.87870  0.06060  Biso   1.000  C
  C141     1.0000 0.12130  0.88670  0.06060  Biso   1.000  C
  C142     1.0000 0.44663  0.56793  0.39393  Biso   1.000  C
  C143     1.0000 0.09873  0.21203  0.39393  Biso   1.000  C
  C144     1.0000 0.45463  0.22003  0.39393  Biso   1.000  C
  H199     1.0000 0.14350  0.27370  0.03660  Biso   1.000  H
  H200     1.0000 0.72630  0.86980  0.03660  Biso   1.000  H
  H201     1.0000 0.13020  0.85650  0.03660  Biso   1.000  H
  H202     1.0000 0.47683  0.60703  0.36993  Biso   1.000  H
  H203     1.0000 0.05963  0.20313  0.36993  Biso   1.000  H
  H204     1.0000 0.46353  0.18983  0.36993  Biso   1.000  H
  C145     1.0000 0.05740  0.17870  0.04170  Biso   1.000  C
  C146     1.0000 0.82130  0.87870  0.04170  Biso   1.000  C
  C147     1.0000 0.12130  0.94260  0.04170  Biso   1.000  C
  C148     1.0000 0.39073  0.51203  0.37503  Biso   1.000  C
  C149     1.0000 0.15463  0.21203  0.37503  Biso   1.000  C
  C150     1.0000 0.45463  0.27593  0.37503  Biso   1.000  C
  H205     1.0000 0.04600  0.17810  0.00430  Biso   1.000  H
  H206     1.0000 0.82190  0.86790  0.00430  Biso   1.000  H
  H207     1.0000 0.13210  0.95400  0.00430  Biso   1.000  H
  H208     1.0000 0.37933  0.51143  0.33763  Biso   1.000  H
  H209     1.0000 0.15523  0.20123  0.33763  Biso   1.000  H
  H210     1.0000 0.46543  0.28733  0.33763  Biso   1.000  H
  C151     1.0000 0.01040  0.11620  0.07450  Biso   1.000  C
  C152     1.0000 0.88380  0.89420  0.07450  Biso   1.000  C
  C153     1.0000 0.10580  0.98960  0.07450  Biso   1.000  C
  C154     1.0000 0.34373  0.44953  0.40783  Biso   1.000  C
  C155     1.0000 0.21713  0.22753  0.40783  Biso   1.000  C
  C156     1.0000 0.43913  0.32293  0.40783  Biso   1.000  C
  H211     1.0000 0.97110  0.07150  0.06030  Biso   1.000  H
  H212     1.0000 0.92850  0.89960  0.06030  Biso   1.000  H
  H213     1.0000 0.10040  0.02890  0.06030  Biso   1.000  H
  H214     1.0000 0.30443  0.40483  0.39363  Biso   1.000  H
  H215     1.0000 0.26183  0.23293  0.39363  Biso   1.000  H
  H216     1.0000 0.43373  0.36223  0.39363  Biso   1.000  H
  C157     1.0000 0.03080  0.12930  0.13710  Biso   1.000  C
  C158     1.0000 0.87070  0.90150  0.13710  Biso   1.000  C
  C159     1.0000 0.09850  0.96920  0.13710  Biso   1.000  C
  C160     1.0000 0.36413  0.46263  0.47043  Biso   1.000  C
  C161     1.0000 0.20403  0.23483  0.47043  Biso   1.000  C
  C162     1.0000 0.43183  0.30253  0.47043  Biso   1.000  C
  H217     1.0000 0.99860  0.09420  0.16290  Biso   1.000  H
  H218     1.0000 0.90580  0.90440  0.16290  Biso   1.000  H
  H219     1.0000 0.09560  0.00140  0.16290  Biso   1.000  H
  H220     1.0000 0.33193  0.42753  0.49623  Biso   1.000  H
  H221     1.0000 0.23913  0.23773  0.49623  Biso   1.000  H
  H222     1.0000 0.42893  0.33473  0.49623  Biso   1.000  H
  C163     1.0000 0.08950  0.18600  0.15320  Biso   1.000  C
  C164     1.0000 0.81400  0.90350  0.15320  Biso   1.000  C
  C165     1.0000 0.09650  0.91050  0.15320  Biso   1.000  C
  C166     1.0000 0.42283  0.51933  0.48653  Biso   1.000  C
  C167     1.0000 0.14733  0.23683  0.48653  Biso   1.000  C
  C168     1.0000 0.42983  0.24383  0.48653  Biso   1.000  C
  H223     1.0000 0.10430  0.19130  0.19000  Biso   1.000  H
  H224     1.0000 0.80870  0.91300  0.19000  Biso   1.000  H
  H225     1.0000 0.08700  0.89570  0.19000  Biso   1.000  H
  H226     1.0000 0.43763  0.52463  0.52333  Biso   1.000  H
  H227     1.0000 0.14203  0.24633  0.52333  Biso   1.000  H
  H228     1.0000 0.42033  0.22903  0.52333  Biso   1.000  H
  C169     1.0000 0.90720  0.44250  0.21420  Biso   1.000  C
  C170     1.0000 0.55750  0.46470  0.21420  Biso   1.000  C
  C171     1.0000 0.53530  0.09280  0.21420  Biso   1.000  C
  C172     1.0000 0.24053  0.77583  0.54753  Biso   1.000  C
  C173     1.0000 0.89083  0.79803  0.54753  Biso   1.000  C
  C174     1.0000 0.86863  0.42613  0.54753  Biso   1.000  C
  C175     1.0000 0.85250  0.42650  0.17940  Biso   1.000  C
  C176     1.0000 0.57350  0.42600  0.17940  Biso   1.000  C
  C177     1.0000 0.57400  0.14750  0.17940  Biso   1.000  C
  C178     1.0000 0.18583  0.75983  0.51273  Biso   1.000  C
  C179     1.0000 0.90683  0.75933  0.51273  Biso   1.000  C
  C180     1.0000 0.90733  0.48083  0.51273  Biso   1.000  C
  H229     1.0000 0.85970  0.41930  0.14240  Biso   1.000  H
  H230     1.0000 0.58070  0.44040  0.14240  Biso   1.000  H
  H231     1.0000 0.55960  0.14030  0.14240  Biso   1.000  H
  H232     1.0000 0.19303  0.75263  0.47573  Biso   1.000  H
  H233     1.0000 0.91403  0.77373  0.47573  Biso   1.000  H
  H234     1.0000 0.89293  0.47363  0.47573  Biso   1.000  H
  C181     1.0000 0.78050  0.41950  0.19560  Biso   1.000  C
  C182     1.0000 0.58050  0.36100  0.19560  Biso   1.000  C
  C183     1.0000 0.63900  0.21950  0.19560  Biso   1.000  C
  C184     1.0000 0.11383  0.75283  0.52893  Biso   1.000  C
  C185     1.0000 0.91383  0.69433  0.52893  Biso   1.000  C
  C186     1.0000 0.97233  0.55283  0.52893  Biso   1.000  C
  H235     1.0000 0.73930  0.40230  0.17190  Biso   1.000  H
  H236     1.0000 0.59770  0.33700  0.17190  Biso   1.000  H
  H237     1.0000 0.66300  0.26070  0.17190  Biso   1.000  H
  H238     1.0000 0.07263  0.73563  0.50523  Biso   1.000  H
  H239     1.0000 0.93103  0.67033  0.50523  Biso   1.000  H
  H240     1.0000 0.99633  0.59403  0.50523  Biso   1.000  H
  C187     1.0000 0.77960  0.43890  0.24470  Biso   1.000  C
  C188     1.0000 0.56110  0.34070  0.24470  Biso   1.000  C
  C189     1.0000 0.65930  0.22040  0.24470  Biso   1.000  C
  C190     1.0000 0.11293  0.77223  0.57803  Biso   1.000  C
  C191     1.0000 0.89443  0.67403  0.57803  Biso   1.000  C
  C192     1.0000 0.99263  0.55373  0.57803  Biso   1.000  C
  H241     1.0000 0.73830  0.44370  0.25490  Biso   1.000  H
  H242     1.0000 0.55630  0.29460  0.25490  Biso   1.000  H
  H243     1.0000 0.70540  0.26170  0.25490  Biso   1.000  H
  H244     1.0000 0.07163  0.77703  0.58823  Biso   1.000  H
  H245     1.0000 0.88963  0.62793  0.58823  Biso   1.000  H
  H246     1.0000 0.03873  0.59503  0.58823  Biso   1.000  H
  C193     1.0000 0.83280  0.45420  0.28580  Biso   1.000  C
  C194     1.0000 0.54580  0.37860  0.28580  Biso   1.000  C
  C195     1.0000 0.62140  0.16720  0.28580  Biso   1.000  C
  C196     1.0000 0.16613  0.78753  0.61913  Biso   1.000  C
  C197     1.0000 0.87913  0.71193  0.61913  Biso   1.000  C
  C198     1.0000 0.95473  0.50053  0.61913  Biso   1.000  C
  H247     1.0000 0.82490  0.46350  0.32210  Biso   1.000  H
  H248     1.0000 0.53650  0.36140  0.32210  Biso   1.000  H
  H249     1.0000 0.63860  0.17510  0.32210  Biso   1.000  H
  H250     1.0000 0.15823  0.79683  0.65543  Biso   1.000  H
  H251     1.0000 0.86983  0.69473  0.65543  Biso   1.000  H
  H252     1.0000 0.97193  0.50843  0.65543  Biso   1.000  H
  C199     1.0000 0.89900  0.45480  0.26990  Biso   1.000  C
  C200     1.0000 0.54520  0.44420  0.26990  Biso   1.000  C
  C201     1.0000 0.55580  0.10100  0.26990  Biso   1.000  C
  C202     1.0000 0.23233  0.78813  0.60323  Biso   1.000  C
  C203     1.0000 0.87853  0.77753  0.60323  Biso   1.000  C
  C204     1.0000 0.88913  0.43433  0.60323  Biso   1.000  C
  H253     1.0000 0.93630  0.46330  0.29560  Biso   1.000  H
  H254     1.0000 0.53670  0.47300  0.29560  Biso   1.000  H
  H255     1.0000 0.52700  0.06370  0.29560  Biso   1.000  H
  H256     1.0000 0.26963  0.79663  0.62893  Biso   1.000  H
  H257     1.0000 0.87003  0.80633  0.62893  Biso   1.000  H
  H258     1.0000 0.86033  0.39703  0.62893  Biso   1.000  H
  O1       1.0000 0.18800  0.16690  0.31540  Biso   1.000  O
  O2       1.0000 0.83310  0.02110  0.31540  Biso   1.000  O
  O3       1.0000 0.97890  0.81200  0.31540  Biso   1.000  O
  O4       1.0000 0.52133  0.50023  0.64873  Biso   1.000  O
  O5       1.0000 0.16643  0.35443  0.64873  Biso   1.000  O
  O6       1.0000 0.31223  0.14533  0.64873  Biso   1.000  O
  O7       1.0000 0.10550  0.20640  0.29580  Biso   1.000  O
  O8       1.0000 0.79360  0.89910  0.29580  Biso   1.000  O
  O9       1.0000 0.10090  0.89450  0.29580  Biso   1.000  O
  O10      1.0000 0.43883  0.53973  0.62913  Biso   1.000  O
  O11      1.0000 0.12693  0.23243  0.62913  Biso   1.000  O
  O12      1.0000 0.43423  0.22783  0.62913  Biso   1.000  O
  O13      1.0000 0.14550  0.49770  0.35030  Biso   1.000  O
  O14      1.0000 0.50230  0.64780  0.35030  Biso   1.000  O
  O15      1.0000 0.35220  0.85450  0.35030  Biso   1.000  O
  O16      1.0000 0.47883  0.83103  0.68363  Biso   1.000  O
  O17      1.0000 0.83563  0.98113  0.68363  Biso   1.000  O
  O18      1.0000 0.68553  0.18783  0.68363  Biso   1.000  O
  O19      1.0000 0.22680  0.46030  0.36780  Biso   1.000  O
  O20      1.0000 0.53970  0.76650  0.36780  Biso   1.000  O
  O21      1.0000 0.23350  0.77320  0.36780  Biso   1.000  O
  O22      1.0000 0.56013  0.79363  0.70113  Biso   1.000  O
  O23      1.0000 0.87303  0.09983  0.70113  Biso   1.000  O
  O24      1.0000 0.56683  0.10653  0.70113  Biso   1.000  O
  O25      1.0000 0.36390  0.18170  0.06260  Biso   1.000  O
  O26      1.0000 0.81830  0.18220  0.06260  Biso   1.000  O
  O27      1.0000 0.81780  0.63610  0.06260  Biso   1.000  O
  O28      1.0000 0.69723  0.51503  0.39593  Biso   1.000  O
  O29      1.0000 0.15163  0.51553  0.39593  Biso   1.000  O
  O30      1.0000 0.15113  0.96943  0.39593  Biso   1.000  O
  H259     1.0000 0.38100  0.15440  0.05340  Biso   1.000  H
  H260     1.0000 0.84560  0.22660  0.05340  Biso   1.000  H
  H261     1.0000 0.77340  0.61900  0.05340  Biso   1.000  H
  H262     1.0000 0.71433  0.48773  0.38673  Biso   1.000  H
  H263     1.0000 0.17893  0.55993  0.38673  Biso   1.000  H
  H264     1.0000 0.10673  0.95233  0.38673  Biso   1.000  H
  O31      1.0000 0.19220  0.30870  0.13630  Biso   1.000  O
  O32      1.0000 0.69130  0.88350  0.13630  Biso   1.000  O
  O33      1.0000 0.11650  0.80780  0.13630  Biso   1.000  O
  O34      1.0000 0.52553  0.64203  0.46963  Biso   1.000  O
  O35      1.0000 0.02463  0.21683  0.46963  Biso   1.000  O
  O36      1.0000 0.44983  0.14113  0.46963  Biso   1.000  O
  H265     1.0000 0.19800  0.34460  0.11750  Biso   1.000  H
  H266     1.0000 0.65540  0.85340  0.11750  Biso   1.000  H
  H267     1.0000 0.14660  0.80200  0.11750  Biso   1.000  H
  H268     1.0000 0.53133  0.67793  0.45083  Biso   1.000  H
  H269     1.0000 0.98873  0.18673  0.45083  Biso   1.000  H
  H270     1.0000 0.47993  0.13533  0.45083  Biso   1.000  H
  O37      1.0000 0.97050  0.44150  0.19540  Biso   1.000  O
  O38      1.0000 0.55850  0.52900  0.19540  Biso   1.000  O
  O39      1.0000 0.47100  0.02950  0.19540  Biso   1.000  O
  O40      1.0000 0.30383  0.77483  0.52873  Biso   1.000  O
  O41      1.0000 0.89183  0.86233  0.52873  Biso   1.000  O
  O42      1.0000 0.80433  0.36283  0.52873  Biso   1.000  O
  H271     1.0000 0.00710  0.47020  0.21420  Biso   1.000  H
  H272     1.0000 0.52980  0.53690  0.21420  Biso   1.000  H
  H273     1.0000 0.46310  0.99290  0.21420  Biso   1.000  H
  H274     1.0000 0.34043  0.80353  0.54753  Biso   1.000  H
  H275     1.0000 0.86313  0.87023  0.54753  Biso   1.000  H
  H276     1.0000 0.79643  0.32623  0.54753  Biso   1.000  H
  O43      1.0000 0.22100  0.42490  0.07490  Biso   1.000  O
  O44      1.0000 0.57510  0.79610  0.07490  Biso   1.000  O
  O45      1.0000 0.20390  0.77900  0.07490  Biso   1.000  O
  O46      1.0000 0.55433  0.75823  0.40823  Biso   1.000  O
  O47      1.0000 0.90843  0.12943  0.40823  Biso   1.000  O
  O48      1.0000 0.53723  0.11233  0.40823  Biso   1.000  O
  O49      1.0000 0.09350  0.53680  0.25920  Biso   1.000  O
  O50      1.0000 0.46320  0.55670  0.25920  Biso   1.000  O
  O51      1.0000 0.44330  0.90650  0.25920  Biso   1.000  O
  O52      1.0000 0.42683  0.87013  0.59253  Biso   1.000  O
  O53      1.0000 0.79653  0.89003  0.59253  Biso   1.000  O
  O54      1.0000 0.77663  0.23983  0.59253  Biso   1.000  O
