data_image0
_cell_length_a       17.705
_cell_length_b       17.705
_cell_length_c       6.94
_cell_angle_alpha    90
_cell_angle_beta     90
_cell_angle_gamma    120

_symmetry_space_group_name_H-M    "P 1"
_symmetry_int_tables_number       1

loop_
  _symmetry_equiv_pos_as_xyz
  'x, y, z'

loop_
  _atom_site_label
  _atom_site_occupancy
  _atom_site_fract_x
  _atom_site_fract_y
  _atom_site_fract_z
  _atom_site_thermal_displace_type
  _atom_site_B_iso_or_equiv
  _atom_site_type_symbol
  Cu1      1.0000 0.50000  0.00000  0.50000  Biso   1.000  Cu
  Cu2      1.0000 0.00000  0.50000  0.50000  Biso   1.000  Cu
  Cu3      1.0000 0.50000  0.50000  0.50000  Biso   1.000  Cu
  N1       1.0000 0.30000  0.87250  0.66370  Biso   1.000  N
  N2       1.0000 0.12750  0.42750  0.66370  Biso   1.000  N
  N3       1.0000 0.57250  0.70000  0.66370  Biso   1.000  N
  N4       1.0000 0.70000  0.12750  0.33630  Biso   1.000  N
  N5       1.0000 0.87250  0.57250  0.33630  Biso   1.000  N
  N6       1.0000 0.42750  0.30000  0.33630  Biso   1.000  N
  N7       1.0000 0.45110  0.90240  0.69610  Biso   1.000  N
  N8       1.0000 0.09760  0.54870  0.69610  Biso   1.000  N
  N9       1.0000 0.45130  0.54890  0.69610  Biso   1.000  N
  N10      1.0000 0.54890  0.09760  0.30390  Biso   1.000  N
  N11      1.0000 0.90240  0.45130  0.30390  Biso   1.000  N
  N12      1.0000 0.54870  0.45110  0.30390  Biso   1.000  N
  H1       1.0000 0.45720  0.92710  0.81430  Biso   1.000  H
  H2       1.0000 0.07290  0.53010  0.81430  Biso   1.000  H
  H3       1.0000 0.46990  0.54280  0.81430  Biso   1.000  H
  H4       1.0000 0.54280  0.07290  0.18570  Biso   1.000  H
  H5       1.0000 0.92710  0.46990  0.18570  Biso   1.000  H
  H6       1.0000 0.53010  0.45720  0.18570  Biso   1.000  H
  N13      1.0000 0.60810  0.99050  0.50350  Biso   1.000  N
  N14      1.0000 0.00950  0.61760  0.50350  Biso   1.000  N
  N15      1.0000 0.38240  0.39190  0.50350  Biso   1.000  N
  N16      1.0000 0.39190  0.00950  0.49650  Biso   1.000  N
  N17      1.0000 0.99050  0.38240  0.49650  Biso   1.000  N
  N18      1.0000 0.61760  0.60810  0.49650  Biso   1.000  N
  H7       1.0000 0.60690  0.96020  0.39640  Biso   1.000  H
  H8       1.0000 0.03980  0.64670  0.39640  Biso   1.000  H
  H9       1.0000 0.35330  0.39310  0.39640  Biso   1.000  H
  H10      1.0000 0.39310  0.03980  0.60360  Biso   1.000  H
  H11      1.0000 0.96020  0.35330  0.60360  Biso   1.000  H
  H12      1.0000 0.64670  0.60690  0.60360  Biso   1.000  H
  C1       1.0000 0.28600  0.90330  0.84740  Biso   1.000  C
  C2       1.0000 0.09670  0.38270  0.84740  Biso   1.000  C
  C3       1.0000 0.61730  0.71400  0.84740  Biso   1.000  C
  C4       1.0000 0.71400  0.09670  0.15260  Biso   1.000  C
  C5       1.0000 0.90330  0.61730  0.15260  Biso   1.000  C
  C6       1.0000 0.38270  0.28600  0.15260  Biso   1.000  C
  H13      1.0000 0.24680  0.92540  0.82960  Biso   1.000  H
  H14      1.0000 0.07460  0.32140  0.82960  Biso   1.000  H
  H15      1.0000 0.67860  0.75320  0.82960  Biso   1.000  H
  H16      1.0000 0.75320  0.07460  0.17040  Biso   1.000  H
  H17      1.0000 0.92540  0.67860  0.17040  Biso   1.000  H
  H18      1.0000 0.32140  0.24680  0.17040  Biso   1.000  H
  H19      1.0000 0.26130  0.85590  0.93770  Biso   1.000  H
  H20      1.0000 0.14410  0.40540  0.93770  Biso   1.000  H
  H21      1.0000 0.59460  0.73870  0.93770  Biso   1.000  H
  H22      1.0000 0.73870  0.14410  0.06230  Biso   1.000  H
  H23      1.0000 0.85590  0.59460  0.06230  Biso   1.000  H
  H24      1.0000 0.40540  0.26130  0.06230  Biso   1.000  H
  H25      1.0000 0.34070  0.94890  0.89590  Biso   1.000  H
  H26      1.0000 0.05110  0.39180  0.89590  Biso   1.000  H
  H27      1.0000 0.60820  0.65930  0.89590  Biso   1.000  H
  H28      1.0000 0.65930  0.05110  0.10410  Biso   1.000  H
  H29      1.0000 0.94890  0.60820  0.10410  Biso   1.000  H
  H30      1.0000 0.39180  0.34070  0.10410  Biso   1.000  H
  C7       1.0000 0.35650  0.83700  0.66990  Biso   1.000  C
  C8       1.0000 0.16300  0.51950  0.66990  Biso   1.000  C
  C9       1.0000 0.48050  0.64350  0.66990  Biso   1.000  C
  C10      1.0000 0.64350  0.16300  0.33010  Biso   1.000  C
  C11      1.0000 0.83700  0.48050  0.33010  Biso   1.000  C
  C12      1.0000 0.51950  0.35650  0.33010  Biso   1.000  C
  H31      1.0000 0.33820  0.79530  0.77480  Biso   1.000  H
  H32      1.0000 0.20470  0.54290  0.77480  Biso   1.000  H
  H33      1.0000 0.45710  0.66180  0.77480  Biso   1.000  H
  H34      1.0000 0.66180  0.20470  0.22520  Biso   1.000  H
  H35      1.0000 0.79530  0.45710  0.22520  Biso   1.000  H
  H36      1.0000 0.54290  0.33820  0.22520  Biso   1.000  H
  H37      1.0000 0.34980  0.80540  0.55110  Biso   1.000  H
  H38      1.0000 0.19460  0.54440  0.55110  Biso   1.000  H
  H39      1.0000 0.45560  0.65020  0.55110  Biso   1.000  H
  H40      1.0000 0.65020  0.19460  0.44890  Biso   1.000  H
  H41      1.0000 0.80540  0.45560  0.44890  Biso   1.000  H
  H42      1.0000 0.54440  0.34980  0.44890  Biso   1.000  H
  C13      1.0000 0.50840  0.86330  0.69070  Biso   1.000  C
  C14      1.0000 0.13670  0.64510  0.69070  Biso   1.000  C
  C15      1.0000 0.35490  0.49160  0.69070  Biso   1.000  C
  C16      1.0000 0.49160  0.13670  0.30930  Biso   1.000  C
  C17      1.0000 0.86330  0.35490  0.30930  Biso   1.000  C
  C18      1.0000 0.64510  0.50840  0.30930  Biso   1.000  C
  H43      1.0000 0.50080  0.83000  0.80730  Biso   1.000  H
  H44      1.0000 0.17000  0.67080  0.80730  Biso   1.000  H
  H45      1.0000 0.32920  0.49920  0.80730  Biso   1.000  H
  H46      1.0000 0.49920  0.17000  0.19270  Biso   1.000  H
  H47      1.0000 0.83000  0.32920  0.19270  Biso   1.000  H
  H48      1.0000 0.67080  0.50080  0.19270  Biso   1.000  H
  H49      1.0000 0.49340  0.82430  0.58130  Biso   1.000  H
  H50      1.0000 0.17570  0.66910  0.58130  Biso   1.000  H
  H51      1.0000 0.33090  0.50660  0.58130  Biso   1.000  H
  H52      1.0000 0.50660  0.17570  0.41870  Biso   1.000  H
  H53      1.0000 0.82430  0.33090  0.41870  Biso   1.000  H
  H54      1.0000 0.66910  0.49340  0.41870  Biso   1.000  H
  C19      1.0000 0.60160  0.93620  0.67430  Biso   1.000  C
  C20      1.0000 0.06380  0.66540  0.67430  Biso   1.000  C
  C21      1.0000 0.33460  0.39840  0.67430  Biso   1.000  C
  C22      1.0000 0.39840  0.06380  0.32570  Biso   1.000  C
  C23      1.0000 0.93620  0.33460  0.32570  Biso   1.000  C
  C24      1.0000 0.66540  0.60160  0.32570  Biso   1.000  C
  H55      1.0000 0.64010  0.91240  0.65820  Biso   1.000  H
  H56      1.0000 0.08760  0.72770  0.65820  Biso   1.000  H
  H57      1.0000 0.27230  0.35990  0.65820  Biso   1.000  H
  H58      1.0000 0.35990  0.08760  0.34180  Biso   1.000  H
  H59      1.0000 0.91240  0.27230  0.34180  Biso   1.000  H
  H60      1.0000 0.72770  0.64010  0.34180  Biso   1.000  H
  H61      1.0000 0.61870  0.97150  0.79020  Biso   1.000  H
  H62      1.0000 0.02850  0.64720  0.79020  Biso   1.000  H
  H63      1.0000 0.35280  0.38130  0.79020  Biso   1.000  H
  H64      1.0000 0.38130  0.02850  0.20980  Biso   1.000  H
  H65      1.0000 0.97150  0.35280  0.20980  Biso   1.000  H
  H66      1.0000 0.64720  0.61870  0.20980  Biso   1.000  H
  C25      1.0000 0.30840  0.92500  0.50000  Biso   1.000  C
  C26      1.0000 0.07500  0.38340  0.50000  Biso   1.000  C
  C27      1.0000 0.61660  0.69160  0.50000  Biso   1.000  C
  C28      1.0000 0.69160  0.07500  0.50000  Biso   1.000  C
  C29      1.0000 0.92500  0.61660  0.50000  Biso   1.000  C
  C30      1.0000 0.38340  0.30840  0.50000  Biso   1.000  C
  H67      1.0000 0.30420  0.89270  0.38390  Biso   1.000  H
  H68      1.0000 0.10730  0.41150  0.38390  Biso   1.000  H
  H69      1.0000 0.58850  0.69580  0.38390  Biso   1.000  H
  H70      1.0000 0.69580  0.10730  0.61610  Biso   1.000  H
  H71      1.0000 0.89270  0.58850  0.61610  Biso   1.000  H
  H72      1.0000 0.41150  0.30420  0.61610  Biso   1.000  H
  H73      1.0000 0.26030  0.93650  0.49930  Biso   1.000  H
  H74      1.0000 0.06350  0.32380  0.49930  Biso   1.000  H
  H75      1.0000 0.67620  0.73970  0.49930  Biso   1.000  H
  H76      1.0000 0.73970  0.06350  0.50070  Biso   1.000  H
  H77      1.0000 0.93650  0.67620  0.50070  Biso   1.000  H
  H78      1.0000 0.32380  0.26030  0.50070  Biso   1.000  H
  C31      1.0000 0.53140  0.15090  0.81790  Biso   1.000  C
  C32      1.0000 0.84910  0.38050  0.81790  Biso   1.000  C
  C33      1.0000 0.61950  0.46860  0.81790  Biso   1.000  C
  C34      1.0000 0.46860  0.84910  0.18210  Biso   1.000  C
  C35      1.0000 0.15090  0.61950  0.18210  Biso   1.000  C
  C36      1.0000 0.38050  0.53140  0.18210  Biso   1.000  C
  C37      1.0000 0.60070  0.24490  0.82440  Biso   1.000  C
  C38      1.0000 0.75510  0.35580  0.82440  Biso   1.000  C
  C39      1.0000 0.64420  0.39930  0.82440  Biso   1.000  C
  C40      1.0000 0.39930  0.75510  0.17560  Biso   1.000  C
  C41      1.0000 0.24490  0.64420  0.17560  Biso   1.000  C
  C42      1.0000 0.35580  0.60070  0.17560  Biso   1.000  C
  C43      1.0000 0.68930  0.26890  0.82690  Biso   1.000  C
  C44      1.0000 0.73110  0.42040  0.82690  Biso   1.000  C
  C45      1.0000 0.57960  0.31070  0.82690  Biso   1.000  C
  C46      1.0000 0.31070  0.73110  0.17310  Biso   1.000  C
  C47      1.0000 0.26890  0.57960  0.17310  Biso   1.000  C
  C48      1.0000 0.42040  0.68930  0.17310  Biso   1.000  C
  H79      1.0000 0.70430  0.22550  0.83030  Biso   1.000  H
  H80      1.0000 0.77450  0.47880  0.83030  Biso   1.000  H
  H81      1.0000 0.52120  0.29570  0.83030  Biso   1.000  H
  H82      1.0000 0.29570  0.77450  0.16970  Biso   1.000  H
  H83      1.0000 0.22550  0.52120  0.16970  Biso   1.000  H
  H84      1.0000 0.47880  0.70430  0.16970  Biso   1.000  H
  O1       1.0000 0.45320  0.13340  0.81760  Biso   1.000  O
  O2       1.0000 0.86660  0.31980  0.81760  Biso   1.000  O
  O3       1.0000 0.68020  0.54680  0.81760  Biso   1.000  O
  O4       1.0000 0.54680  0.86660  0.18240  Biso   1.000  O
  O5       1.0000 0.13340  0.68020  0.18240  Biso   1.000  O
  O6       1.0000 0.31980  0.45320  0.18240  Biso   1.000  O
  O7       1.0000 0.55480  0.09540  0.80460  Biso   1.000  O
  O8       1.0000 0.90460  0.45940  0.80460  Biso   1.000  O
  O9       1.0000 0.54060  0.44520  0.80460  Biso   1.000  O
  O10      1.0000 0.44520  0.90460  0.19540  Biso   1.000  O
  O11      1.0000 0.09540  0.54060  0.19540  Biso   1.000  O
  O12      1.0000 0.45940  0.55480  0.19540  Biso   1.000  O
  O13      1.0000 0.06740  0.88900  0.52800  Biso   1.000  O
  O14      1.0000 0.11100  0.17840  0.52800  Biso   1.000  O
  O15      1.0000 0.82160  0.93260  0.52800  Biso   1.000  O
  O16      1.0000 0.93260  0.11100  0.47200  Biso   1.000  O
  O17      1.0000 0.88900  0.82160  0.47200  Biso   1.000  O
  O18      1.0000 0.17840  0.06740  0.47200  Biso   1.000  O
  O19      1.0000 0.05720  0.88480  0.94210  Biso   1.000  O
  O20      1.0000 0.11520  0.17240  0.94210  Biso   1.000  O
  O21      1.0000 0.82760  0.94280  0.94210  Biso   1.000  O
  O22      1.0000 0.94280  0.11520  0.05790  Biso   1.000  O
  O23      1.0000 0.88480  0.82760  0.05790  Biso   1.000  O
  O24      1.0000 0.17240  0.05720  0.05790  Biso   1.000  O
  O25      1.0000 0.12120  0.82570  0.23800  Biso   1.000  O
  O26      1.0000 0.17430  0.29550  0.23800  Biso   1.000  O
  O27      1.0000 0.70450  0.87880  0.23800  Biso   1.000  O
  O28      1.0000 0.87880  0.17430  0.76200  Biso   1.000  O
  O29      1.0000 0.82570  0.70450  0.76200  Biso   1.000  O
  O30      1.0000 0.29550  0.12120  0.76200  Biso   1.000  O
