data_image0
_cell_length_a       9.7001
_cell_length_b       17.1346
_cell_length_c       24.9317
_cell_angle_alpha    86.658
_cell_angle_beta     79.721
_cell_angle_gamma    73.943

_symmetry_space_group_name_H-M    "P 1"
_symmetry_int_tables_number       1

loop_
  _symmetry_equiv_pos_as_xyz
  'x, y, z'

loop_
  _atom_site_label
  _atom_site_occupancy
  _atom_site_fract_x
  _atom_site_fract_y
  _atom_site_fract_z
  _atom_site_thermal_displace_type
  _atom_site_B_iso_or_equiv
  _atom_site_type_symbol
  Cu1      1.0000 0.32477  0.13325  0.00174  Biso   1.000  Cu
  Cu2      1.0000 0.67523  0.86675  0.99826  Biso   1.000  Cu
  Cu3      1.0000 0.54982  0.13475  0.46614  Biso   1.000  Cu
  Cu4      1.0000 0.45018  0.86525  0.53386  Biso   1.000  Cu
  Cu5      1.0000 0.70814  0.40487  0.27515  Biso   1.000  Cu
  Cu6      1.0000 0.29186  0.59513  0.72485  Biso   1.000  Cu
  Cl1      1.0000 0.64680  0.28598  0.28612  Biso   1.000  Cl
  Cl2      1.0000 0.35320  0.71402  0.71388  Biso   1.000  Cl
  N1       1.0000 0.26720  0.14100  0.92786  Biso   1.000  N
  N2       1.0000 0.73280  0.85900  0.07214  Biso   1.000  N
  N3       1.0000 0.29450  0.02200  0.01159  Biso   1.000  N
  N4       1.0000 0.70550  0.97800  0.98841  Biso   1.000  N
  N5       1.0000 0.36790  0.12810  0.07775  Biso   1.000  N
  N6       1.0000 0.63210  0.87190  0.92225  Biso   1.000  N
  N7       1.0000 0.35770  0.24370  0.99159  Biso   1.000  N
  N8       1.0000 0.64230  0.75630  0.00841  Biso   1.000  N
  N9       1.0000 0.59760  0.39490  0.17475  Biso   1.000  N
  N10      1.0000 0.40240  0.60510  0.82525  Biso   1.000  N
  N11      1.0000 0.28670  0.43570  0.76376  Biso   1.000  N
  N12      1.0000 0.71330  0.56430  0.23624  Biso   1.000  N
  N13      1.0000 0.42010  0.24510  0.45383  Biso   1.000  N
  N14      1.0000 0.57990  0.75490  0.54617  Biso   1.000  N
  N15      1.0000 0.51900  0.09570  0.39588  Biso   1.000  N
  N16      1.0000 0.48100  0.90430  0.60412  Biso   1.000  N
  N17      1.0000 0.67540  0.02300  0.47965  Biso   1.000  N
  N18      1.0000 0.32460  0.97700  0.52035  Biso   1.000  N
  N19      1.0000 0.59630  0.17590  0.53293  Biso   1.000  N
  N20      1.0000 0.40370  0.82410  0.46707  Biso   1.000  N
  N21      1.0000 0.04680  0.32280  0.26011  Biso   1.000  N
  N22      1.0000 0.95320  0.67720  0.73989  Biso   1.000  N
  N23      1.0000 0.28990  0.53720  0.62051  Biso   1.000  N
  N24      1.0000 0.71010  0.46280  0.37949  Biso   1.000  N
  O1       1.0000 0.65390  0.43830  0.20361  Biso   1.000  O
  O2       1.0000 0.34610  0.56170  0.79639  Biso   1.000  O
  O3       1.0000 0.28460  0.48300  0.71873  Biso   1.000  O
  O4       1.0000 0.71540  0.51700  0.28127  Biso   1.000  O
  O5       1.0000 0.94750  0.35710  0.22948  Biso   1.000  O
  O6       1.0000 0.05250  0.64290  0.77052  Biso   1.000  O
  O7       1.0000 0.23960  0.60640  0.65096  Biso   1.000  O
  O8       1.0000 0.76040  0.39360  0.34904  Biso   1.000  O
  C1       1.0000 0.25540  0.20660  0.89258  Biso   1.000  C
  C2       1.0000 0.74460  0.79340  0.10742  Biso   1.000  C
  C3       1.0000 0.19690  0.19150  0.84627  Biso   1.000  C
  C4       1.0000 0.80310  0.80850  0.15373  Biso   1.000  C
  H1       1.0000 0.17880  0.22710  0.81610  Biso   1.000  H
  H2       1.0000 0.82120  0.77290  0.18390  Biso   1.000  H
  C5       1.0000 0.17260  0.11770  0.85352  Biso   1.000  C
  C6       1.0000 0.82740  0.88230  0.14648  Biso   1.000  C
  H3       1.0000 0.13220  0.09200  0.82990  Biso   1.000  H
  H4       1.0000 0.86780  0.90800  0.17010  Biso   1.000  H
  C7       1.0000 0.21970  0.08500  0.90422  Biso   1.000  C
  C8       1.0000 0.78030  0.91500  0.09578  Biso   1.000  C
  C9       1.0000 0.22130  0.00660  0.92372  Biso   1.000  C
  C10      1.0000 0.77870  0.99340  0.07628  Biso   1.000  C
  C11      1.0000 0.26440  0.97720  0.97357  Biso   1.000  C
  C12      1.0000 0.73560  0.02280  0.02643  Biso   1.000  C
  C13      1.0000 0.27630  0.89520  0.99340  Biso   1.000  C
  C14      1.0000 0.72370  0.10480  0.00660  Biso   1.000  C
  H5       1.0000 0.26420  0.85170  0.97440  Biso   1.000  H
  H6       1.0000 0.73580  0.14830  0.02560  Biso   1.000  H
  C15      1.0000 0.30760  0.89230  0.04390  Biso   1.000  C
  C16      1.0000 0.69240  0.10770  0.95610  Biso   1.000  C
  H7       1.0000 0.32190  0.84600  0.06730  Biso   1.000  H
  H8       1.0000 0.67810  0.15400  0.93270  Biso   1.000  H
  C17      1.0000 0.31570  0.97080  0.05634  Biso   1.000  C
  C18      1.0000 0.68430  0.02920  0.94366  Biso   1.000  C
  C19      1.0000 0.33130  0.99440  0.10766  Biso   1.000  C
  C20      1.0000 0.66870  0.00560  0.89234  Biso   1.000  C
  C21      1.0000 0.35140  0.06920  0.11703  Biso   1.000  C
  C22      1.0000 0.64860  0.93080  0.88297  Biso   1.000  C
  C23      1.0000 0.36340  0.09580  0.16944  Biso   1.000  C
  C24      1.0000 0.63660  0.90420  0.83056  Biso   1.000  C
  H9       1.0000 0.35230  0.06760  0.20320  Biso   1.000  H
  H10      1.0000 0.64770  0.93240  0.79680  Biso   1.000  H
  C25      1.0000 0.39350  0.16880  0.16145  Biso   1.000  C
  C26      1.0000 0.60650  0.83120  0.83855  Biso   1.000  C
  H11      1.0000 0.40870  0.20100  0.18840  Biso   1.000  H
  H12      1.0000 0.59130  0.79900  0.81160  Biso   1.000  H
  C27      1.0000 0.39790  0.18800  0.10432  Biso   1.000  C
  C28      1.0000 0.60210  0.81200  0.89568  Biso   1.000  C
  C29      1.0000 0.42410  0.25970  0.08003  Biso   1.000  C
  C30      1.0000 0.57590  0.74030  0.91997  Biso   1.000  C
  C31      1.0000 0.40350  0.28530  0.02750  Biso   1.000  C
  C32      1.0000 0.59650  0.71470  0.97250  Biso   1.000  C
  C33      1.0000 0.42390  0.36030  0.00370  Biso   1.000  C
  C34      1.0000 0.57610  0.63970  0.99630  Biso   1.000  C
  H13      1.0000 0.45680  0.39900  0.01990  Biso   1.000  H
  H14      1.0000 0.54320  0.60100  0.98010  Biso   1.000  H
  C35      1.0000 0.38700  0.36520  0.95340  Biso   1.000  C
  C36      1.0000 0.61300  0.63480  0.04660  Biso   1.000  C
  H15      1.0000 0.38760  0.40870  0.92790  Biso   1.000  H
  H16      1.0000 0.61240  0.59130  0.07210  Biso   1.000  H
  C37      1.0000 0.34660  0.29220  0.94564  Biso   1.000  C
  C38      1.0000 0.65340  0.70780  0.05436  Biso   1.000  C
  C39      1.0000 0.29830  0.27510  0.89947  Biso   1.000  C
  C40      1.0000 0.70170  0.72490  0.10053  Biso   1.000  C
  C41      1.0000 0.17210  0.95270  0.89097  Biso   1.000  C
  C42      1.0000 0.82790  0.04730  0.10903  Biso   1.000  C
  C43      1.0000 0.24300  0.93280  0.83750  Biso   1.000  C
  C44      1.0000 0.75700  0.06720  0.16250  Biso   1.000  C
  H17      1.0000 0.32370  0.95280  0.82230  Biso   1.000  H
  H18      1.0000 0.67630  0.04720  0.17770  Biso   1.000  H
  C45      1.0000 0.19530  0.88360  0.80670  Biso   1.000  C
  C46      1.0000 0.80470  0.11640  0.19330  Biso   1.000  C
  H19      1.0000 0.24280  0.87060  0.77030  Biso   1.000  H
  H20      1.0000 0.75720  0.12940  0.22970  Biso   1.000  H
  C47      1.0000 0.08000  0.85400  0.82860  Biso   1.000  C
  C48      1.0000 0.92000  0.14600  0.17140  Biso   1.000  C
  H21      1.0000 0.04780  0.82040  0.80740  Biso   1.000  H
  H22      1.0000 0.95220  0.17960  0.19260  Biso   1.000  H
  C49      1.0000 0.01060  0.87250  0.88120  Biso   1.000  C
  C50      1.0000 0.98940  0.12750  0.11880  Biso   1.000  C
  H23      1.0000 0.93040  0.85180  0.89610  Biso   1.000  H
  H24      1.0000 0.06960  0.14820  0.10390  Biso   1.000  H
  C51      1.0000 0.05740  0.92170  0.91280  Biso   1.000  C
  C52      1.0000 0.94260  0.07830  0.08720  Biso   1.000  C
  H25      1.0000 0.01010  0.93370  0.94930  Biso   1.000  H
  H26      1.0000 0.98990  0.06630  0.05070  Biso   1.000  H
  C53      1.0000 0.32170  0.93540  0.15357  Biso   1.000  C
  C54      1.0000 0.67830  0.06460  0.84643  Biso   1.000  C
  C55      1.0000 0.19820  0.90610  0.16690  Biso   1.000  C
  C56      1.0000 0.80180  0.09390  0.83310  Biso   1.000  C
  H27      1.0000 0.12030  0.92490  0.14700  Biso   1.000  H
  H28      1.0000 0.87970  0.07510  0.85300  Biso   1.000  H
  C57      1.0000 0.18840  0.85020  0.20870  Biso   1.000  C
  C58      1.0000 0.81160  0.14980  0.79130  Biso   1.000  C
  H29      1.0000 0.10430  0.83070  0.21720  Biso   1.000  H
  H30      1.0000 0.89570  0.16930  0.78280  Biso   1.000  H
  C59      1.0000 0.30080  0.82270  0.23820  Biso   1.000  C
  C60      1.0000 0.69920  0.17730  0.76180  Biso   1.000  C
  H31      1.0000 0.29420  0.78400  0.26680  Biso   1.000  H
  H32      1.0000 0.70580  0.21600  0.73320  Biso   1.000  H
  C61      1.0000 0.42430  0.85160  0.22590  Biso   1.000  C
  C62      1.0000 0.57570  0.14840  0.77410  Biso   1.000  C
  H33      1.0000 0.50120  0.83300  0.24630  Biso   1.000  H
  H34      1.0000 0.49880  0.16700  0.75370  Biso   1.000  H
  C63      1.0000 0.43420  0.90760  0.18371  Biso   1.000  C
  C64      1.0000 0.56580  0.09240  0.81629  Biso   1.000  C
  H35      1.0000 0.51830  0.92700  0.17530  Biso   1.000  H
  H36      1.0000 0.48170  0.07300  0.82470  Biso   1.000  H
  C65      1.0000 0.48290  0.30880  0.11339  Biso   1.000  C
  C66      1.0000 0.51710  0.69120  0.88661  Biso   1.000  C
  C67      1.0000 0.40040  0.38400  0.13490  Biso   1.000  C
  C68      1.0000 0.59960  0.61600  0.86510  Biso   1.000  C
  H37      1.0000 0.30350  0.40640  0.12850  Biso   1.000  H
  H38      1.0000 0.69650  0.59360  0.87150  Biso   1.000  H
  C69      1.0000 0.46120  0.42550  0.16560  Biso   1.000  C
  C70      1.0000 0.53880  0.57450  0.83440  Biso   1.000  C
  H39      1.0000 0.40550  0.47660  0.18060  Biso   1.000  H
  H40      1.0000 0.59450  0.52340  0.81940  Biso   1.000  H
  C71      1.0000 0.67940  0.32310  0.15480  Biso   1.000  C
  C72      1.0000 0.32060  0.67690  0.84520  Biso   1.000  C
  H41      1.0000 0.77590  0.30230  0.16200  Biso   1.000  H
  H42      1.0000 0.22410  0.69770  0.83800  Biso   1.000  H
  C73      1.0000 0.62390  0.27970  0.12390  Biso   1.000  C
  C74      1.0000 0.37610  0.72030  0.87610  Biso   1.000  C
  H43      1.0000 0.68280  0.22880  0.10940  Biso   1.000  H
  H44      1.0000 0.31720  0.77120  0.89060  Biso   1.000  H
  C75      1.0000 0.29340  0.33530  0.85310  Biso   1.000  C
  C76      1.0000 0.70660  0.66470  0.14690  Biso   1.000  C
  C77      1.0000 0.42010  0.34250  0.82060  Biso   1.000  C
  C78      1.0000 0.57990  0.65750  0.17940  Biso   1.000  C
  H45      1.0000 0.51130  0.31170  0.82920  Biso   1.000  H
  H46      1.0000 0.48870  0.68830  0.17080  Biso   1.000  H
  C79      1.0000 0.41660  0.39370  0.77590  Biso   1.000  C
  C80      1.0000 0.58340  0.60630  0.22410  Biso   1.000  C
  H47      1.0000 0.50430  0.39920  0.75400  Biso   1.000  H
  H48      1.0000 0.49570  0.60080  0.24600  Biso   1.000  H
  C81      1.0000 0.16290  0.38130  0.83950  Biso   1.000  C
  C82      1.0000 0.83710  0.61870  0.16050  Biso   1.000  C
  H49      1.0000 0.07350  0.37870  0.86150  Biso   1.000  H
  H50      1.0000 0.92650  0.62130  0.13850  Biso   1.000  H
  C83      1.0000 0.38330  0.31160  0.48700  Biso   1.000  C
  C84      1.0000 0.61670  0.68840  0.51300  Biso   1.000  C
  C85      1.0000 0.27840  0.37730  0.46630  Biso   1.000  C
  C86      1.0000 0.72160  0.62270  0.53370  Biso   1.000  C
  H51      1.0000 0.23680  0.42980  0.48170  Biso   1.000  H
  H52      1.0000 0.76320  0.57020  0.51830  Biso   1.000  H
  C87      1.0000 0.25020  0.35030  0.42070  Biso   1.000  C
  C88      1.0000 0.74980  0.64970  0.57930  Biso   1.000  C
  H53      1.0000 0.18410  0.38010  0.39820  Biso   1.000  H
  H54      1.0000 0.81590  0.61990  0.60180  Biso   1.000  H
  C89      1.0000 0.33910  0.26780  0.41260  Biso   1.000  C
  C90      1.0000 0.66090  0.73220  0.58740  Biso   1.000  C
  C91      1.0000 0.34700  0.22080  0.36798  Biso   1.000  C
  C92      1.0000 0.65300  0.77920  0.63202  Biso   1.000  C
  C93      1.0000 0.43910  0.14150  0.35918  Biso   1.000  C
  C94      1.0000 0.56090  0.85850  0.64082  Biso   1.000  C
  C95      1.0000 0.46440  0.09800  0.30910  Biso   1.000  C
  C96      1.0000 0.53560  0.90200  0.69090  Biso   1.000  C
  H55      1.0000 0.42290  0.11690  0.27740  Biso   1.000  H
  H56      1.0000 0.57710  0.88310  0.72260  Biso   1.000  H
  C97      1.0000 0.55860  0.02500  0.31590  Biso   1.000  C
  C98      1.0000 0.44140  0.97500  0.68410  Biso   1.000  C
  H57      1.0000 0.59730  0.98320  0.28960  Biso   1.000  H
  H58      1.0000 0.40270  0.01680  0.71040  Biso   1.000  H
  C99      1.0000 0.58970  0.02260  0.37090  Biso   1.000  C
  C100     1.0000 0.41030  0.97740  0.62910  Biso   1.000  C
  C101     1.0000 0.67140  0.95500  0.39550  Biso   1.000  C
  C102     1.0000 0.32860  0.04500  0.60450  Biso   1.000  C
  C103     1.0000 0.70360  0.95540  0.44810  Biso   1.000  C
  C104     1.0000 0.29640  0.04460  0.55190  Biso   1.000  C
  C105     1.0000 0.77770  0.88530  0.47610  Biso   1.000  C
  C106     1.0000 0.22230  0.11470  0.52390  Biso   1.000  C
  H59      1.0000 0.80600  0.83080  0.46380  Biso   1.000  H
  H60      1.0000 0.19400  0.16920  0.53620  Biso   1.000  H
  C107     1.0000 0.79970  0.91070  0.52310  Biso   1.000  C
  C108     1.0000 0.20030  0.08930  0.47690  Biso   1.000  C
  H61      1.0000 0.84620  0.87750  0.55010  Biso   1.000  H
  H62      1.0000 0.15380  0.12250  0.44990  Biso   1.000  H
  C109     1.0000 0.74050  0.99710  0.52500  Biso   1.000  C
  C110     1.0000 0.25950  0.00290  0.47500  Biso   1.000  C
  C111     1.0000 0.75630  0.04820  0.56360  Biso   1.000  C
  C112     1.0000 0.24370  0.95180  0.43640  Biso   1.000  C
  C113     1.0000 0.69310  0.13150  0.56560  Biso   1.000  C
  C114     1.0000 0.30690  0.86850  0.43440  Biso   1.000  C
  C115     1.0000 0.71460  0.18590  0.60360  Biso   1.000  C
  C116     1.0000 0.28540  0.81410  0.39640  Biso   1.000  C
  H63      1.0000 0.78010  0.17190  0.62890  Biso   1.000  H
  H64      1.0000 0.21990  0.82810  0.37110  Biso   1.000  H
  C117     1.0000 0.62530  0.26010  0.59660  Biso   1.000  C
  C118     1.0000 0.37470  0.73990  0.40340  Biso   1.000  C
  H65      1.0000 0.61370  0.30750  0.61680  Biso   1.000  H
  H66      1.0000 0.38630  0.69250  0.38320  Biso   1.000  H
  C119     1.0000 0.54990  0.25350  0.55220  Biso   1.000  C
  C120     1.0000 0.45010  0.74650  0.44780  Biso   1.000  C
  C121     1.0000 0.44580  0.31700  0.53260  Biso   1.000  C
  C122     1.0000 0.55420  0.68300  0.46740  Biso   1.000  C
  C123     1.0000 0.24850  0.25520  0.32772  Biso   1.000  C
  C124     1.0000 0.75150  0.74480  0.67228  Biso   1.000  C
  C125     1.0000 0.13910  0.21930  0.32140  Biso   1.000  C
  C126     1.0000 0.86090  0.78070  0.67860  Biso   1.000  C
  H67      1.0000 0.13320  0.17040  0.34050  Biso   1.000  H
  H68      1.0000 0.86680  0.82960  0.65950  Biso   1.000  H
  C127     1.0000 0.03990  0.25420  0.28780  Biso   1.000  C
  C128     1.0000 0.96010  0.74580  0.71220  Biso   1.000  C
  H69      1.0000 0.96580  0.22930  0.28430  Biso   1.000  H
  H70      1.0000 0.03420  0.77070  0.71570  Biso   1.000  H
  C129     1.0000 0.15240  0.35840  0.26430  Biso   1.000  C
  C130     1.0000 0.84760  0.64160  0.73570  Biso   1.000  C
  H71      1.0000 0.15700  0.40660  0.24410  Biso   1.000  H
  H72      1.0000 0.84300  0.59340  0.75590  Biso   1.000  H
  C131     1.0000 0.25480  0.32500  0.29790  Biso   1.000  C
  C132     1.0000 0.74520  0.67500  0.70210  Biso   1.000  C
  H73      1.0000 0.32900  0.35040  0.30030  Biso   1.000  H
  H74      1.0000 0.67100  0.64960  0.69970  Biso   1.000  H
  C133     1.0000 0.73600  0.87780  0.36360  Biso   1.000  C
  C134     1.0000 0.26400  0.12220  0.63640  Biso   1.000  C
  C135     1.0000 0.64950  0.83450  0.34750  Biso   1.000  C
  C136     1.0000 0.35050  0.16550  0.65250  Biso   1.000  C
  H75      1.0000 0.54660  0.85500  0.35500  Biso   1.000  H
  H76      1.0000 0.45340  0.14500  0.64500  Biso   1.000  H
  C137     1.0000 0.71340  0.76010  0.31980  Biso   1.000  C
  C138     1.0000 0.28660  0.23990  0.68020  Biso   1.000  C
  H77      1.0000 0.65340  0.73020  0.30940  Biso   1.000  H
  H78      1.0000 0.34660  0.26980  0.69060  Biso   1.000  H
  C139     1.0000 0.85930  0.73160  0.30820  Biso   1.000  C
  C140     1.0000 0.14070  0.26840  0.69180  Biso   1.000  C
  H79      1.0000 0.90180  0.68220  0.28890  Biso   1.000  H
  H80      1.0000 0.09820  0.31780  0.71110  Biso   1.000  H
  C141     1.0000 0.94740  0.77350  0.32410  Biso   1.000  C
  C142     1.0000 0.05260  0.22650  0.67590  Biso   1.000  C
  H81      1.0000 0.05020  0.75200  0.31660  Biso   1.000  H
  H82      1.0000 0.94980  0.24800  0.68340  Biso   1.000  H
  C143     1.0000 0.88760  0.84700  0.35110  Biso   1.000  C
  C144     1.0000 0.11240  0.15300  0.64890  Biso   1.000  C
  H83      1.0000 0.94910  0.87630  0.36100  Biso   1.000  H
  H84      1.0000 0.05090  0.12370  0.63900  Biso   1.000  H
  C145     1.0000 0.16270  0.43120  0.79390  Biso   1.000  C
  C146     1.0000 0.83730  0.56880  0.20610  Biso   1.000  C
  H85      1.0000 0.07310  0.46220  0.78420  Biso   1.000  H
  H86      1.0000 0.92690  0.53780  0.21580  Biso   1.000  H
  C147     1.0000 0.84860  0.01070  0.60580  Biso   1.000  C
  C148     1.0000 0.15140  0.98930  0.39420  Biso   1.000  C
  C149     1.0000 0.99420  0.96810  0.59050  Biso   1.000  C
  C150     1.0000 0.00580  0.03190  0.40950  Biso   1.000  C
  H87      1.0000 0.03510  0.96150  0.55300  Biso   1.000  H
  H88      1.0000 0.96490  0.03850  0.44700  Biso   1.000  H
  C151     1.0000 0.08010  0.93530  0.62980  Biso   1.000  C
  C152     1.0000 0.91990  0.06470  0.37020  Biso   1.000  C
  H89      1.0000 0.17910  0.90630  0.61890  Biso   1.000  H
  H90      1.0000 0.82090  0.09370  0.38110  Biso   1.000  H
  C153     1.0000 0.02300  0.94450  0.68410  Biso   1.000  C
  C154     1.0000 0.97700  0.05550  0.31590  Biso   1.000  C
  H91      1.0000 0.08220  0.92240  0.71070  Biso   1.000  H
  H92      1.0000 0.91780  0.07760  0.28930  Biso   1.000  H
  C155     1.0000 0.87820  0.98630  0.69990  Biso   1.000  C
  C156     1.0000 0.12180  0.01370  0.30010  Biso   1.000  C
  H93      1.0000 0.83830  0.99300  0.73760  Biso   1.000  H
  H94      1.0000 0.16170  0.00700  0.26240  Biso   1.000  H
  C157     1.0000 0.79100  0.01840  0.66110  Biso   1.000  C
  C158     1.0000 0.20900  0.98160  0.33890  Biso   1.000  C
  H95      1.0000 0.69130  0.04590  0.67240  Biso   1.000  H
  H96      1.0000 0.30870  0.95410  0.32760  Biso   1.000  H
  C159     1.0000 0.39200  0.39480  0.56330  Biso   1.000  C
  C160     1.0000 0.60800  0.60520  0.43670  Biso   1.000  C
  C161     1.0000 0.25050  0.41850  0.59070  Biso   1.000  C
  C162     1.0000 0.74950  0.58150  0.40930  Biso   1.000  C
  H97      1.0000 0.18770  0.38500  0.58980  Biso   1.000  H
  H98      1.0000 0.81230  0.61500  0.41020  Biso   1.000  H
  C163     1.0000 0.19850  0.49050  0.61980  Biso   1.000  C
  C164     1.0000 0.80150  0.50950  0.38020  Biso   1.000  C
  H99      1.0000 0.10110  0.50650  0.63870  Biso   1.000  H
  H100     1.0000 0.89890  0.49350  0.36130  Biso   1.000  H
  C165     1.0000 0.42510  0.51770  0.59490  Biso   1.000  C
  C166     1.0000 0.57490  0.48230  0.40510  Biso   1.000  C
  H101     1.0000 0.48510  0.55250  0.59670  Biso   1.000  H
  H102     1.0000 0.51490  0.44750  0.40330  Biso   1.000  H
  C167     1.0000 0.48130  0.44630  0.56520  Biso   1.000  C
  C168     1.0000 0.51870  0.55370  0.43480  Biso   1.000  C
  H103     1.0000 0.57890  0.43260  0.54640  Biso   1.000  H
  H104     1.0000 0.42110  0.56740  0.45360  Biso   1.000  H
  B1       1.0000 0.77380  0.44520  0.70780  Biso   1.000  B
  B2       1.0000 0.22620  0.55480  0.29220  Biso   1.000  B
  F1       1.0000 0.89020  0.45550  0.67490  Biso   1.000  F
  F2       1.0000 0.10980  0.54450  0.32510  Biso   1.000  F
  F3       1.0000 0.81890  0.44660  0.76300  Biso   1.000  F
  F4       1.0000 0.18110  0.55340  0.23700  Biso   1.000  F
  F5       1.0000 0.65290  0.50530  0.70930  Biso   1.000  F
  F6       1.0000 0.34710  0.49470  0.29070  Biso   1.000  F
  F7       1.0000 0.74880  0.37180  0.70170  Biso   1.000  F
  F8       1.0000 0.25120  0.62820  0.29830  Biso   1.000  F
  C169     1.0000 0.77820  0.32950  0.95530  Biso   1.000  C
  C170     1.0000 0.22180  0.67050  0.04470  Biso   1.000  C
  Cl3      1.0000 0.77780  0.34280  0.88520  Biso   1.000  Cl
  Cl4      1.0000 0.22220  0.65720  0.11480  Biso   1.000  Cl
  Cl5      1.0000 0.92860  0.25870  0.97390  Biso   1.000  Cl
  Cl6      1.0000 0.07140  0.74130  0.02610  Biso   1.000  Cl
  Cl7      1.0000 0.74630  0.42500  0.98710  Biso   1.000  Cl
  Cl8      1.0000 0.25370  0.57500  0.01290  Biso   1.000  Cl
  Cl9      1.0000 0.79830  0.30370  0.88820  Biso   1.000  Cl
  Cl10     1.0000 0.20170  0.69630  0.11180  Biso   1.000  Cl
  Cl11     1.0000 0.93150  0.26920  0.98360  Biso   1.000  Cl
  Cl12     1.0000 0.06850  0.73080  0.01640  Biso   1.000  Cl
  Cl13     1.0000 0.78260  0.43010  0.96070  Biso   1.000  Cl
  Cl14     1.0000 0.21740  0.56990  0.03930  Biso   1.000  Cl
  C171     1.0000 0.17390  0.74480  0.55410  Biso   1.000  C
  C172     1.0000 0.82610  0.25520  0.44590  Biso   1.000  C
  O9       1.0000 0.08440  0.69620  0.57500  Biso   1.000  O
  O10      1.0000 0.91560  0.30380  0.42500  Biso   1.000  O
  C173     1.0000 0.09890  0.60890  0.45140  Biso   1.000  C
  C174     1.0000 0.90110  0.39110  0.54860  Biso   1.000  C
  O11      1.0000 0.16620  0.57960  0.49580  Biso   1.000  O
  O12      1.0000 0.83380  0.42040  0.50420  Biso   1.000  O
  C175     1.0000 0.00920  0.39390  0.08890  Biso   1.000  C
  C176     1.0000 0.99080  0.60610  0.91110  Biso   1.000  C
  O13      1.0000 0.06030  0.41400  0.13010  Biso   1.000  O
  O14      1.0000 0.93970  0.58600  0.86990  Biso   1.000  O
