data_image0
_cell_length_a       8.1872
_cell_length_b       14.4491
_cell_length_c       16.8506
_cell_angle_alpha    80.749
_cell_angle_beta     78.467
_cell_angle_gamma    75.415

_symmetry_space_group_name_H-M    "P 1"
_symmetry_int_tables_number       1

loop_
  _symmetry_equiv_pos_as_xyz
  'x, y, z'

loop_
  _atom_site_label
  _atom_site_occupancy
  _atom_site_fract_x
  _atom_site_fract_y
  _atom_site_fract_z
  _atom_site_thermal_displace_type
  _atom_site_B_iso_or_equiv
  _atom_site_type_symbol
  Cu1      1.0000 0.50000  0.50000  0.50000  Biso   1.000  Cu
  Cu2      1.0000 0.69338  0.05097  0.07457  Biso   1.000  Cu
  Cu3      1.0000 0.30662  0.94903  0.92543  Biso   1.000  Cu
  Cu4      1.0000 0.05270  0.42587  0.55955  Biso   1.000  Cu
  Cu5      1.0000 0.94730  0.57413  0.44045  Biso   1.000  Cu
  Br1      1.0000 0.09082  0.27208  0.62968  Biso   1.000  Br
  Br2      1.0000 0.90918  0.72792  0.37032  Biso   1.000  Br
  Br3      1.0000 0.11471  0.57419  0.55911  Biso   1.000  Br
  Br4      1.0000 0.88529  0.42581  0.44089  Biso   1.000  Br
  C1       1.0000 0.60060  0.22470  0.16850  Biso   1.000  C
  C2       1.0000 0.39940  0.77530  0.83150  Biso   1.000  C
  C3       1.0000 0.57790  0.32810  0.15560  Biso   1.000  C
  C4       1.0000 0.42210  0.67190  0.84440  Biso   1.000  C
  H1       1.0000 0.53160  0.37110  0.19580  Biso   1.000  H
  H2       1.0000 0.46840  0.62890  0.80420  Biso   1.000  H
  C5       1.0000 0.63500  0.35230  0.07560  Biso   1.000  C
  C6       1.0000 0.36500  0.64770  0.92440  Biso   1.000  C
  H3       1.0000 0.63570  0.41530  0.04870  Biso   1.000  H
  H4       1.0000 0.36430  0.58470  0.95130  Biso   1.000  H
  C7       1.0000 0.69440  0.26310  0.03940  Biso   1.000  C
  C8       1.0000 0.30560  0.73690  0.96060  Biso   1.000  C
  C9       1.0000 0.78160  0.25620  0.95860  Biso   1.000  C
  C10      1.0000 0.21840  0.74380  0.04140  Biso   1.000  C
  C11      1.0000 0.83390  0.17010  0.92300  Biso   1.000  C
  C12      1.0000 0.16610  0.82990  0.07700  Biso   1.000  C
  C13      1.0000 0.93240  0.16000  0.84290  Biso   1.000  C
  C14      1.0000 0.06760  0.84000  0.15710  Biso   1.000  C
  H5       1.0000 0.97810  0.20850  0.80700  Biso   1.000  H
  H6       1.0000 0.02190  0.79150  0.19300  Biso   1.000  H
  C15      1.0000 0.94830  0.06760  0.82800  Biso   1.000  C
  C16      1.0000 0.05170  0.93240  0.17200  Biso   1.000  C
  H7       1.0000 0.00940  0.03910  0.78060  Biso   1.000  H
  H8       1.0000 0.99060  0.96090  0.21940  Biso   1.000  H
  C17      1.0000 0.85380  0.02190  0.89880  Biso   1.000  C
  C18      1.0000 0.14620  0.97810  0.10120  Biso   1.000  C
  C19      1.0000 0.82240  0.93030  0.90430  Biso   1.000  C
  C20      1.0000 0.17760  0.06970  0.09570  Biso   1.000  C
  C21      1.0000 0.73990  0.88470  0.97570  Biso   1.000  C
  C22      1.0000 0.26010  0.11530  0.02430  Biso   1.000  C
  C23      1.0000 0.69690  0.79310  0.98230  Biso   1.000  C
  C24      1.0000 0.30310  0.20690  0.01770  Biso   1.000  C
  H9       1.0000 0.70960  0.75560  0.93910  Biso   1.000  H
  H10      1.0000 0.29040  0.24440  0.06090  Biso   1.000  H
  C25      1.0000 0.63420  0.76980  0.06270  Biso   1.000  C
  C26      1.0000 0.36580  0.23020  0.93730  Biso   1.000  C
  H11      1.0000 0.59410  0.71350  0.08580  Biso   1.000  H
  H12      1.0000 0.40590  0.28650  0.91420  Biso   1.000  H
  C27      1.0000 0.64070  0.84660  0.10510  Biso   1.000  C
  C28      1.0000 0.35930  0.15340  0.89490  Biso   1.000  C
  C29      1.0000 0.60070  0.84700  0.18950  Biso   1.000  C
  C30      1.0000 0.39930  0.15300  0.81050  Biso   1.000  C
  C31      1.0000 0.59510  0.92480  0.23080  Biso   1.000  C
  C32      1.0000 0.40490  0.07520  0.76920  Biso   1.000  C
  C33      1.0000 0.56280  0.92350  0.31790  Biso   1.000  C
  C34      1.0000 0.43720  0.07650  0.68210  Biso   1.000  C
  H13      1.0000 0.54770  0.87000  0.35730  Biso   1.000  H
  H14      1.0000 0.45230  0.13000  0.64270  Biso   1.000  H
  C35      1.0000 0.55820  0.01430  0.33310  Biso   1.000  C
  C36      1.0000 0.44180  0.98570  0.66690  Biso   1.000  C
  H15      1.0000 0.53950  0.03590  0.38520  Biso   1.000  H
  H16      1.0000 0.46050  0.96410  0.61480  Biso   1.000  H
  C37      1.0000 0.58710  0.07140  0.25510  Biso   1.000  C
  C38      1.0000 0.41290  0.92860  0.74490  Biso   1.000  C
  C39      1.0000 0.57450  0.16990  0.24500  Biso   1.000  C
  C40      1.0000 0.42550  0.83010  0.75500  Biso   1.000  C
  C41      1.0000 0.81780  0.34630  0.90740  Biso   1.000  C
  C42      1.0000 0.18220  0.65370  0.09260  Biso   1.000  C
  C43      1.0000 0.92170  0.39760  0.92970  Biso   1.000  C
  C44      1.0000 0.07830  0.60240  0.07030  Biso   1.000  C
  H17      1.0000 0.96950  0.37650  0.97820  Biso   1.000  H
  H18      1.0000 0.03050  0.62350  0.02180  Biso   1.000  H
  C45      1.0000 0.95500  0.48070  0.87980  Biso   1.000  C
  C46      1.0000 0.04500  0.51930  0.12020  Biso   1.000  C
  H19      1.0000 0.02370  0.51640  0.89550  Biso   1.000  H
  H20      1.0000 0.97630  0.48360  0.10450  Biso   1.000  H
  C47      1.0000 0.88960  0.51110  0.80870  Biso   1.000  C
  C48      1.0000 0.11040  0.48890  0.19130  Biso   1.000  C
  H21      1.0000 0.91460  0.56690  0.77520  Biso   1.000  H
  H22      1.0000 0.08540  0.43310  0.22480  Biso   1.000  H
  C49      1.0000 0.78750  0.46070  0.78570  Biso   1.000  C
  C50      1.0000 0.21250  0.53930  0.21430  Biso   1.000  C
  H23      1.0000 0.74200  0.48160  0.73650  Biso   1.000  H
  H24      1.0000 0.25800  0.51840  0.26350  Biso   1.000  H
  C51      1.0000 0.75190  0.37850  0.83550  Biso   1.000  C
  C52      1.0000 0.24810  0.62150  0.16450  Biso   1.000  C
  H25      1.0000 0.68110  0.34400  0.81980  Biso   1.000  H
  H26      1.0000 0.31890  0.65600  0.18020  Biso   1.000  H
  C53      1.0000 0.87570  0.87740  0.83140  Biso   1.000  C
  C54      1.0000 0.12430  0.12260  0.16860  Biso   1.000  C
  C55      1.0000 0.81560  0.91850  0.75870  Biso   1.000  C
  C56      1.0000 0.18440  0.08150  0.24130  Biso   1.000  C
  H27      1.0000 0.74320  0.98120  0.75520  Biso   1.000  H
  H28      1.0000 0.25680  0.01880  0.24480  Biso   1.000  H
  C57      1.0000 0.86330  0.86610  0.69030  Biso   1.000  C
  C58      1.0000 0.13670  0.13390  0.30970  Biso   1.000  C
  H29      1.0000 0.82280  0.89380  0.64080  Biso   1.000  H
  H30      1.0000 0.17720  0.10620  0.35920  Biso   1.000  H
  C59      1.0000 0.96850  0.77480  0.69530  Biso   1.000  C
  C60      1.0000 0.03150  0.22520  0.30470  Biso   1.000  C
  H31      1.0000 0.99650  0.73900  0.64980  Biso   1.000  H
  H32      1.0000 0.00350  0.26100  0.35020  Biso   1.000  H
  C61      1.0000 0.03260  0.73560  0.76550  Biso   1.000  C
  C62      1.0000 0.96740  0.26440  0.23450  Biso   1.000  C
  H33      1.0000 0.10950  0.67410  0.76750  Biso   1.000  H
  H34      1.0000 0.89050  0.32590  0.23250  Biso   1.000  H
  C63      1.0000 0.98580  0.78540  0.83480  Biso   1.000  C
  C64      1.0000 0.01420  0.21460  0.16520  Biso   1.000  C
  H35      1.0000 0.02830  0.75690  0.88360  Biso   1.000  H
  H36      1.0000 0.97170  0.24310  0.11640  Biso   1.000  H
  C65      1.0000 0.56190  0.75790  0.24000  Biso   1.000  C
  C66      1.0000 0.43810  0.24210  0.76000  Biso   1.000  C
  C67      1.0000 0.68630  0.67130  0.23930  Biso   1.000  C
  C68      1.0000 0.31370  0.32870  0.76070  Biso   1.000  C
  H37      1.0000 0.79400  0.66860  0.20480  Biso   1.000  H
  H38      1.0000 0.20600  0.33140  0.79520  Biso   1.000  H
  C69      1.0000 0.65330  0.58950  0.28880  Biso   1.000  C
  C70      1.0000 0.34670  0.41050  0.71120  Biso   1.000  C
  H39      1.0000 0.73780  0.53090  0.28800  Biso   1.000  H
  H40      1.0000 0.26220  0.46910  0.71200  Biso   1.000  H
  C71      1.0000 0.37670  0.67450  0.34040  Biso   1.000  C
  C72      1.0000 0.62330  0.32550  0.65960  Biso   1.000  C
  H41      1.0000 0.27000  0.67480  0.37530  Biso   1.000  H
  H42      1.0000 0.73000  0.32520  0.62470  Biso   1.000  H
  C73      1.0000 0.40460  0.75840  0.29140  Biso   1.000  C
  C74      1.0000 0.59540  0.24160  0.70860  Biso   1.000  C
  H43      1.0000 0.31690  0.81570  0.29290  Biso   1.000  H
  H44      1.0000 0.68310  0.18430  0.70710  Biso   1.000  H
  C75      1.0000 0.53530  0.22070  0.31990  Biso   1.000  C
  C76      1.0000 0.46470  0.77930  0.68010  Biso   1.000  C
  C77      1.0000 0.64850  0.19770  0.37530  Biso   1.000  C
  C78      1.0000 0.35150  0.80230  0.62470  Biso   1.000  C
  H45      1.0000 0.74610  0.14590  0.36790  Biso   1.000  H
  H46      1.0000 0.25390  0.85410  0.63210  Biso   1.000  H
  C79      1.0000 0.62080  0.24920  0.44130  Biso   1.000  C
  C80      1.0000 0.37920  0.75080  0.55870  Biso   1.000  C
  H47      1.0000 0.69980  0.23340  0.47840  Biso   1.000  H
  H48      1.0000 0.30020  0.76660  0.52160  Biso   1.000  H
  C81      1.0000 0.36410  0.34310  0.40300  Biso   1.000  C
  C82      1.0000 0.63590  0.65690  0.59700  Biso   1.000  C
  H49      1.0000 0.26400  0.39250  0.41400  Biso   1.000  H
  H50      1.0000 0.73600  0.60750  0.58600  Biso   1.000  H
  C83      1.0000 0.38790  0.29360  0.33620  Biso   1.000  C
  C84      1.0000 0.61210  0.70640  0.66380  Biso   1.000  C
  H51      1.0000 0.30440  0.30910  0.30140  Biso   1.000  H
  H52      1.0000 0.69560  0.69090  0.69860  Biso   1.000  H
  N1       1.0000 0.66650  0.18700  0.09660  Biso   1.000  N
  N2       1.0000 0.33350  0.81300  0.90340  Biso   1.000  N
  N3       1.0000 0.79070  0.08470  0.95800  Biso   1.000  N
  N4       1.0000 0.20930  0.91530  0.04200  Biso   1.000  N
  N5       1.0000 0.70080  0.91880  0.05110  Biso   1.000  N
  N6       1.0000 0.29920  0.08120  0.94890  Biso   1.000  N
  N7       1.0000 0.61480  0.01470  0.19320  Biso   1.000  N
  N8       1.0000 0.38520  0.98530  0.80680  Biso   1.000  N
  N9       1.0000 0.50010  0.59340  0.33850  Biso   1.000  N
  N10      1.0000 0.49990  0.40660  0.66150  Biso   1.000  N
  N11      1.0000 0.48180  0.32150  0.45230  Biso   1.000  N
  N12      1.0000 0.51820  0.67850  0.54770  Biso   1.000  N
  O1       1.0000 0.47180  0.51340  0.38530  Biso   1.000  O
  O2       1.0000 0.52820  0.48660  0.61470  Biso   1.000  O
  O3       1.0000 0.45740  0.37080  0.51630  Biso   1.000  O
  O4       1.0000 0.54260  0.62920  0.48370  Biso   1.000  O
  O5       1.0000 0.71830  0.87290  0.49600  Biso   1.000  O
  O6       1.0000 0.28170  0.12710  0.50400  Biso   1.000  O
  O7       1.0000 0.95880  0.10000  0.58390  Biso   1.000  O
  O8       1.0000 0.04120  0.90000  0.41610  Biso   1.000  O
  O9       1.0000 0.96500  0.15090  0.51850  Biso   1.000  O
  O10      1.0000 0.03500  0.84910  0.48150  Biso   1.000  O
