data_image0
_cell_length_a       9.054
_cell_length_b       9.521
_cell_length_c       12.522
_cell_angle_alpha    97.553
_cell_angle_beta     92.723
_cell_angle_gamma    101.881

_symmetry_space_group_name_H-M    "P 1"
_symmetry_int_tables_number       1

loop_
  _symmetry_equiv_pos_as_xyz
  'x, y, z'

loop_
  _atom_site_label
  _atom_site_occupancy
  _atom_site_fract_x
  _atom_site_fract_y
  _atom_site_fract_z
  _atom_site_thermal_displace_type
  _atom_site_B_iso_or_equiv
  _atom_site_type_symbol
  Cu1      1.0000 0.00000  0.00000  0.00000  Biso   1.000  Cu
  Cu2      1.0000 0.50000  0.00000  0.00000  Biso   1.000  Cu
  S1       1.0000 0.04584  0.26317  0.21399  Biso   1.000  S
  S2       1.0000 0.95416  0.73683  0.78601  Biso   1.000  S
  O1       1.0000 0.79290  0.00700  0.05170  Biso   1.000  O
  O2       1.0000 0.20710  0.99300  0.94830  Biso   1.000  O
  O3       1.0000 0.60430  0.05060  0.14370  Biso   1.000  O
  O4       1.0000 0.39570  0.94940  0.85630  Biso   1.000  O
  O5       1.0000 0.55170  0.19670  0.96470  Biso   1.000  O
  O6       1.0000 0.44830  0.80330  0.03530  Biso   1.000  O
  O7       1.0000 0.96230  0.13110  0.89460  Biso   1.000  O
  O8       1.0000 0.03770  0.86890  0.10540  Biso   1.000  O
  O9       1.0000 0.11330  0.18960  0.12540  Biso   1.000  O
  O10      1.0000 0.88670  0.81040  0.87460  Biso   1.000  O
  O11      1.0000 0.15840  0.36070  0.28990  Biso   1.000  O
  O12      1.0000 0.84160  0.63930  0.71010  Biso   1.000  O
  O13      1.0000 0.92580  0.32790  0.17730  Biso   1.000  O
  O14      1.0000 0.07420  0.67210  0.82270  Biso   1.000  O
  N1       1.0000 0.68220  0.42670  0.97810  Biso   1.000  N
  N2       1.0000 0.31780  0.57330  0.02190  Biso   1.000  N
  N3       1.0000 0.81750  0.16980  0.75410  Biso   1.000  N
  N4       1.0000 0.18250  0.83020  0.24590  Biso   1.000  N
  C1       1.0000 0.64590  0.30080  0.01220  Biso   1.000  C
  C2       1.0000 0.35410  0.69920  0.98780  Biso   1.000  C
  H1       1.0000 0.69450  0.28940  0.07670  Biso   1.000  H
  H2       1.0000 0.30550  0.71060  0.92330  Biso   1.000  H
  C3       1.0000 0.61190  0.45190  0.87860  Biso   1.000  C
  C4       1.0000 0.38810  0.54810  0.12140  Biso   1.000  C
  H3       1.0000 0.66980  0.42630  0.81970  Biso   1.000  H
  H4       1.0000 0.33020  0.57370  0.18030  Biso   1.000  H
  H5       1.0000 0.60800  0.55250  0.88320  Biso   1.000  H
  H6       1.0000 0.39200  0.44750  0.11680  Biso   1.000  H
  H7       1.0000 0.51090  0.39360  0.86670  Biso   1.000  H
  H8       1.0000 0.48910  0.60640  0.13330  Biso   1.000  H
  C5       1.0000 0.79350  0.54750  0.03360  Biso   1.000  C
  C6       1.0000 0.20650  0.45250  0.96640  Biso   1.000  C
  H9       1.0000 0.80710  0.53510  0.10810  Biso   1.000  H
  H10      1.0000 0.19290  0.46490  0.89190  Biso   1.000  H
  H11      1.0000 0.75960  0.63580  0.02920  Biso   1.000  H
  H12      1.0000 0.24040  0.36420  0.97080  Biso   1.000  H
  H13      1.0000 0.88800  0.55200  0.00110  Biso   1.000  H
  H14      1.0000 0.11200  0.44800  0.99890  Biso   1.000  H
  C7       1.0000 0.84510  0.10010  0.83370  Biso   1.000  C
  C8       1.0000 0.15490  0.89990  0.16630  Biso   1.000  C
  H15      1.0000 0.77090  0.02130  0.84540  Biso   1.000  H
  H16      1.0000 0.22910  0.97870  0.15460  Biso   1.000  H
  C9       1.0000 0.67720  0.12110  0.68440  Biso   1.000  C
  C10      1.0000 0.32280  0.87890  0.31560  Biso   1.000  C
  H17      1.0000 0.61060  0.04630  0.71390  Biso   1.000  H
  H18      1.0000 0.38940  0.95370  0.28610  Biso   1.000  H
  H19      1.0000 0.69990  0.08380  0.61350  Biso   1.000  H
  H20      1.0000 0.30010  0.91620  0.38650  Biso   1.000  H
  H21      1.0000 0.62910  0.20130  0.68000  Biso   1.000  H
  H22      1.0000 0.37090  0.79870  0.32000  Biso   1.000  H
  C11      1.0000 0.92750  0.29240  0.72920  Biso   1.000  C
  C12      1.0000 0.07250  0.70760  0.27080  Biso   1.000  C
  H23      1.0000 0.89660  0.38070  0.75480  Biso   1.000  H
  H24      1.0000 0.10340  0.61930  0.24520  Biso   1.000  H
  H25      1.0000 0.93410  0.28440  0.65250  Biso   1.000  H
  H26      1.0000 0.06590  0.71560  0.34750  Biso   1.000  H
  H27      1.0000 0.02470  0.29340  0.76390  Biso   1.000  H
  H28      1.0000 0.97530  0.70660  0.23610  Biso   1.000  H
  C13      1.0000 0.73820  0.03170  0.13970  Biso   1.000  C
  C14      1.0000 0.26180  0.96830  0.86030  Biso   1.000  C
  C15      1.0000 0.82030  0.03120  0.24660  Biso   1.000  C
  C16      1.0000 0.17970  0.96880  0.75340  Biso   1.000  C
  C17      1.0000 0.75470  0.92900  0.30930  Biso   1.000  C
  C18      1.0000 0.24530  0.07100  0.69070  Biso   1.000  C
  H29      1.0000 0.66210  0.86760  0.28490  Biso   1.000  H
  H30      1.0000 0.33790  0.13240  0.71510  Biso   1.000  H
  C19      1.0000 0.82420  0.91650  0.40770  Biso   1.000  C
  C20      1.0000 0.17580  0.08350  0.59230  Biso   1.000  C
  H31      1.0000 0.77830  0.84630  0.44770  Biso   1.000  H
  H32      1.0000 0.22170  0.15370  0.55230  Biso   1.000  H
  C21      1.0000 0.96110  0.00730  0.44700  Biso   1.000  C
  C22      1.0000 0.03890  0.99270  0.55300  Biso   1.000  C
  C23      1.0000 0.02500  0.11180  0.38600  Biso   1.000  C
  C24      1.0000 0.97500  0.88820  0.61400  Biso   1.000  C
  H33      1.0000 0.11540  0.17560  0.41220  Biso   1.000  H
  H34      1.0000 0.88460  0.82440  0.58780  Biso   1.000  H
  C25      1.0000 0.95710  0.12400  0.28610  Biso   1.000  C
  C26      1.0000 0.04290  0.87600  0.71390  Biso   1.000  C
  O15      1.0000 0.43980  0.36170  0.62110  Biso   1.000  O
  O16      1.0000 0.56020  0.63830  0.37890  Biso   1.000  O
  N5       1.0000 0.38400  0.59510  0.60220  Biso   1.000  N
  N6       1.0000 0.61600  0.40490  0.39780  Biso   1.000  N
  C27      1.0000 0.46880  0.49870  0.62480  Biso   1.000  C
  C28      1.0000 0.53120  0.50130  0.37520  Biso   1.000  C
  H35      1.0000 0.56900  0.54210  0.64770  Biso   1.000  H
  H36      1.0000 0.43100  0.45790  0.35230  Biso   1.000  H
  C29      1.0000 0.22520  0.53810  0.56570  Biso   1.000  C
  C30      1.0000 0.77480  0.46190  0.43430  Biso   1.000  C
  H37      1.0000 0.21570  0.51300  0.48850  Biso   1.000  H
  H38      1.0000 0.78430  0.48700  0.51150  Biso   1.000  H
  H39      1.0000 0.16800  0.61050  0.58610  Biso   1.000  H
  H40      1.0000 0.83200  0.38950  0.41390  Biso   1.000  H
  H41      1.0000 0.18730  0.45330  0.59830  Biso   1.000  H
  H42      1.0000 0.81270  0.54670  0.40170  Biso   1.000  H
  C31      1.0000 0.46010  0.74570  0.61670  Biso   1.000  C
  C32      1.0000 0.53990  0.25430  0.38330  Biso   1.000  C
  H43      1.0000 0.54270  0.76170  0.67090  Biso   1.000  H
  H44      1.0000 0.45730  0.23830  0.32910  Biso   1.000  H
  H45      1.0000 0.39040  0.80530  0.63920  Biso   1.000  H
  H46      1.0000 0.60960  0.19470  0.36080  Biso   1.000  H
  H47      1.0000 0.49830  0.77040  0.54980  Biso   1.000  H
  H48      1.0000 0.50170  0.22960  0.45020  Biso   1.000  H
