data_image0
_cell_length_a       11.499
_cell_length_b       7.502
_cell_length_c       7.402
_cell_angle_alpha    90
_cell_angle_beta     93.892
_cell_angle_gamma    90

_symmetry_space_group_name_H-M    "P 1"
_symmetry_int_tables_number       1

loop_
  _symmetry_equiv_pos_as_xyz
  'x, y, z'

loop_
  _atom_site_label
  _atom_site_occupancy
  _atom_site_fract_x
  _atom_site_fract_y
  _atom_site_fract_z
  _atom_site_thermal_displace_type
  _atom_site_B_iso_or_equiv
  _atom_site_type_symbol
  Cu1      1.0000 0.25000  0.75000  0.00000  Biso   1.000  Cu
  Cu2      1.0000 0.75000  0.25000  0.00000  Biso   1.000  Cu
  Cu3      1.0000 0.75000  0.75000  0.50000  Biso   1.000  Cu
  Cu4      1.0000 0.25000  0.25000  0.50000  Biso   1.000  Cu
  O1       1.0000 0.26990  0.50410  0.07530  Biso   1.000  O
  O2       1.0000 0.76990  0.00410  0.07530  Biso   1.000  O
  O3       1.0000 0.73010  0.50410  0.42470  Biso   1.000  O
  O4       1.0000 0.23010  0.00410  0.42470  Biso   1.000  O
  O5       1.0000 0.73010  0.49590  0.92470  Biso   1.000  O
  O6       1.0000 0.23010  0.99590  0.92470  Biso   1.000  O
  O7       1.0000 0.26990  0.49590  0.57530  Biso   1.000  O
  O8       1.0000 0.76990  0.99590  0.57530  Biso   1.000  O
  O9       1.0000 0.37960  0.33130  0.26330  Biso   1.000  O
  O10      1.0000 0.87960  0.83130  0.26330  Biso   1.000  O
  O11      1.0000 0.62040  0.33130  0.23670  Biso   1.000  O
  O12      1.0000 0.12040  0.83130  0.23670  Biso   1.000  O
  O13      1.0000 0.62040  0.66870  0.73670  Biso   1.000  O
  O14      1.0000 0.12040  0.16870  0.73670  Biso   1.000  O
  O15      1.0000 0.37960  0.66870  0.76330  Biso   1.000  O
  O16      1.0000 0.87960  0.16870  0.76330  Biso   1.000  O
  N1       1.0000 0.39530  0.78400  0.15580  Biso   1.000  N
  N2       1.0000 0.89530  0.28400  0.15580  Biso   1.000  N
  N3       1.0000 0.60470  0.78400  0.34420  Biso   1.000  N
  N4       1.0000 0.10470  0.28400  0.34420  Biso   1.000  N
  N5       1.0000 0.60470  0.21600  0.84420  Biso   1.000  N
  N6       1.0000 0.10470  0.71600  0.84420  Biso   1.000  N
  N7       1.0000 0.39530  0.21600  0.65580  Biso   1.000  N
  N8       1.0000 0.89530  0.71600  0.65580  Biso   1.000  N
  C1       1.0000 0.44730  0.93730  0.19950  Biso   1.000  C
  C2       1.0000 0.94730  0.43730  0.19950  Biso   1.000  C
  C3       1.0000 0.55270  0.93730  0.30050  Biso   1.000  C
  C4       1.0000 0.05270  0.43730  0.30050  Biso   1.000  C
  C5       1.0000 0.55270  0.06270  0.80050  Biso   1.000  C
  C6       1.0000 0.05270  0.56270  0.80050  Biso   1.000  C
  C7       1.0000 0.44730  0.06270  0.69950  Biso   1.000  C
  C8       1.0000 0.94730  0.56270  0.69950  Biso   1.000  C
  H1       1.0000 0.41290  0.04450  0.16220  Biso   1.000  H
  H2       1.0000 0.91290  0.54450  0.16220  Biso   1.000  H
  H3       1.0000 0.58710  0.04450  0.33780  Biso   1.000  H
  H4       1.0000 0.08710  0.54450  0.33780  Biso   1.000  H
  H5       1.0000 0.58710  0.95550  0.83780  Biso   1.000  H
  H6       1.0000 0.08710  0.45550  0.83780  Biso   1.000  H
  H7       1.0000 0.41290  0.95550  0.66220  Biso   1.000  H
  H8       1.0000 0.91290  0.45550  0.66220  Biso   1.000  H
  C9       1.0000 0.44350  0.62790  0.20850  Biso   1.000  C
  C10      1.0000 0.94350  0.12790  0.20850  Biso   1.000  C
  C11      1.0000 0.55650  0.62790  0.29150  Biso   1.000  C
  C12      1.0000 0.05650  0.12790  0.29150  Biso   1.000  C
  C13      1.0000 0.55650  0.37210  0.79150  Biso   1.000  C
  C14      1.0000 0.05650  0.87210  0.79150  Biso   1.000  C
  C15      1.0000 0.44350  0.37210  0.70850  Biso   1.000  C
  C16      1.0000 0.94350  0.87210  0.70850  Biso   1.000  C
  C17      1.0000 0.35970  0.46990  0.17950  Biso   1.000  C
  C18      1.0000 0.85970  0.96990  0.17950  Biso   1.000  C
  C19      1.0000 0.64030  0.46990  0.32050  Biso   1.000  C
  C20      1.0000 0.14030  0.96990  0.32050  Biso   1.000  C
  C21      1.0000 0.64030  0.53010  0.82050  Biso   1.000  C
  C22      1.0000 0.14030  0.03010  0.82050  Biso   1.000  C
  C23      1.0000 0.35970  0.53010  0.67950  Biso   1.000  C
  C24      1.0000 0.85970  0.03010  0.67950  Biso   1.000  C
