data_image0
_cell_length_a       17.615
_cell_length_b       15.56
_cell_length_c       19.211
_cell_angle_alpha    90
_cell_angle_beta     115.087
_cell_angle_gamma    90

_symmetry_space_group_name_H-M    "P 1"
_symmetry_int_tables_number       1

loop_
  _symmetry_equiv_pos_as_xyz
  'x, y, z'

loop_
  _atom_site_label
  _atom_site_occupancy
  _atom_site_fract_x
  _atom_site_fract_y
  _atom_site_fract_z
  _atom_site_thermal_displace_type
  _atom_site_B_iso_or_equiv
  _atom_site_type_symbol
  Cu1      1.0000 0.50000  0.87673  0.75000  Biso   1.000  Cu
  Cu2      1.0000 0.00000  0.37673  0.75000  Biso   1.000  Cu
  Cu3      1.0000 0.50000  0.12327  0.25000  Biso   1.000  Cu
  Cu4      1.0000 0.00000  0.62327  0.25000  Biso   1.000  Cu
  O1       1.0000 0.39878  0.52255  0.50850  Biso   1.000  O
  O2       1.0000 0.60122  0.52255  0.99150  Biso   1.000  O
  O3       1.0000 0.89878  0.02255  0.50850  Biso   1.000  O
  O4       1.0000 0.10122  0.02255  0.99150  Biso   1.000  O
  O5       1.0000 0.60122  0.47745  0.49150  Biso   1.000  O
  O6       1.0000 0.39878  0.47745  0.00850  Biso   1.000  O
  O7       1.0000 0.10122  0.97745  0.49150  Biso   1.000  O
  O8       1.0000 0.89878  0.97745  0.00850  Biso   1.000  O
  O9       1.0000 0.34640  0.22429  0.50012  Biso   1.000  O
  O10      1.0000 0.65360  0.22429  0.99988  Biso   1.000  O
  O11      1.0000 0.84640  0.72429  0.50012  Biso   1.000  O
  O12      1.0000 0.15360  0.72429  0.99988  Biso   1.000  O
  O13      1.0000 0.65360  0.77571  0.49988  Biso   1.000  O
  O14      1.0000 0.34640  0.77571  0.00012  Biso   1.000  O
  O15      1.0000 0.15360  0.27571  0.49988  Biso   1.000  O
  O16      1.0000 0.84640  0.27571  0.00012  Biso   1.000  O
  C1       1.0000 0.36680  0.44910  0.46310  Biso   1.000  C
  C2       1.0000 0.63320  0.44910  0.03690  Biso   1.000  C
  C3       1.0000 0.86680  0.94910  0.46310  Biso   1.000  C
  C4       1.0000 0.13320  0.94910  0.03690  Biso   1.000  C
  C5       1.0000 0.63320  0.55090  0.53690  Biso   1.000  C
  C6       1.0000 0.36680  0.55090  0.96310  Biso   1.000  C
  C7       1.0000 0.13320  0.05090  0.53690  Biso   1.000  C
  C8       1.0000 0.86680  0.05090  0.96310  Biso   1.000  C
  C9       1.0000 0.37240  0.37260  0.50220  Biso   1.000  C
  C10      1.0000 0.62760  0.37260  0.99780  Biso   1.000  C
  C11      1.0000 0.87240  0.87260  0.50220  Biso   1.000  C
  C12      1.0000 0.12760  0.87260  0.99780  Biso   1.000  C
  C13      1.0000 0.62760  0.62740  0.49780  Biso   1.000  C
  C14      1.0000 0.37240  0.62740  0.00220  Biso   1.000  C
  C15      1.0000 0.12760  0.12740  0.49780  Biso   1.000  C
  C16      1.0000 0.87240  0.12740  0.00220  Biso   1.000  C
  H1       1.0000 0.39570  0.37090  0.55560  Biso   1.000  H
  H2       1.0000 0.60430  0.37090  0.94440  Biso   1.000  H
  H3       1.0000 0.89570  0.87090  0.55560  Biso   1.000  H
  H4       1.0000 0.10430  0.87090  0.94440  Biso   1.000  H
  H5       1.0000 0.60430  0.62910  0.44440  Biso   1.000  H
  H6       1.0000 0.39570  0.62910  0.05560  Biso   1.000  H
  H7       1.0000 0.10430  0.12910  0.44440  Biso   1.000  H
  H8       1.0000 0.89570  0.12910  0.05560  Biso   1.000  H
  C17      1.0000 0.34210  0.29960  0.45900  Biso   1.000  C
  C18      1.0000 0.65790  0.29960  0.04100  Biso   1.000  C
  C19      1.0000 0.84210  0.79960  0.45900  Biso   1.000  C
  C20      1.0000 0.15790  0.79960  0.04100  Biso   1.000  C
  C21      1.0000 0.65790  0.70040  0.54100  Biso   1.000  C
  C22      1.0000 0.34210  0.70040  0.95900  Biso   1.000  C
  C23      1.0000 0.15790  0.20040  0.54100  Biso   1.000  C
  C24      1.0000 0.84210  0.20040  0.95900  Biso   1.000  C
  C25      1.0000 0.30490  0.30180  0.37920  Biso   1.000  C
  C26      1.0000 0.69510  0.30180  0.12080  Biso   1.000  C
  C27      1.0000 0.80490  0.80180  0.37920  Biso   1.000  C
  C28      1.0000 0.19510  0.80180  0.12080  Biso   1.000  C
  C29      1.0000 0.69510  0.69820  0.62080  Biso   1.000  C
  C30      1.0000 0.30490  0.69820  0.87920  Biso   1.000  C
  C31      1.0000 0.19510  0.19820  0.62080  Biso   1.000  C
  C32      1.0000 0.80490  0.19820  0.87920  Biso   1.000  C
  H9       1.0000 0.28290  0.25230  0.35070  Biso   1.000  H
  H10      1.0000 0.71710  0.25230  0.14930  Biso   1.000  H
  H11      1.0000 0.78290  0.75230  0.35070  Biso   1.000  H
  H12      1.0000 0.21710  0.75230  0.14930  Biso   1.000  H
  H13      1.0000 0.71710  0.74770  0.64930  Biso   1.000  H
  H14      1.0000 0.28290  0.74770  0.85070  Biso   1.000  H
  H15      1.0000 0.21710  0.24770  0.64930  Biso   1.000  H
  H16      1.0000 0.78290  0.24770  0.85070  Biso   1.000  H
  C33      1.0000 0.30150  0.37980  0.34320  Biso   1.000  C
  C34      1.0000 0.69850  0.37980  0.15680  Biso   1.000  C
  C35      1.0000 0.80150  0.87980  0.34320  Biso   1.000  C
  C36      1.0000 0.19850  0.87980  0.15680  Biso   1.000  C
  C37      1.0000 0.69850  0.62020  0.65680  Biso   1.000  C
  C38      1.0000 0.30150  0.62020  0.84320  Biso   1.000  C
  C39      1.0000 0.19850  0.12020  0.65680  Biso   1.000  C
  C40      1.0000 0.80150  0.12020  0.84320  Biso   1.000  C
  H17      1.0000 0.27790  0.38170  0.28980  Biso   1.000  H
  H18      1.0000 0.72210  0.38170  0.21020  Biso   1.000  H
  H19      1.0000 0.77790  0.88170  0.28980  Biso   1.000  H
  H20      1.0000 0.22210  0.88170  0.21020  Biso   1.000  H
  H21      1.0000 0.72210  0.61830  0.71020  Biso   1.000  H
  H22      1.0000 0.27790  0.61830  0.78980  Biso   1.000  H
  H23      1.0000 0.22210  0.11830  0.71020  Biso   1.000  H
  H24      1.0000 0.77790  0.11830  0.78980  Biso   1.000  H
  C41      1.0000 0.33180  0.45390  0.38360  Biso   1.000  C
  C42      1.0000 0.66820  0.45390  0.11640  Biso   1.000  C
  C43      1.0000 0.83180  0.95390  0.38360  Biso   1.000  C
  C44      1.0000 0.16820  0.95390  0.11640  Biso   1.000  C
  C45      1.0000 0.66820  0.54610  0.61640  Biso   1.000  C
  C46      1.0000 0.33180  0.54610  0.88360  Biso   1.000  C
  C47      1.0000 0.16820  0.04610  0.61640  Biso   1.000  C
  C48      1.0000 0.83180  0.04610  0.88360  Biso   1.000  C
  H25      1.0000 0.32900  0.50580  0.35860  Biso   1.000  H
  H26      1.0000 0.67100  0.50580  0.14140  Biso   1.000  H
  H27      1.0000 0.82900  0.00580  0.35860  Biso   1.000  H
  H28      1.0000 0.17100  0.00580  0.14140  Biso   1.000  H
  H29      1.0000 0.67100  0.49420  0.64140  Biso   1.000  H
  H30      1.0000 0.32900  0.49420  0.85860  Biso   1.000  H
  H31      1.0000 0.17100  0.99420  0.64140  Biso   1.000  H
  H32      1.0000 0.82900  0.99420  0.85860  Biso   1.000  H
  O17      1.0000 0.26880  0.57020  0.47690  Biso   1.000  O
  O18      1.0000 0.73120  0.57020  0.02310  Biso   1.000  O
  O19      1.0000 0.76880  0.07020  0.47690  Biso   1.000  O
  O20      1.0000 0.23120  0.07020  0.02310  Biso   1.000  O
  O21      1.0000 0.73120  0.42980  0.52310  Biso   1.000  O
  O22      1.0000 0.26880  0.42980  0.97690  Biso   1.000  O
  O23      1.0000 0.23120  0.92980  0.52310  Biso   1.000  O
  O24      1.0000 0.76880  0.92980  0.97690  Biso   1.000  O
  N1       1.0000 0.45050  0.78222  0.67130  Biso   1.000  N
  N2       1.0000 0.54950  0.78222  0.82870  Biso   1.000  N
  N3       1.0000 0.95050  0.28222  0.67130  Biso   1.000  N
  N4       1.0000 0.04950  0.28222  0.82870  Biso   1.000  N
  N5       1.0000 0.54950  0.21778  0.32870  Biso   1.000  N
  N6       1.0000 0.45050  0.21778  0.17130  Biso   1.000  N
  N7       1.0000 0.04950  0.71778  0.32870  Biso   1.000  N
  N8       1.0000 0.95050  0.71778  0.17130  Biso   1.000  N
  C49      1.0000 0.36760  0.77010  0.63520  Biso   1.000  C
  C50      1.0000 0.63240  0.77010  0.86480  Biso   1.000  C
  C51      1.0000 0.86760  0.27010  0.63520  Biso   1.000  C
  C52      1.0000 0.13240  0.27010  0.86480  Biso   1.000  C
  C53      1.0000 0.63240  0.22990  0.36480  Biso   1.000  C
  C54      1.0000 0.36760  0.22990  0.13520  Biso   1.000  C
  C55      1.0000 0.13240  0.72990  0.36480  Biso   1.000  C
  C56      1.0000 0.86760  0.72990  0.13520  Biso   1.000  C
  H33      1.0000 0.33240  0.80810  0.64490  Biso   1.000  H
  H34      1.0000 0.66760  0.80810  0.85510  Biso   1.000  H
  H35      1.0000 0.83240  0.30810  0.64490  Biso   1.000  H
  H36      1.0000 0.16760  0.30810  0.85510  Biso   1.000  H
  H37      1.0000 0.66760  0.19190  0.35510  Biso   1.000  H
  H38      1.0000 0.33240  0.19190  0.14490  Biso   1.000  H
  H39      1.0000 0.16760  0.69190  0.35510  Biso   1.000  H
  H40      1.0000 0.83240  0.69190  0.14490  Biso   1.000  H
  C57      1.0000 0.33250  0.70410  0.58480  Biso   1.000  C
  C58      1.0000 0.66750  0.70410  0.91520  Biso   1.000  C
  C59      1.0000 0.83250  0.20410  0.58480  Biso   1.000  C
  C60      1.0000 0.16750  0.20410  0.91520  Biso   1.000  C
  C61      1.0000 0.66750  0.29590  0.41520  Biso   1.000  C
  C62      1.0000 0.33250  0.29590  0.08480  Biso   1.000  C
  C63      1.0000 0.16750  0.79590  0.41520  Biso   1.000  C
  C64      1.0000 0.83250  0.79590  0.08480  Biso   1.000  C
  H41      1.0000 0.27470  0.69640  0.56250  Biso   1.000  H
  H42      1.0000 0.72530  0.69640  0.93750  Biso   1.000  H
  H43      1.0000 0.77470  0.19640  0.56250  Biso   1.000  H
  H44      1.0000 0.22530  0.19640  0.93750  Biso   1.000  H
  H45      1.0000 0.72530  0.30360  0.43750  Biso   1.000  H
  H46      1.0000 0.27470  0.30360  0.06250  Biso   1.000  H
  H47      1.0000 0.22530  0.80360  0.43750  Biso   1.000  H
  H48      1.0000 0.77470  0.80360  0.06250  Biso   1.000  H
  C65      1.0000 0.38210  0.64990  0.56720  Biso   1.000  C
  C66      1.0000 0.61790  0.64990  0.93280  Biso   1.000  C
  C67      1.0000 0.88210  0.14990  0.56720  Biso   1.000  C
  C68      1.0000 0.11790  0.14990  0.93280  Biso   1.000  C
  C69      1.0000 0.61790  0.35010  0.43280  Biso   1.000  C
  C70      1.0000 0.38210  0.35010  0.06720  Biso   1.000  C
  C71      1.0000 0.11790  0.85010  0.43280  Biso   1.000  C
  C72      1.0000 0.88210  0.85010  0.06720  Biso   1.000  C
  C73      1.0000 0.46760  0.66170  0.60180  Biso   1.000  C
  C74      1.0000 0.53240  0.66170  0.89820  Biso   1.000  C
  C75      1.0000 0.96760  0.16170  0.60180  Biso   1.000  C
  C76      1.0000 0.03240  0.16170  0.89820  Biso   1.000  C
  C77      1.0000 0.53240  0.33830  0.39820  Biso   1.000  C
  C78      1.0000 0.46760  0.33830  0.10180  Biso   1.000  C
  C79      1.0000 0.03240  0.83830  0.39820  Biso   1.000  C
  C80      1.0000 0.96760  0.83830  0.10180  Biso   1.000  C
  H49      1.0000 0.50290  0.62590  0.59020  Biso   1.000  H
  H50      1.0000 0.49710  0.62590  0.90980  Biso   1.000  H
  H51      1.0000 0.00290  0.12590  0.59020  Biso   1.000  H
  H52      1.0000 0.99710  0.12590  0.90980  Biso   1.000  H
  H53      1.0000 0.49710  0.37410  0.40980  Biso   1.000  H
  H54      1.0000 0.50290  0.37410  0.09020  Biso   1.000  H
  H55      1.0000 0.99710  0.87410  0.40980  Biso   1.000  H
  H56      1.0000 0.00290  0.87410  0.09020  Biso   1.000  H
  C81      1.0000 0.50000  0.72820  0.65460  Biso   1.000  C
  C82      1.0000 0.50000  0.72820  0.84540  Biso   1.000  C
  C83      1.0000 0.00000  0.22820  0.65460  Biso   1.000  C
  C84      1.0000 0.00000  0.22820  0.84540  Biso   1.000  C
  C85      1.0000 0.50000  0.27180  0.34540  Biso   1.000  C
  C86      1.0000 0.50000  0.27180  0.15460  Biso   1.000  C
  C87      1.0000 0.00000  0.77180  0.34540  Biso   1.000  C
  C88      1.0000 0.00000  0.77180  0.15460  Biso   1.000  C
  H57      1.0000 0.55780  0.73560  0.67910  Biso   1.000  H
  H58      1.0000 0.44220  0.73560  0.82090  Biso   1.000  H
  H59      1.0000 0.05780  0.23560  0.67910  Biso   1.000  H
  H60      1.0000 0.94220  0.23560  0.82090  Biso   1.000  H
  H61      1.0000 0.44220  0.26440  0.32090  Biso   1.000  H
  H62      1.0000 0.55780  0.26440  0.17910  Biso   1.000  H
  H63      1.0000 0.94220  0.76440  0.32090  Biso   1.000  H
  H64      1.0000 0.05780  0.76440  0.17910  Biso   1.000  H
  C89      1.0000 0.34200  0.57800  0.51170  Biso   1.000  C
  C90      1.0000 0.65800  0.57800  0.98830  Biso   1.000  C
  C91      1.0000 0.84200  0.07800  0.51170  Biso   1.000  C
  C92      1.0000 0.15800  0.07800  0.98830  Biso   1.000  C
  C93      1.0000 0.65800  0.42200  0.48830  Biso   1.000  C
  C94      1.0000 0.34200  0.42200  0.01170  Biso   1.000  C
  C95      1.0000 0.15800  0.92200  0.48830  Biso   1.000  C
  C96      1.0000 0.84200  0.92200  0.01170  Biso   1.000  C
  O25      1.0000 0.39520  0.14370  0.43390  Biso   1.000  O
  O26      1.0000 0.60480  0.14370  0.06610  Biso   1.000  O
  O27      1.0000 0.89520  0.64370  0.43390  Biso   1.000  O
  O28      1.0000 0.10480  0.64370  0.06610  Biso   1.000  O
  O29      1.0000 0.60480  0.85630  0.56610  Biso   1.000  O
  O30      1.0000 0.39520  0.85630  0.93390  Biso   1.000  O
  O31      1.0000 0.10480  0.35630  0.56610  Biso   1.000  O
  O32      1.0000 0.89520  0.35630  0.93390  Biso   1.000  O
  N9       1.0000 0.44680  0.96560  0.66470  Biso   1.000  N
  N10      1.0000 0.55320  0.96560  0.83530  Biso   1.000  N
  N11      1.0000 0.94680  0.46560  0.66470  Biso   1.000  N
  N12      1.0000 0.05320  0.46560  0.83530  Biso   1.000  N
  N13      1.0000 0.55320  0.03440  0.33530  Biso   1.000  N
  N14      1.0000 0.44680  0.03440  0.16470  Biso   1.000  N
  N15      1.0000 0.05320  0.53440  0.33530  Biso   1.000  N
  N16      1.0000 0.94680  0.53440  0.16470  Biso   1.000  N
  C97      1.0000 0.45000  0.94900  0.59610  Biso   1.000  C
  C98      1.0000 0.55000  0.94900  0.90390  Biso   1.000  C
  C99      1.0000 0.95000  0.44900  0.59610  Biso   1.000  C
  C100     1.0000 0.05000  0.44900  0.90390  Biso   1.000  C
  C101     1.0000 0.55000  0.05100  0.40390  Biso   1.000  C
  C102     1.0000 0.45000  0.05100  0.09610  Biso   1.000  C
  C103     1.0000 0.05000  0.55100  0.40390  Biso   1.000  C
  C104     1.0000 0.95000  0.55100  0.09610  Biso   1.000  C
  H65      1.0000 0.47170  0.89660  0.58960  Biso   1.000  H
  H66      1.0000 0.52830  0.89660  0.91040  Biso   1.000  H
  H67      1.0000 0.97170  0.39660  0.58960  Biso   1.000  H
  H68      1.0000 0.02830  0.39660  0.91040  Biso   1.000  H
  H69      1.0000 0.52830  0.10340  0.41040  Biso   1.000  H
  H70      1.0000 0.47170  0.10340  0.08960  Biso   1.000  H
  H71      1.0000 0.02830  0.60340  0.41040  Biso   1.000  H
  H72      1.0000 0.97170  0.60340  0.08960  Biso   1.000  H
  C105     1.0000 0.42200  0.00730  0.53610  Biso   1.000  C
  C106     1.0000 0.57800  0.00730  0.96390  Biso   1.000  C
  C107     1.0000 0.92200  0.50730  0.53610  Biso   1.000  C
  C108     1.0000 0.07800  0.50730  0.96390  Biso   1.000  C
  C109     1.0000 0.57800  0.99270  0.46390  Biso   1.000  C
  C110     1.0000 0.42200  0.99270  0.03610  Biso   1.000  C
  C111     1.0000 0.07800  0.49270  0.46390  Biso   1.000  C
  C112     1.0000 0.92200  0.49270  0.03610  Biso   1.000  C
  H73      1.0000 0.42120  0.99390  0.48860  Biso   1.000  H
  H74      1.0000 0.57880  0.99390  0.01140  Biso   1.000  H
  H75      1.0000 0.92120  0.49390  0.48860  Biso   1.000  H
  H76      1.0000 0.07880  0.49390  0.01140  Biso   1.000  H
  H77      1.0000 0.57880  0.00610  0.51140  Biso   1.000  H
  H78      1.0000 0.42120  0.00610  0.98860  Biso   1.000  H
  H79      1.0000 0.07880  0.50610  0.51140  Biso   1.000  H
  H80      1.0000 0.92120  0.50610  0.98860  Biso   1.000  H
  C113     1.0000 0.39590  0.08480  0.54970  Biso   1.000  C
  C114     1.0000 0.60410  0.08480  0.95030  Biso   1.000  C
  C115     1.0000 0.89590  0.58480  0.54970  Biso   1.000  C
  C116     1.0000 0.10410  0.58480  0.95030  Biso   1.000  C
  C117     1.0000 0.60410  0.91520  0.45030  Biso   1.000  C
  C118     1.0000 0.39590  0.91520  0.04970  Biso   1.000  C
  C119     1.0000 0.10410  0.41520  0.45030  Biso   1.000  C
  C120     1.0000 0.89590  0.41520  0.04970  Biso   1.000  C
  C121     1.0000 0.38830  0.10270  0.61490  Biso   1.000  C
  C122     1.0000 0.61170  0.10270  0.88510  Biso   1.000  C
  C123     1.0000 0.88830  0.60270  0.61490  Biso   1.000  C
  C124     1.0000 0.11170  0.60270  0.88510  Biso   1.000  C
  C125     1.0000 0.61170  0.89730  0.38510  Biso   1.000  C
  C126     1.0000 0.38830  0.89730  0.11490  Biso   1.000  C
  C127     1.0000 0.11170  0.39730  0.38510  Biso   1.000  C
  C128     1.0000 0.88830  0.39730  0.11490  Biso   1.000  C
  H81      1.0000 0.36710  0.15520  0.62170  Biso   1.000  H
  H82      1.0000 0.63290  0.15520  0.87830  Biso   1.000  H
  H83      1.0000 0.86710  0.65520  0.62170  Biso   1.000  H
  H84      1.0000 0.13290  0.65520  0.87830  Biso   1.000  H
  H85      1.0000 0.63290  0.84480  0.37830  Biso   1.000  H
  H86      1.0000 0.36710  0.84480  0.12170  Biso   1.000  H
  H87      1.0000 0.13290  0.34480  0.37830  Biso   1.000  H
  H88      1.0000 0.86710  0.34480  0.12170  Biso   1.000  H
  C129     1.0000 0.41360  0.03900  0.67270  Biso   1.000  C
  C130     1.0000 0.58640  0.03900  0.82730  Biso   1.000  C
  C131     1.0000 0.91360  0.53900  0.67270  Biso   1.000  C
  C132     1.0000 0.08640  0.53900  0.82730  Biso   1.000  C
  C133     1.0000 0.58640  0.96100  0.32730  Biso   1.000  C
  C134     1.0000 0.41360  0.96100  0.17270  Biso   1.000  C
  C135     1.0000 0.08640  0.46100  0.32730  Biso   1.000  C
  C136     1.0000 0.91360  0.46100  0.17270  Biso   1.000  C
  H89      1.0000 0.40680  0.04890  0.71740  Biso   1.000  H
  H90      1.0000 0.59320  0.04890  0.78260  Biso   1.000  H
  H91      1.0000 0.90680  0.54890  0.71740  Biso   1.000  H
  H92      1.0000 0.09320  0.54890  0.78260  Biso   1.000  H
  H93      1.0000 0.59320  0.95110  0.28260  Biso   1.000  H
  H94      1.0000 0.40680  0.95110  0.21740  Biso   1.000  H
  H95      1.0000 0.09320  0.45110  0.28260  Biso   1.000  H
  H96      1.0000 0.90680  0.45110  0.21740  Biso   1.000  H
  C137     1.0000 0.37760  0.15260  0.48780  Biso   1.000  C
  C138     1.0000 0.62240  0.15260  0.01220  Biso   1.000  C
  C139     1.0000 0.87760  0.65260  0.48780  Biso   1.000  C
  C140     1.0000 0.12240  0.65260  0.01220  Biso   1.000  C
  C141     1.0000 0.62240  0.84740  0.51220  Biso   1.000  C
  C142     1.0000 0.37760  0.84740  0.98780  Biso   1.000  C
  C143     1.0000 0.12240  0.34740  0.51220  Biso   1.000  C
  C144     1.0000 0.87760  0.34740  0.98780  Biso   1.000  C
  O33      1.0000 0.37310  0.88370  0.77790  Biso   1.000  O
  O34      1.0000 0.62690  0.88370  0.72210  Biso   1.000  O
  O35      1.0000 0.87310  0.38370  0.77790  Biso   1.000  O
  O36      1.0000 0.12690  0.38370  0.72210  Biso   1.000  O
  O37      1.0000 0.62690  0.11630  0.22210  Biso   1.000  O
  O38      1.0000 0.37310  0.11630  0.27790  Biso   1.000  O
  O39      1.0000 0.12690  0.61630  0.22210  Biso   1.000  O
  O40      1.0000 0.87310  0.61630  0.27790  Biso   1.000  O
  P1       1.0000 0.12356  0.72237  0.63376  Biso   1.000  P
  P2       1.0000 0.87644  0.72237  0.86624  Biso   1.000  P
  P3       1.0000 0.62356  0.22237  0.63376  Biso   1.000  P
  P4       1.0000 0.37644  0.22237  0.86624  Biso   1.000  P
  P5       1.0000 0.87644  0.27763  0.36624  Biso   1.000  P
  P6       1.0000 0.12356  0.27763  0.13376  Biso   1.000  P
  P7       1.0000 0.37644  0.77763  0.36624  Biso   1.000  P
  P8       1.0000 0.62356  0.77763  0.13376  Biso   1.000  P
  F1       1.0000 0.14170  0.74410  0.71920  Biso   1.000  F
  F2       1.0000 0.85830  0.74410  0.78080  Biso   1.000  F
  F3       1.0000 0.64170  0.24410  0.71920  Biso   1.000  F
  F4       1.0000 0.35830  0.24410  0.78080  Biso   1.000  F
  F5       1.0000 0.85830  0.25590  0.28080  Biso   1.000  F
  F6       1.0000 0.14170  0.25590  0.21920  Biso   1.000  F
  F7       1.0000 0.35830  0.75590  0.28080  Biso   1.000  F
  F8       1.0000 0.64170  0.75590  0.21920  Biso   1.000  F
  F9       1.0000 0.10700  0.62770  0.64890  Biso   1.000  F
  F10      1.0000 0.89300  0.62770  0.85110  Biso   1.000  F
  F11      1.0000 0.60700  0.12770  0.64890  Biso   1.000  F
  F12      1.0000 0.39300  0.12770  0.85110  Biso   1.000  F
  F13      1.0000 0.89300  0.37230  0.35110  Biso   1.000  F
  F14      1.0000 0.10700  0.37230  0.14890  Biso   1.000  F
  F15      1.0000 0.39300  0.87230  0.35110  Biso   1.000  F
  F16      1.0000 0.60700  0.87230  0.14890  Biso   1.000  F
  F17      1.0000 0.11960  0.69050  0.55120  Biso   1.000  F
  F18      1.0000 0.88040  0.69050  0.94880  Biso   1.000  F
  F19      1.0000 0.61960  0.19050  0.55120  Biso   1.000  F
  F20      1.0000 0.38040  0.19050  0.94880  Biso   1.000  F
  F21      1.0000 0.88040  0.30950  0.44880  Biso   1.000  F
  F22      1.0000 0.11960  0.30950  0.05120  Biso   1.000  F
  F23      1.0000 0.38040  0.80950  0.44880  Biso   1.000  F
  F24      1.0000 0.61960  0.80950  0.05120  Biso   1.000  F
  F25      1.0000 0.13520  0.81680  0.61930  Biso   1.000  F
  F26      1.0000 0.86480  0.81680  0.88070  Biso   1.000  F
  F27      1.0000 0.63520  0.31680  0.61930  Biso   1.000  F
  F28      1.0000 0.36480  0.31680  0.88070  Biso   1.000  F
  F29      1.0000 0.86480  0.18320  0.38070  Biso   1.000  F
  F30      1.0000 0.13520  0.18320  0.11930  Biso   1.000  F
  F31      1.0000 0.36480  0.68320  0.38070  Biso   1.000  F
  F32      1.0000 0.63520  0.68320  0.11930  Biso   1.000  F
  F33      1.0000 0.02170  0.74320  0.60650  Biso   1.000  F
  F34      1.0000 0.97830  0.74320  0.89350  Biso   1.000  F
  F35      1.0000 0.52170  0.24320  0.60650  Biso   1.000  F
  F36      1.0000 0.47830  0.24320  0.89350  Biso   1.000  F
  F37      1.0000 0.97830  0.25680  0.39350  Biso   1.000  F
  F38      1.0000 0.02170  0.25680  0.10650  Biso   1.000  F
  F39      1.0000 0.47830  0.75680  0.39350  Biso   1.000  F
  F40      1.0000 0.52170  0.75680  0.10650  Biso   1.000  F
  F41      1.0000 0.22000  0.70250  0.67540  Biso   1.000  F
  F42      1.0000 0.78000  0.70250  0.82460  Biso   1.000  F
  F43      1.0000 0.72000  0.20250  0.67540  Biso   1.000  F
  F44      1.0000 0.28000  0.20250  0.82460  Biso   1.000  F
  F45      1.0000 0.78000  0.29750  0.32460  Biso   1.000  F
  F46      1.0000 0.22000  0.29750  0.17540  Biso   1.000  F
  F47      1.0000 0.28000  0.79750  0.32460  Biso   1.000  F
  F48      1.0000 0.72000  0.79750  0.17540  Biso   1.000  F
  Cl1      1.0000 0.48170  0.35250  0.71410  Biso   1.000  Cl
  Cl2      1.0000 0.51830  0.35250  0.78590  Biso   1.000  Cl
  Cl3      1.0000 0.98170  0.85250  0.71410  Biso   1.000  Cl
  Cl4      1.0000 0.01830  0.85250  0.78590  Biso   1.000  Cl
  Cl5      1.0000 0.51830  0.64750  0.28590  Biso   1.000  Cl
  Cl6      1.0000 0.48170  0.64750  0.21410  Biso   1.000  Cl
  Cl7      1.0000 0.01830  0.14750  0.28590  Biso   1.000  Cl
  Cl8      1.0000 0.98170  0.14750  0.21410  Biso   1.000  Cl
  Cl9      1.0000 0.66920  0.44740  0.83300  Biso   1.000  Cl
  Cl10     1.0000 0.33080  0.44740  0.66700  Biso   1.000  Cl
  Cl11     1.0000 0.16920  0.94740  0.83300  Biso   1.000  Cl
  Cl12     1.0000 0.83080  0.94740  0.66700  Biso   1.000  Cl
  Cl13     1.0000 0.33080  0.55260  0.16700  Biso   1.000  Cl
  Cl14     1.0000 0.66920  0.55260  0.33300  Biso   1.000  Cl
  Cl15     1.0000 0.83080  0.05260  0.16700  Biso   1.000  Cl
  Cl16     1.0000 0.16920  0.05260  0.33300  Biso   1.000  Cl
  Cl17     1.0000 0.52240  0.51400  0.71700  Biso   1.000  Cl
  Cl18     1.0000 0.47760  0.51400  0.78300  Biso   1.000  Cl
  Cl19     1.0000 0.02240  0.01400  0.71700  Biso   1.000  Cl
  Cl20     1.0000 0.97760  0.01400  0.78300  Biso   1.000  Cl
  Cl21     1.0000 0.47760  0.48600  0.28300  Biso   1.000  Cl
  Cl22     1.0000 0.52240  0.48600  0.21700  Biso   1.000  Cl
  Cl23     1.0000 0.97760  0.98600  0.28300  Biso   1.000  Cl
  Cl24     1.0000 0.02240  0.98600  0.21700  Biso   1.000  Cl
  C145     1.0000 0.57080  0.42260  0.75830  Biso   1.000  C
  C146     1.0000 0.42920  0.42260  0.74170  Biso   1.000  C
  C147     1.0000 0.07080  0.92260  0.75830  Biso   1.000  C
  C148     1.0000 0.92920  0.92260  0.74170  Biso   1.000  C
  C149     1.0000 0.42920  0.57740  0.24170  Biso   1.000  C
  C150     1.0000 0.57080  0.57740  0.25830  Biso   1.000  C
  C151     1.0000 0.92920  0.07740  0.24170  Biso   1.000  C
  C152     1.0000 0.07080  0.07740  0.25830  Biso   1.000  C
  F49      1.0000 0.20020  0.66320  0.65250  Biso   1.000  F
  F50      1.0000 0.79980  0.66320  0.84750  Biso   1.000  F
  F51      1.0000 0.70020  0.16320  0.65250  Biso   1.000  F
  F52      1.0000 0.29980  0.16320  0.84750  Biso   1.000  F
  F53      1.0000 0.79980  0.33680  0.34750  Biso   1.000  F
  F54      1.0000 0.20020  0.33680  0.15250  Biso   1.000  F
  F55      1.0000 0.29980  0.83680  0.34750  Biso   1.000  F
  F56      1.0000 0.70020  0.83680  0.15250  Biso   1.000  F
  F57      1.0000 0.04410  0.76700  0.60650  Biso   1.000  F
  F58      1.0000 0.95590  0.76700  0.89350  Biso   1.000  F
  F59      1.0000 0.54410  0.26700  0.60650  Biso   1.000  F
  F60      1.0000 0.45590  0.26700  0.89350  Biso   1.000  F
  F61      1.0000 0.95590  0.23300  0.39350  Biso   1.000  F
  F62      1.0000 0.04410  0.23300  0.10650  Biso   1.000  F
  F63      1.0000 0.45590  0.73300  0.39350  Biso   1.000  F
  F64      1.0000 0.54410  0.73300  0.10650  Biso   1.000  F
  F65      1.0000 0.10300  0.66700  0.68500  Biso   1.000  F
  F66      1.0000 0.89700  0.66700  0.81500  Biso   1.000  F
  F67      1.0000 0.60300  0.16700  0.68500  Biso   1.000  F
  F68      1.0000 0.39700  0.16700  0.81500  Biso   1.000  F
  F69      1.0000 0.89700  0.33300  0.31500  Biso   1.000  F
  F70      1.0000 0.10300  0.33300  0.18500  Biso   1.000  F
  F71      1.0000 0.39700  0.83300  0.31500  Biso   1.000  F
  F72      1.0000 0.60300  0.83300  0.18500  Biso   1.000  F
  F73      1.0000 0.17400  0.77490  0.70060  Biso   1.000  F
  F74      1.0000 0.82600  0.77490  0.79940  Biso   1.000  F
  F75      1.0000 0.67400  0.27490  0.70060  Biso   1.000  F
  F76      1.0000 0.32600  0.27490  0.79940  Biso   1.000  F
  F77      1.0000 0.82600  0.22510  0.29940  Biso   1.000  F
  F78      1.0000 0.17400  0.22510  0.20060  Biso   1.000  F
  F79      1.0000 0.32600  0.72510  0.29940  Biso   1.000  F
  F80      1.0000 0.67400  0.72510  0.20060  Biso   1.000  F
  F81      1.0000 0.06700  0.68060  0.55230  Biso   1.000  F
  F82      1.0000 0.93300  0.68060  0.94770  Biso   1.000  F
  F83      1.0000 0.56700  0.18060  0.55230  Biso   1.000  F
  F84      1.0000 0.43300  0.18060  0.94770  Biso   1.000  F
  F85      1.0000 0.93300  0.31940  0.44770  Biso   1.000  F
  F86      1.0000 0.06700  0.31940  0.05230  Biso   1.000  F
  F87      1.0000 0.43300  0.81940  0.44770  Biso   1.000  F
  F88      1.0000 0.56700  0.81940  0.05230  Biso   1.000  F
  F89      1.0000 0.16210  0.78950  0.58950  Biso   1.000  F
  F90      1.0000 0.83790  0.78950  0.91050  Biso   1.000  F
  F91      1.0000 0.66210  0.28950  0.58950  Biso   1.000  F
  F92      1.0000 0.33790  0.28950  0.91050  Biso   1.000  F
  F93      1.0000 0.83790  0.21050  0.41050  Biso   1.000  F
  F94      1.0000 0.16210  0.21050  0.08950  Biso   1.000  F
  F95      1.0000 0.33790  0.71050  0.41050  Biso   1.000  F
  F96      1.0000 0.66210  0.71050  0.08950  Biso   1.000  F
