data_image0
_cell_length_a       12.8978
_cell_length_b       15.8015
_cell_length_c       7.3402
_cell_angle_alpha    90
_cell_angle_beta     105.963
_cell_angle_gamma    90

_symmetry_space_group_name_H-M    "P 1"
_symmetry_int_tables_number       1

loop_
  _symmetry_equiv_pos_as_xyz
  'x, y, z'

loop_
  _atom_site_label
  _atom_site_occupancy
  _atom_site_fract_x
  _atom_site_fract_y
  _atom_site_fract_z
  _atom_site_thermal_displace_type
  _atom_site_B_iso_or_equiv
  _atom_site_type_symbol
  Cu1      1.0000 0.00000  0.14878  0.75000  Biso   1.000  Cu
  Cu2      1.0000 0.00000  0.85122  0.25000  Biso   1.000  Cu
  Cu3      1.0000 0.50000  0.64878  0.75000  Biso   1.000  Cu
  Cu4      1.0000 0.50000  0.35122  0.25000  Biso   1.000  Cu
  O1       1.0000 0.00000  0.02650  0.75000  Biso   1.000  O
  O2       1.0000 0.00000  0.97350  0.25000  Biso   1.000  O
  O3       1.0000 0.50000  0.52650  0.75000  Biso   1.000  O
  O4       1.0000 0.50000  0.47350  0.25000  Biso   1.000  O
  O5       1.0000 0.33160  0.44350  0.51720  Biso   1.000  O
  O6       1.0000 0.33160  0.55650  0.01720  Biso   1.000  O
  O7       1.0000 0.83160  0.94350  0.51720  Biso   1.000  O
  O8       1.0000 0.83160  0.05650  0.01720  Biso   1.000  O
  O9       1.0000 0.66840  0.55650  0.48280  Biso   1.000  O
  O10      1.0000 0.66840  0.44350  0.98280  Biso   1.000  O
  O11      1.0000 0.16840  0.05650  0.48280  Biso   1.000  O
  O12      1.0000 0.16840  0.94350  0.98280  Biso   1.000  O
  O13      1.0000 0.17710  0.37770  0.36770  Biso   1.000  O
  O14      1.0000 0.17710  0.62230  0.86770  Biso   1.000  O
  O15      1.0000 0.67710  0.87770  0.36770  Biso   1.000  O
  O16      1.0000 0.67710  0.12230  0.86770  Biso   1.000  O
  O17      1.0000 0.82290  0.62230  0.63230  Biso   1.000  O
  O18      1.0000 0.82290  0.37770  0.13230  Biso   1.000  O
  O19      1.0000 0.32290  0.12230  0.63230  Biso   1.000  O
  O20      1.0000 0.32290  0.87770  0.13230  Biso   1.000  O
  N1       1.0000 0.10880  0.23420  0.68050  Biso   1.000  N
  N2       1.0000 0.10880  0.76580  0.18050  Biso   1.000  N
  N3       1.0000 0.60880  0.73420  0.68050  Biso   1.000  N
  N4       1.0000 0.60880  0.26580  0.18050  Biso   1.000  N
  N5       1.0000 0.89120  0.76580  0.31950  Biso   1.000  N
  N6       1.0000 0.89120  0.23420  0.81950  Biso   1.000  N
  N7       1.0000 0.39120  0.26580  0.31950  Biso   1.000  N
  N8       1.0000 0.39120  0.73420  0.81950  Biso   1.000  N
  N9       1.0000 0.40370  0.35200  0.99080  Biso   1.000  N
  N10      1.0000 0.40370  0.64800  0.49080  Biso   1.000  N
  N11      1.0000 0.90370  0.85200  0.99080  Biso   1.000  N
  N12      1.0000 0.90370  0.14800  0.49080  Biso   1.000  N
  N13      1.0000 0.59630  0.64800  0.00920  Biso   1.000  N
  N14      1.0000 0.59630  0.35200  0.50920  Biso   1.000  N
  N15      1.0000 0.09630  0.14800  0.00920  Biso   1.000  N
  N16      1.0000 0.09630  0.85200  0.50920  Biso   1.000  N
  C1       1.0000 0.17420  0.28250  0.67570  Biso   1.000  C
  C2       1.0000 0.17420  0.71750  0.17570  Biso   1.000  C
  C3       1.0000 0.67420  0.78250  0.67570  Biso   1.000  C
  C4       1.0000 0.67420  0.21750  0.17570  Biso   1.000  C
  C5       1.0000 0.82580  0.71750  0.32430  Biso   1.000  C
  C6       1.0000 0.82580  0.28250  0.82430  Biso   1.000  C
  C7       1.0000 0.32580  0.21750  0.32430  Biso   1.000  C
  C8       1.0000 0.32580  0.78250  0.82430  Biso   1.000  C
  C9       1.0000 0.33880  0.34830  0.84920  Biso   1.000  C
  C10      1.0000 0.33880  0.65170  0.34920  Biso   1.000  C
  C11      1.0000 0.83880  0.84830  0.84920  Biso   1.000  C
  C12      1.0000 0.83880  0.15170  0.34920  Biso   1.000  C
  C13      1.0000 0.66120  0.65170  0.15080  Biso   1.000  C
  C14      1.0000 0.66120  0.34830  0.65080  Biso   1.000  C
  C15      1.0000 0.16120  0.15170  0.15080  Biso   1.000  C
  C16      1.0000 0.16120  0.84830  0.65080  Biso   1.000  C
  C17      1.0000 0.25650  0.34170  0.67960  Biso   1.000  C
  C18      1.0000 0.25650  0.65830  0.17960  Biso   1.000  C
  C19      1.0000 0.75650  0.84170  0.67960  Biso   1.000  C
  C20      1.0000 0.75650  0.15830  0.17960  Biso   1.000  C
  C21      1.0000 0.74350  0.65830  0.32040  Biso   1.000  C
  C22      1.0000 0.74350  0.34170  0.82040  Biso   1.000  C
  C23      1.0000 0.24350  0.15830  0.32040  Biso   1.000  C
  C24      1.0000 0.24350  0.84170  0.82040  Biso   1.000  C
  C25      1.0000 0.26100  0.39240  0.51940  Biso   1.000  C
  C26      1.0000 0.26100  0.60760  0.01940  Biso   1.000  C
  C27      1.0000 0.76100  0.89240  0.51940  Biso   1.000  C
  C28      1.0000 0.76100  0.10760  0.01940  Biso   1.000  C
  C29      1.0000 0.73900  0.60760  0.48060  Biso   1.000  C
  C30      1.0000 0.73900  0.39240  0.98060  Biso   1.000  C
  C31      1.0000 0.23900  0.10760  0.48060  Biso   1.000  C
  C32      1.0000 0.23900  0.89240  0.98060  Biso   1.000  C
  C33      1.0000 0.17590  0.42530  0.19810  Biso   1.000  C
  C34      1.0000 0.17590  0.57470  0.69810  Biso   1.000  C
  C35      1.0000 0.67590  0.92530  0.19810  Biso   1.000  C
  C36      1.0000 0.67590  0.07470  0.69810  Biso   1.000  C
  C37      1.0000 0.82410  0.57470  0.80190  Biso   1.000  C
  C38      1.0000 0.82410  0.42530  0.30190  Biso   1.000  C
  C39      1.0000 0.32410  0.07470  0.80190  Biso   1.000  C
  C40      1.0000 0.32410  0.92530  0.30190  Biso   1.000  C
  C41      1.0000 0.08360  0.39360  0.04370  Biso   1.000  C
  C42      1.0000 0.08360  0.60640  0.54370  Biso   1.000  C
  C43      1.0000 0.58360  0.89360  0.04370  Biso   1.000  C
  C44      1.0000 0.58360  0.10640  0.54370  Biso   1.000  C
  C45      1.0000 0.91640  0.60640  0.95630  Biso   1.000  C
  C46      1.0000 0.91640  0.39360  0.45630  Biso   1.000  C
  C47      1.0000 0.41640  0.10640  0.95630  Biso   1.000  C
  C48      1.0000 0.41640  0.89360  0.45630  Biso   1.000  C
  H1       1.0000 0.05800  0.99480  0.82420  Biso   1.000  H
  H2       1.0000 0.05800  0.00520  0.32420  Biso   1.000  H
  H3       1.0000 0.55800  0.49480  0.82420  Biso   1.000  H
  H4       1.0000 0.55800  0.50520  0.32420  Biso   1.000  H
  H5       1.0000 0.94200  0.00520  0.17580  Biso   1.000  H
  H6       1.0000 0.94200  0.99480  0.67580  Biso   1.000  H
  H7       1.0000 0.44200  0.50520  0.17580  Biso   1.000  H
  H8       1.0000 0.44200  0.49480  0.67580  Biso   1.000  H
  H9       1.0000 0.16700  0.48390  0.21850  Biso   1.000  H
  H10      1.0000 0.16700  0.51610  0.71850  Biso   1.000  H
  H11      1.0000 0.66700  0.98390  0.21850  Biso   1.000  H
  H12      1.0000 0.66700  0.01610  0.71850  Biso   1.000  H
  H13      1.0000 0.83300  0.51610  0.78150  Biso   1.000  H
  H14      1.0000 0.83300  0.48390  0.28150  Biso   1.000  H
  H15      1.0000 0.33300  0.01610  0.78150  Biso   1.000  H
  H16      1.0000 0.33300  0.98390  0.28150  Biso   1.000  H
  H17      1.0000 0.24150  0.41670  0.16550  Biso   1.000  H
  H18      1.0000 0.24150  0.58330  0.66550  Biso   1.000  H
  H19      1.0000 0.74150  0.91670  0.16550  Biso   1.000  H
  H20      1.0000 0.74150  0.08330  0.66550  Biso   1.000  H
  H21      1.0000 0.75850  0.58330  0.83450  Biso   1.000  H
  H22      1.0000 0.75850  0.41670  0.33450  Biso   1.000  H
  H23      1.0000 0.25850  0.08330  0.83450  Biso   1.000  H
  H24      1.0000 0.25850  0.91670  0.33450  Biso   1.000  H
  H25      1.0000 0.08050  0.42350  0.93010  Biso   1.000  H
  H26      1.0000 0.08050  0.57650  0.43010  Biso   1.000  H
  H27      1.0000 0.58050  0.92350  0.93010  Biso   1.000  H
  H28      1.0000 0.58050  0.07650  0.43010  Biso   1.000  H
  H29      1.0000 0.91950  0.57650  0.06990  Biso   1.000  H
  H30      1.0000 0.91950  0.42350  0.56990  Biso   1.000  H
  H31      1.0000 0.41950  0.07650  0.06990  Biso   1.000  H
  H32      1.0000 0.41950  0.92350  0.56990  Biso   1.000  H
  H33      1.0000 0.01840  0.40210  0.07780  Biso   1.000  H
  H34      1.0000 0.01840  0.59790  0.57780  Biso   1.000  H
  H35      1.0000 0.51840  0.90210  0.07780  Biso   1.000  H
  H36      1.0000 0.51840  0.09790  0.57780  Biso   1.000  H
  H37      1.0000 0.98160  0.59790  0.92220  Biso   1.000  H
  H38      1.0000 0.98160  0.40210  0.42220  Biso   1.000  H
  H39      1.0000 0.48160  0.09790  0.92220  Biso   1.000  H
  H40      1.0000 0.48160  0.90210  0.42220  Biso   1.000  H
  H41      1.0000 0.09290  0.33490  0.02470  Biso   1.000  H
  H42      1.0000 0.09290  0.66510  0.52470  Biso   1.000  H
  H43      1.0000 0.59290  0.83490  0.02470  Biso   1.000  H
  H44      1.0000 0.59290  0.16510  0.52470  Biso   1.000  H
  H45      1.0000 0.90710  0.66510  0.97530  Biso   1.000  H
  H46      1.0000 0.90710  0.33490  0.47530  Biso   1.000  H
  H47      1.0000 0.40710  0.16510  0.97530  Biso   1.000  H
  H48      1.0000 0.40710  0.83490  0.47530  Biso   1.000  H
