data_image0
_cell_length_a       6.8807
_cell_length_b       7.0658
_cell_length_c       21.492
_cell_angle_alpha    92.379
_cell_angle_beta     92.662
_cell_angle_gamma    99.22

_symmetry_space_group_name_H-M    "P 1"
_symmetry_int_tables_number       1

loop_
  _symmetry_equiv_pos_as_xyz
  'x, y, z'

loop_
  _atom_site_label
  _atom_site_occupancy
  _atom_site_fract_x
  _atom_site_fract_y
  _atom_site_fract_z
  _atom_site_thermal_displace_type
  _atom_site_B_iso_or_equiv
  _atom_site_type_symbol
  C1       1.0000 0.78300  0.44380  0.35400  Biso   1.000  C
  C2       1.0000 0.21700  0.55620  0.64600  Biso   1.000  C
  C3       1.0000 0.76290  0.44950  0.42210  Biso   1.000  C
  C4       1.0000 0.23710  0.55050  0.57790  Biso   1.000  C
  C5       1.0000 0.73990  0.29870  0.46140  Biso   1.000  C
  C6       1.0000 0.26010  0.70130  0.53860  Biso   1.000  C
  H1       1.0000 0.73420  0.17300  0.44580  Biso   1.000  H
  H2       1.0000 0.26580  0.82700  0.55420  Biso   1.000  H
  C7       1.0000 0.72580  0.33800  0.52380  Biso   1.000  C
  C8       1.0000 0.27420  0.66200  0.47620  Biso   1.000  C
  H3       1.0000 0.71040  0.23710  0.55050  Biso   1.000  H
  H4       1.0000 0.28960  0.76290  0.44950  Biso   1.000  H
  C9       1.0000 0.73380  0.52140  0.54790  Biso   1.000  C
  C10      1.0000 0.26620  0.47860  0.45210  Biso   1.000  C
  H5       1.0000 0.72330  0.54330  0.59050  Biso   1.000  H
  H6       1.0000 0.27670  0.45670  0.40950  Biso   1.000  H
  C11      1.0000 0.75750  0.67590  0.50910  Biso   1.000  C
  C12      1.0000 0.24250  0.32410  0.49090  Biso   1.000  C
  H7       1.0000 0.76410  0.80160  0.52470  Biso   1.000  H
  H8       1.0000 0.23590  0.19840  0.47530  Biso   1.000  H
  C13      1.0000 0.77060  0.63360  0.44680  Biso   1.000  C
  C14      1.0000 0.22940  0.36640  0.55320  Biso   1.000  C
  C15      1.0000 0.78290  0.66990  0.09900  Biso   1.000  C
  C16      1.0000 0.21710  0.33010  0.90100  Biso   1.000  C
  C17      1.0000 0.76020  0.54040  0.04080  Biso   1.000  C
  C18      1.0000 0.23980  0.45960  0.95920  Biso   1.000  C
  C19      1.0000 0.75830  0.59220  0.97960  Biso   1.000  C
  C20      1.0000 0.24170  0.40780  0.02040  Biso   1.000  C
  H9       1.0000 0.77450  0.72020  0.96940  Biso   1.000  H
  H10      1.0000 0.22550  0.27980  0.03060  Biso   1.000  H
  C21      1.0000 0.73100  0.44410  0.93380  Biso   1.000  C
  C22      1.0000 0.26900  0.55590  0.06620  Biso   1.000  C
  H11      1.0000 0.72420  0.47450  0.89220  Biso   1.000  H
  H12      1.0000 0.27580  0.52550  0.10780  Biso   1.000  H
  C23      1.0000 0.71380  0.25460  0.94790  Biso   1.000  C
  C24      1.0000 0.28620  0.74540  0.05210  Biso   1.000  C
  H13      1.0000 0.69930  0.16010  0.91580  Biso   1.000  H
  H14      1.0000 0.30070  0.83990  0.08420  Biso   1.000  H
  C25      1.0000 0.71770  0.20230  0.00920  Biso   1.000  C
  C26      1.0000 0.28230  0.79770  0.99080  Biso   1.000  C
  H15      1.0000 0.70400  0.07440  0.01940  Biso   1.000  H
  H16      1.0000 0.29600  0.92560  0.98060  Biso   1.000  H
  C27      1.0000 0.74280  0.35010  0.05480  Biso   1.000  C
  C28      1.0000 0.25720  0.64990  0.94520  Biso   1.000  C
  C29      1.0000 0.42640  0.81020  0.21720  Biso   1.000  C
  C30      1.0000 0.57360  0.18980  0.78280  Biso   1.000  C
  H17      1.0000 0.50740  0.91350  0.20150  Biso   1.000  H
  H18      1.0000 0.49260  0.08650  0.79850  Biso   1.000  H
  C31      1.0000 0.22690  0.81290  0.21830  Biso   1.000  C
  C32      1.0000 0.77310  0.18710  0.78170  Biso   1.000  C
  H19      1.0000 0.17520  0.91790  0.20400  Biso   1.000  H
  H20      1.0000 0.82480  0.08210  0.79600  Biso   1.000  H
  C33      1.0000 0.18610  0.51810  0.25890  Biso   1.000  C
  C34      1.0000 0.81390  0.48190  0.74110  Biso   1.000  C
  H21      1.0000 0.10420  0.41240  0.27290  Biso   1.000  H
  H22      1.0000 0.89580  0.58760  0.72710  Biso   1.000  H
  C35      1.0000 0.38570  0.51780  0.25850  Biso   1.000  C
  C36      1.0000 0.61430  0.48220  0.74150  Biso   1.000  C
  H23      1.0000 0.43690  0.41260  0.27280  Biso   1.000  H
  H24      1.0000 0.56310  0.58740  0.72720  Biso   1.000  H
  N1       1.0000 0.80930  0.62470  0.33079  Biso   1.000  N
  N2       1.0000 0.19070  0.37530  0.66921  Biso   1.000  N
  N3       1.0000 0.77900  0.56460  0.15140  Biso   1.000  N
  N4       1.0000 0.22100  0.43540  0.84860  Biso   1.000  N
  N5       1.0000 0.50630  0.66370  0.23799  Biso   1.000  N
  N6       1.0000 0.49370  0.33630  0.76201  Biso   1.000  N
  N7       1.0000 0.10890  0.66680  0.23970  Biso   1.000  N
  N8       1.0000 0.89110  0.33320  0.76030  Biso   1.000  N
  O1       1.0000 0.78270  0.30010  0.32013  Biso   1.000  O
  O2       1.0000 0.21730  0.69990  0.67987  Biso   1.000  O
  O3       1.0000 0.97580  0.92190  0.39245  Biso   1.000  O
  O4       1.0000 0.02420  0.07810  0.60755  Biso   1.000  O
  O5       1.0000 0.86160  0.98160  0.24540  Biso   1.000  O
  O6       1.0000 0.13840  0.01840  0.75460  Biso   1.000  O
  O7       1.0000 0.61810  0.87020  0.37454  Biso   1.000  O
  O8       1.0000 0.38190  0.12980  0.62546  Biso   1.000  O
  O9       1.0000 0.80070  0.84330  0.10013  Biso   1.000  O
  O10      1.0000 0.19930  0.15670  0.89987  Biso   1.000  O
  O11      1.0000 0.56700  0.23940  0.15727  Biso   1.000  O
  O12      1.0000 0.43300  0.76060  0.84273  Biso   1.000  O
  O13      1.0000 0.92360  0.26310  0.15778  Biso   1.000  O
  O14      1.0000 0.07640  0.73690  0.84222  Biso   1.000  O
  S1       1.0000 0.79557  0.78921  0.38512  Biso   1.000  S
  S2       1.0000 0.20443  0.21079  0.61488  Biso   1.000  S
  S3       1.0000 0.75142  0.33557  0.13565  Biso   1.000  S
  S4       1.0000 0.24858  0.66443  0.86435  Biso   1.000  S
  Cu1      1.0000 0.80656  0.66637  0.23944  Biso   1.000  Cu
  Cu2      1.0000 0.19344  0.33363  0.76056  Biso   1.000  Cu
  H25      1.0000 0.87300  0.05700  0.21700  Biso   1.000  H
  H26      1.0000 0.12700  0.94300  0.78300  Biso   1.000  H
  H27      1.0000 0.82200  0.03500  0.27640  Biso   1.000  H
  H28      1.0000 0.17800  0.96500  0.72360  Biso   1.000  H
  O15      1.0000 0.32340  0.13750  0.33650  Biso   1.000  O
  O16      1.0000 0.67660  0.86250  0.66350  Biso   1.000  O
  H29      1.0000 0.23100  0.06600  0.35100  Biso   1.000  H
  H30      1.0000 0.76900  0.93400  0.64900  Biso   1.000  H
  H31      1.0000 0.42500  0.08800  0.34000  Biso   1.000  H
  H32      1.0000 0.57500  0.91200  0.66000  Biso   1.000  H
