data_image0
_cell_length_a       6.8908
_cell_length_b       7.0438
_cell_length_c       21.3389
_cell_angle_alpha    92.188
_cell_angle_beta     93.132
_cell_angle_gamma    99.964

_symmetry_space_group_name_H-M    "P 1"
_symmetry_int_tables_number       1

loop_
  _symmetry_equiv_pos_as_xyz
  'x, y, z'

loop_
  _atom_site_label
  _atom_site_occupancy
  _atom_site_fract_x
  _atom_site_fract_y
  _atom_site_fract_z
  _atom_site_thermal_displace_type
  _atom_site_B_iso_or_equiv
  _atom_site_type_symbol
  Cu1      1.0000 0.82030  0.66995  0.74062  Biso   1.000  Cu
  Cu2      1.0000 0.17970  0.33005  0.25938  Biso   1.000  Cu
  N1       1.0000 0.78958  0.57029  0.65130  Biso   1.000  N
  N2       1.0000 0.21042  0.42971  0.34870  Biso   1.000  N
  S1       1.0000 0.75994  0.33769  0.63584  Biso   1.000  S
  S2       1.0000 0.24006  0.66231  0.36416  Biso   1.000  S
  C1       1.0000 0.74480  0.35140  0.55354  Biso   1.000  C
  C2       1.0000 0.25520  0.64860  0.44646  Biso   1.000  C
  C3       1.0000 0.71720  0.20060  0.50816  Biso   1.000  C
  C4       1.0000 0.28280  0.79940  0.49184  Biso   1.000  C
  H1       1.0000 0.70620  0.06980  0.51910  Biso   1.000  H
  H2       1.0000 0.29380  0.93020  0.48090  Biso   1.000  H
  C5       1.0000 0.70660  0.25200  0.44556  Biso   1.000  C
  C6       1.0000 0.29340  0.74800  0.55444  Biso   1.000  C
  H3       1.0000 0.68540  0.15380  0.41290  Biso   1.000  H
  H4       1.0000 0.31460  0.84620  0.58710  Biso   1.000  H
  C7       1.0000 0.72640  0.44530  0.43007  Biso   1.000  C
  C8       1.0000 0.27360  0.55470  0.56993  Biso   1.000  C
  H5       1.0000 0.72000  0.47610  0.38710  Biso   1.000  H
  H6       1.0000 0.28000  0.52390  0.61290  Biso   1.000  H
  C9       1.0000 0.75580  0.59460  0.47692  Biso   1.000  C
  C10      1.0000 0.24420  0.40540  0.52308  Biso   1.000  C
  H7       1.0000 0.77020  0.72590  0.46640  Biso   1.000  H
  H8       1.0000 0.22980  0.27410  0.53360  Biso   1.000  H
  C11      1.0000 0.76320  0.54420  0.53947  Biso   1.000  C
  C12      1.0000 0.23680  0.45580  0.46053  Biso   1.000  C
  C13      1.0000 0.78940  0.67520  0.59785  Biso   1.000  C
  C14      1.0000 0.21060  0.32480  0.40215  Biso   1.000  C
  O1       1.0000 0.80717  0.85076  0.59882  Biso   1.000  O
  O2       1.0000 0.19283  0.14924  0.40118  Biso   1.000  O
  O3       1.0000 0.57636  0.23904  0.65803  Biso   1.000  O
  O4       1.0000 0.42364  0.76096  0.34197  Biso   1.000  O
  O5       1.0000 0.93541  0.26578  0.65800  Biso   1.000  O
  O6       1.0000 0.06459  0.73422  0.34200  Biso   1.000  O
  N3       1.0000 0.82202  0.62732  0.83319  Biso   1.000  N
  N4       1.0000 0.17798  0.37268  0.16681  Biso   1.000  N
  S3       1.0000 0.80368  0.79341  0.88711  Biso   1.000  S
  S4       1.0000 0.19632  0.20659  0.11289  Biso   1.000  S
  C15      1.0000 0.77310  0.63700  0.94959  Biso   1.000  C
  C16      1.0000 0.22690  0.36300  0.05041  Biso   1.000  C
  C17      1.0000 0.75240  0.68130  0.01246  Biso   1.000  C
  C18      1.0000 0.24760  0.31870  0.98754  Biso   1.000  C
  H9       1.0000 0.75670  0.81030  0.02790  Biso   1.000  H
  H10      1.0000 0.24330  0.18970  0.97210  Biso   1.000  H
  C19      1.0000 0.72490  0.52590  0.05197  Biso   1.000  C
  C20      1.0000 0.27510  0.47410  0.94803  Biso   1.000  C
  H11      1.0000 0.70950  0.54930  0.09540  Biso   1.000  H
  H12      1.0000 0.29050  0.45070  0.90460  Biso   1.000  H
  C21      1.0000 0.71960  0.33700  0.02856  Biso   1.000  C
  C22      1.0000 0.28040  0.66300  0.97144  Biso   1.000  C
  H13      1.0000 0.69970  0.23400  0.05630  Biso   1.000  H
  H14      1.0000 0.30030  0.76600  0.94370  Biso   1.000  H
  C23      1.0000 0.74330  0.29660  0.96498  Biso   1.000  C
  C24      1.0000 0.25670  0.70340  0.03502  Biso   1.000  C
  H15      1.0000 0.74160  0.16830  0.94930  Biso   1.000  H
  H16      1.0000 0.25840  0.83170  0.05070  Biso   1.000  H
  C25      1.0000 0.76920  0.45010  0.92549  Biso   1.000  C
  C26      1.0000 0.23080  0.54990  0.07451  Biso   1.000  C
  C27      1.0000 0.79760  0.44530  0.85618  Biso   1.000  C
  C28      1.0000 0.20240  0.55470  0.14382  Biso   1.000  C
  O7       1.0000 0.79878  0.29914  0.82290  Biso   1.000  O
  O8       1.0000 0.20122  0.70086  0.17710  Biso   1.000  O
  O9       1.0000 0.62642  0.87376  0.87415  Biso   1.000  O
  O10      1.0000 0.37358  0.12624  0.12585  Biso   1.000  O
  O11      1.0000 0.98517  0.93239  0.89637  Biso   1.000  O
  O12      1.0000 0.01483  0.06761  0.10363  Biso   1.000  O
  N5       1.0000 0.11850  0.66905  0.74128  Biso   1.000  N
  N6       1.0000 0.88150  0.33095  0.25872  Biso   1.000  N
  C29      1.0000 0.19710  0.51780  0.76126  Biso   1.000  C
  C30      1.0000 0.80290  0.48220  0.23874  Biso   1.000  C
  H17      1.0000 0.11340  0.41010  0.77650  Biso   1.000  H
  H18      1.0000 0.88660  0.58990  0.22350  Biso   1.000  H
  C31      1.0000 0.39900  0.51690  0.75986  Biso   1.000  C
  C32      1.0000 0.60100  0.48310  0.24014  Biso   1.000  C
  H19      1.0000 0.45040  0.40820  0.77400  Biso   1.000  H
  H20      1.0000 0.54960  0.59180  0.22600  Biso   1.000  H
  N7       1.0000 0.52234  0.66718  0.73886  Biso   1.000  N
  N8       1.0000 0.47766  0.33282  0.26114  Biso   1.000  N
  C33      1.0000 0.44330  0.81660  0.71797  Biso   1.000  C
  C34      1.0000 0.55670  0.18340  0.28203  Biso   1.000  C
  H21      1.0000 0.52650  0.92350  0.70210  Biso   1.000  H
  H22      1.0000 0.47350  0.07650  0.29790  Biso   1.000  H
  C35      1.0000 0.24150  0.81710  0.71920  Biso   1.000  C
  C36      1.0000 0.75850  0.18290  0.28080  Biso   1.000  C
  H23      1.0000 0.18980  0.92450  0.70410  Biso   1.000  H
  H24      1.0000 0.81020  0.07550  0.29590  Biso   1.000  H
  O13      1.0000 0.87942  0.98622  0.74704  Biso   1.000  O
  O14      1.0000 0.12058  0.01378  0.25296  Biso   1.000  O
  H25      1.0000 0.88600  0.04900  0.71640  Biso   1.000  H
  H26      1.0000 0.11400  0.95100  0.28360  Biso   1.000  H
  H27      1.0000 0.84200  0.05500  0.77600  Biso   1.000  H
  H28      1.0000 0.15800  0.94500  0.22400  Biso   1.000  H
  O15      1.0000 0.33690  0.13560  0.83675  Biso   1.000  O
  O16      1.0000 0.66310  0.86440  0.16325  Biso   1.000  O
  H29      1.0000 0.42700  0.07200  0.84620  Biso   1.000  H
  H30      1.0000 0.57300  0.92800  0.15380  Biso   1.000  H
  H31      1.0000 0.23700  0.06800  0.84820  Biso   1.000  H
  H32      1.0000 0.76300  0.93200  0.15180  Biso   1.000  H
