data_image0
_cell_length_a       9.623
_cell_length_b       12.711
_cell_length_c       8.95
_cell_angle_alpha    90
_cell_angle_beta     94.566
_cell_angle_gamma    90

_symmetry_space_group_name_H-M    "P 1"
_symmetry_int_tables_number       1

loop_
  _symmetry_equiv_pos_as_xyz
  'x, y, z'

loop_
  _atom_site_label
  _atom_site_occupancy
  _atom_site_fract_x
  _atom_site_fract_y
  _atom_site_fract_z
  _atom_site_thermal_displace_type
  _atom_site_B_iso_or_equiv
  _atom_site_type_symbol
  Cu1      1.0000 0.95392  0.86946  0.19443  Biso   1.000  Cu
  Cu2      1.0000 0.04608  0.36946  0.30557  Biso   1.000  Cu
  Cu3      1.0000 0.04608  0.13054  0.80557  Biso   1.000  Cu
  Cu4      1.0000 0.95392  0.63054  0.69443  Biso   1.000  Cu
  O1       1.0000 0.04653  0.00143  0.24850  Biso   1.000  O
  O2       1.0000 0.95347  0.50143  0.25150  Biso   1.000  O
  O3       1.0000 0.95347  0.99857  0.75150  Biso   1.000  O
  O4       1.0000 0.04653  0.49857  0.74850  Biso   1.000  O
  O5       1.0000 0.23140  0.09907  0.20820  Biso   1.000  O
  O6       1.0000 0.76860  0.59907  0.29180  Biso   1.000  O
  O7       1.0000 0.76860  0.90093  0.79180  Biso   1.000  O
  O8       1.0000 0.23140  0.40093  0.70820  Biso   1.000  O
  O9       1.0000 0.03560  0.78712  0.41540  Biso   1.000  O
  O10      1.0000 0.96440  0.28712  0.08460  Biso   1.000  O
  O11      1.0000 0.96440  0.21288  0.58460  Biso   1.000  O
  O12      1.0000 0.03560  0.71288  0.91540  Biso   1.000  O
  O13      1.0000 0.85720  0.74622  0.11150  Biso   1.000  O
  O14      1.0000 0.14280  0.24622  0.38850  Biso   1.000  O
  O15      1.0000 0.14280  0.25378  0.88850  Biso   1.000  O
  O16      1.0000 0.85720  0.75378  0.61150  Biso   1.000  O
  H1       1.0000 0.77440  0.73330  0.13300  Biso   1.000  H
  H2       1.0000 0.22560  0.23330  0.36700  Biso   1.000  H
  H3       1.0000 0.22560  0.26670  0.86700  Biso   1.000  H
  H4       1.0000 0.77440  0.76670  0.63300  Biso   1.000  H
  H5       1.0000 0.89740  0.70520  0.05360  Biso   1.000  H
  H6       1.0000 0.10260  0.20520  0.44640  Biso   1.000  H
  H7       1.0000 0.10260  0.29480  0.94640  Biso   1.000  H
  H8       1.0000 0.89740  0.79480  0.55360  Biso   1.000  H
  N1       1.0000 0.10280  0.86051  0.04890  Biso   1.000  N
  N2       1.0000 0.89720  0.36051  0.45110  Biso   1.000  N
  N3       1.0000 0.89720  0.13949  0.95110  Biso   1.000  N
  N4       1.0000 0.10280  0.63949  0.54890  Biso   1.000  N
  N5       1.0000 0.78820  0.91338  0.30770  Biso   1.000  N
  N6       1.0000 0.21180  0.41338  0.19230  Biso   1.000  N
  N7       1.0000 0.21180  0.08662  0.69230  Biso   1.000  N
  N8       1.0000 0.78820  0.58662  0.80770  Biso   1.000  N
  C1       1.0000 0.12280  0.71273  0.44020  Biso   1.000  C
  C2       1.0000 0.87720  0.21273  0.05980  Biso   1.000  C
  C3       1.0000 0.87720  0.28727  0.55980  Biso   1.000  C
  C4       1.0000 0.12280  0.78727  0.94020  Biso   1.000  C
  C5       1.0000 0.24470  0.70400  0.36020  Biso   1.000  C
  C6       1.0000 0.75530  0.20400  0.13980  Biso   1.000  C
  C7       1.0000 0.75530  0.29600  0.63980  Biso   1.000  C
  C8       1.0000 0.24470  0.79600  0.86020  Biso   1.000  C
  H9       1.0000 0.25900  0.75230  0.28490  Biso   1.000  H
  H10      1.0000 0.74100  0.25230  0.21510  Biso   1.000  H
  H11      1.0000 0.74100  0.24770  0.71510  Biso   1.000  H
  H12      1.0000 0.25900  0.74770  0.78490  Biso   1.000  H
  C9       1.0000 0.34040  0.62700  0.39140  Biso   1.000  C
  C10      1.0000 0.65960  0.12700  0.10860  Biso   1.000  C
  C11      1.0000 0.65960  0.37300  0.60860  Biso   1.000  C
  C12      1.0000 0.34040  0.87300  0.89140  Biso   1.000  C
  H13      1.0000 0.42140  0.62450  0.34120  Biso   1.000  H
  H14      1.0000 0.57860  0.12450  0.15880  Biso   1.000  H
  H15      1.0000 0.57860  0.37550  0.65880  Biso   1.000  H
  H16      1.0000 0.42140  0.87550  0.84120  Biso   1.000  H
  C13      1.0000 0.31550  0.55090  0.50060  Biso   1.000  C
  C14      1.0000 0.68450  0.05090  0.99940  Biso   1.000  C
  C15      1.0000 0.68450  0.44910  0.49940  Biso   1.000  C
  C16      1.0000 0.31550  0.94910  0.00060  Biso   1.000  C
  H17      1.0000 0.37820  0.49630  0.52290  Biso   1.000  H
  H18      1.0000 0.62180  0.99630  0.97710  Biso   1.000  H
  H19      1.0000 0.62180  0.50370  0.47710  Biso   1.000  H
  H20      1.0000 0.37820  0.00370  0.02290  Biso   1.000  H
  C17      1.0000 0.19670  0.93994  0.07200  Biso   1.000  C
  C18      1.0000 0.80330  0.43994  0.42800  Biso   1.000  C
  C19      1.0000 0.80330  0.06006  0.92800  Biso   1.000  C
  C20      1.0000 0.19670  0.56006  0.57200  Biso   1.000  C
  C21      1.0000 0.15740  0.02118  0.18480  Biso   1.000  C
  C22      1.0000 0.84260  0.52118  0.31520  Biso   1.000  C
  C23      1.0000 0.84260  0.97882  0.81520  Biso   1.000  C
  C24      1.0000 0.15740  0.47882  0.68480  Biso   1.000  C
  C25      1.0000 0.79940  0.99390  0.40410  Biso   1.000  C
  C26      1.0000 0.20060  0.49390  0.09590  Biso   1.000  C
  C27      1.0000 0.20060  0.00610  0.59590  Biso   1.000  C
  C28      1.0000 0.79940  0.50610  0.90410  Biso   1.000  C
  H21      1.0000 0.88510  0.02750  0.42050  Biso   1.000  H
  H22      1.0000 0.11490  0.52750  0.07950  Biso   1.000  H
  H23      1.0000 0.11490  0.97250  0.57950  Biso   1.000  H
  H24      1.0000 0.88510  0.47250  0.92050  Biso   1.000  H
  C29      1.0000 0.68950  0.02930  0.48010  Biso   1.000  C
  C30      1.0000 0.31050  0.52930  0.01990  Biso   1.000  C
  C31      1.0000 0.31050  0.97070  0.51990  Biso   1.000  C
  C32      1.0000 0.68950  0.47070  0.98010  Biso   1.000  C
  H25      1.0000 0.70240  0.08570  0.54580  Biso   1.000  H
  H26      1.0000 0.29760  0.58570  0.95420  Biso   1.000  H
  H27      1.0000 0.29760  0.91430  0.45420  Biso   1.000  H
  H28      1.0000 0.70240  0.41430  0.04580  Biso   1.000  H
  C33      1.0000 0.56010  0.98170  0.45960  Biso   1.000  C
  C34      1.0000 0.43990  0.48170  0.04040  Biso   1.000  C
  C35      1.0000 0.43990  0.01830  0.54040  Biso   1.000  C
  C36      1.0000 0.56010  0.51830  0.95960  Biso   1.000  C
  C37      1.0000 0.55030  0.89840  0.35940  Biso   1.000  C
  C38      1.0000 0.44970  0.39840  0.14060  Biso   1.000  C
  C39      1.0000 0.44970  0.10160  0.64060  Biso   1.000  C
  C40      1.0000 0.55030  0.60160  0.85940  Biso   1.000  C
  H29      1.0000 0.46590  0.86330  0.34130  Biso   1.000  H
  H30      1.0000 0.53410  0.36330  0.15870  Biso   1.000  H
  H31      1.0000 0.53410  0.13670  0.65870  Biso   1.000  H
  H32      1.0000 0.46590  0.63670  0.84130  Biso   1.000  H
  C41      1.0000 0.66380  0.86720  0.28670  Biso   1.000  C
  C42      1.0000 0.33620  0.36720  0.21330  Biso   1.000  C
  C43      1.0000 0.33620  0.13280  0.71330  Biso   1.000  C
  C44      1.0000 0.66380  0.63280  0.78670  Biso   1.000  C
  H33      1.0000 0.65330  0.81120  0.21970  Biso   1.000  H
  H34      1.0000 0.34670  0.31120  0.28030  Biso   1.000  H
  H35      1.0000 0.34670  0.18880  0.78030  Biso   1.000  H
  H36      1.0000 0.65330  0.68880  0.71970  Biso   1.000  H
