data_image0
_cell_length_a       11.051
_cell_length_b       13.62
_cell_length_c       8.01
_cell_angle_alpha    90
_cell_angle_beta     102.046
_cell_angle_gamma    90

_symmetry_space_group_name_H-M    "P 1"
_symmetry_int_tables_number       1

loop_
  _symmetry_equiv_pos_as_xyz
  'x, y, z'

loop_
  _atom_site_label
  _atom_site_occupancy
  _atom_site_fract_x
  _atom_site_fract_y
  _atom_site_fract_z
  _atom_site_thermal_displace_type
  _atom_site_B_iso_or_equiv
  _atom_site_type_symbol
  Cu1      1.0000 0.98183  0.85223  0.18171  Biso   1.000  Cu
  Cu2      1.0000 0.01817  0.35223  0.31829  Biso   1.000  Cu
  Cu3      1.0000 0.01817  0.14777  0.81829  Biso   1.000  Cu
  Cu4      1.0000 0.98183  0.64777  0.68171  Biso   1.000  Cu
  O1       1.0000 0.03220  0.98890  0.20650  Biso   1.000  O
  O2       1.0000 0.96780  0.48890  0.29350  Biso   1.000  O
  O3       1.0000 0.96780  0.01110  0.79350  Biso   1.000  O
  O4       1.0000 0.03220  0.51110  0.70650  Biso   1.000  O
  O5       1.0000 0.17140  0.09560  0.15540  Biso   1.000  O
  O6       1.0000 0.82860  0.59560  0.34460  Biso   1.000  O
  O7       1.0000 0.82860  0.90440  0.84460  Biso   1.000  O
  O8       1.0000 0.17140  0.40440  0.65540  Biso   1.000  O
  O9       1.0000 0.09970  0.81610  0.46450  Biso   1.000  O
  O10      1.0000 0.90030  0.31610  0.03550  Biso   1.000  O
  O11      1.0000 0.90030  0.18390  0.53550  Biso   1.000  O
  O12      1.0000 0.09970  0.68390  0.96450  Biso   1.000  O
  O13      1.0000 0.93300  0.71620  0.13760  Biso   1.000  O
  O14      1.0000 0.06700  0.21620  0.36240  Biso   1.000  O
  O15      1.0000 0.06700  0.28380  0.86240  Biso   1.000  O
  O16      1.0000 0.93300  0.78380  0.63760  Biso   1.000  O
  H1       1.0000 0.97580  0.67320  0.09600  Biso   1.000  H
  H2       1.0000 0.02420  0.17320  0.40400  Biso   1.000  H
  H3       1.0000 0.02420  0.32680  0.90400  Biso   1.000  H
  H4       1.0000 0.97580  0.82680  0.59600  Biso   1.000  H
  H5       1.0000 0.91190  0.69840  0.23310  Biso   1.000  H
  H6       1.0000 0.08810  0.19840  0.26690  Biso   1.000  H
  H7       1.0000 0.08810  0.30160  0.76690  Biso   1.000  H
  H8       1.0000 0.91190  0.80160  0.73310  Biso   1.000  H
  N1       1.0000 0.12410  0.84230  0.06280  Biso   1.000  N
  N2       1.0000 0.87590  0.34230  0.43720  Biso   1.000  N
  N3       1.0000 0.87590  0.15770  0.93720  Biso   1.000  N
  N4       1.0000 0.12410  0.65770  0.56280  Biso   1.000  N
  N5       1.0000 0.82940  0.88400  0.27000  Biso   1.000  N
  N6       1.0000 0.17060  0.38400  0.23000  Biso   1.000  N
  N7       1.0000 0.17060  0.11600  0.73000  Biso   1.000  N
  N8       1.0000 0.82940  0.61600  0.77000  Biso   1.000  N
  C1       1.0000 0.13000  0.01190  0.15270  Biso   1.000  C
  C2       1.0000 0.87000  0.51190  0.34730  Biso   1.000  C
  C3       1.0000 0.87000  0.98810  0.84730  Biso   1.000  C
  C4       1.0000 0.13000  0.48810  0.65270  Biso   1.000  C
  C5       1.0000 0.18980  0.92780  0.07600  Biso   1.000  C
  C6       1.0000 0.81020  0.42780  0.42400  Biso   1.000  C
  C7       1.0000 0.81020  0.07220  0.92400  Biso   1.000  C
  C8       1.0000 0.18980  0.57220  0.57600  Biso   1.000  C
  C9       1.0000 0.29660  0.93910  0.02180  Biso   1.000  C
  C10      1.0000 0.70340  0.43910  0.47820  Biso   1.000  C
  C11      1.0000 0.70340  0.06090  0.97820  Biso   1.000  C
  C12      1.0000 0.29660  0.56090  0.52180  Biso   1.000  C
  H9       1.0000 0.33950  0.99820  0.03630  Biso   1.000  H
  H10      1.0000 0.66050  0.49820  0.46370  Biso   1.000  H
  H11      1.0000 0.66050  0.00180  0.96370  Biso   1.000  H
  H12      1.0000 0.33950  0.50180  0.53630  Biso   1.000  H
  C13      1.0000 0.34080  0.85830  0.94240  Biso   1.000  C
  C14      1.0000 0.65920  0.35830  0.55760  Biso   1.000  C
  C15      1.0000 0.65920  0.14170  0.05760  Biso   1.000  C
  C16      1.0000 0.34080  0.64170  0.44240  Biso   1.000  C
  H13      1.0000 0.41420  0.86310  0.90360  Biso   1.000  H
  H14      1.0000 0.58580  0.36310  0.59640  Biso   1.000  H
  H15      1.0000 0.58580  0.13690  0.09640  Biso   1.000  H
  H16      1.0000 0.41420  0.63690  0.40360  Biso   1.000  H
  C17      1.0000 0.27450  0.77270  0.92310  Biso   1.000  C
  C18      1.0000 0.72550  0.27270  0.57690  Biso   1.000  C
  C19      1.0000 0.72550  0.22730  0.07690  Biso   1.000  C
  C20      1.0000 0.27450  0.72730  0.42310  Biso   1.000  C
  H17      1.0000 0.30300  0.71950  0.86930  Biso   1.000  H
  H18      1.0000 0.69700  0.21950  0.63070  Biso   1.000  H
  H19      1.0000 0.69700  0.28050  0.13070  Biso   1.000  H
  H20      1.0000 0.30300  0.78050  0.36930  Biso   1.000  H
  C21      1.0000 0.16360  0.73660  0.48330  Biso   1.000  C
  C22      1.0000 0.83640  0.23660  0.01670  Biso   1.000  C
  C23      1.0000 0.83640  0.26340  0.51670  Biso   1.000  C
  C24      1.0000 0.16360  0.76340  0.98330  Biso   1.000  C
  C25      1.0000 0.82710  0.96410  0.36780  Biso   1.000  C
  C26      1.0000 0.17290  0.46410  0.13220  Biso   1.000  C
  C27      1.0000 0.17290  0.03590  0.63220  Biso   1.000  C
  C28      1.0000 0.82710  0.53590  0.86780  Biso   1.000  C
  H21      1.0000 0.89600  0.00500  0.38840  Biso   1.000  H
  H22      1.0000 0.10400  0.50500  0.11160  Biso   1.000  H
  H23      1.0000 0.10400  0.99500  0.61160  Biso   1.000  H
  H24      1.0000 0.89600  0.49500  0.88840  Biso   1.000  H
  C29      1.0000 0.72900  0.98830  0.43830  Biso   1.000  C
  C30      1.0000 0.27100  0.48830  0.06170  Biso   1.000  C
  C31      1.0000 0.27100  0.01170  0.56170  Biso   1.000  C
  C32      1.0000 0.72900  0.51170  0.93830  Biso   1.000  C
  H25      1.0000 0.73140  0.04500  0.50360  Biso   1.000  H
  H26      1.0000 0.26860  0.54500  0.99640  Biso   1.000  H
  H27      1.0000 0.26860  0.95500  0.49640  Biso   1.000  H
  H28      1.0000 0.73140  0.45500  0.00360  Biso   1.000  H
  C33      1.0000 0.62480  0.92780  0.41220  Biso   1.000  C
  C34      1.0000 0.37520  0.42780  0.08780  Biso   1.000  C
  C35      1.0000 0.37520  0.07220  0.58780  Biso   1.000  C
  C36      1.0000 0.62480  0.57220  0.91220  Biso   1.000  C
  C37      1.0000 0.62670  0.84770  0.30980  Biso   1.000  C
  C38      1.0000 0.37330  0.34770  0.19020  Biso   1.000  C
  C39      1.0000 0.37330  0.15230  0.69020  Biso   1.000  C
  C40      1.0000 0.62670  0.65230  0.80980  Biso   1.000  C
  H29      1.0000 0.55810  0.80650  0.28640  Biso   1.000  H
  H30      1.0000 0.44190  0.30650  0.21360  Biso   1.000  H
  H31      1.0000 0.44190  0.19350  0.71360  Biso   1.000  H
  H32      1.0000 0.55810  0.69350  0.78640  Biso   1.000  H
  C41      1.0000 0.72770  0.82650  0.24060  Biso   1.000  C
  C42      1.0000 0.27230  0.32650  0.25940  Biso   1.000  C
  C43      1.0000 0.27230  0.17350  0.75940  Biso   1.000  C
  C44      1.0000 0.72770  0.67350  0.74060  Biso   1.000  C
  H33      1.0000 0.72590  0.77120  0.17200  Biso   1.000  H
  H34      1.0000 0.27410  0.27120  0.32800  Biso   1.000  H
  H35      1.0000 0.27410  0.22880  0.82800  Biso   1.000  H
  H36      1.0000 0.72590  0.72880  0.67200  Biso   1.000  H
  C45      1.0000 0.51640  0.94990  0.49300  Biso   1.000  C
  C46      1.0000 0.48360  0.44990  0.00700  Biso   1.000  C
  C47      1.0000 0.48360  0.05010  0.50700  Biso   1.000  C
  C48      1.0000 0.51640  0.55010  0.99300  Biso   1.000  C
  H37      1.0000 0.44480  0.91590  0.42800  Biso   1.000  H
  H38      1.0000 0.55520  0.41590  0.07200  Biso   1.000  H
  H39      1.0000 0.55520  0.08410  0.57200  Biso   1.000  H
  H40      1.0000 0.44480  0.58410  0.92800  Biso   1.000  H
  H41      1.0000 0.53370  0.92190  0.60690  Biso   1.000  H
  H42      1.0000 0.46630  0.42190  0.89310  Biso   1.000  H
  H43      1.0000 0.46630  0.07810  0.39310  Biso   1.000  H
  H44      1.0000 0.53370  0.57810  0.10690  Biso   1.000  H
