data_image0
_cell_length_a       7.5342
_cell_length_b       8.9307
_cell_length_c       15.0189
_cell_angle_alpha    73.0032
_cell_angle_beta     81.3701
_cell_angle_gamma    65.461

_symmetry_space_group_name_H-M    "P 1"
_symmetry_int_tables_number       1

loop_
  _symmetry_equiv_pos_as_xyz
  'x, y, z'

loop_
  _atom_site_label
  _atom_site_occupancy
  _atom_site_fract_x
  _atom_site_fract_y
  _atom_site_fract_z
  _atom_site_thermal_displace_type
  _atom_site_B_iso_or_equiv
  _atom_site_type_symbol
  Cu1      1.0000 0.46410  0.27669  0.31715  Biso   1.000  Cu
  Cu2      1.0000 0.53590  0.72331  0.68285  Biso   1.000  Cu
  O1       1.0000 0.93140  0.26420  0.95800  Biso   1.000  O
  O2       1.0000 0.06860  0.73580  0.04200  Biso   1.000  O
  H1       1.0000 0.92700  0.34300  0.93100  Biso   1.000  H
  H2       1.0000 0.07300  0.65700  0.06900  Biso   1.000  H
  N1       1.0000 0.56930  0.02440  0.32170  Biso   1.000  N
  N2       1.0000 0.43070  0.97560  0.67830  Biso   1.000  N
  N3       1.0000 0.61180  0.27490  0.20130  Biso   1.000  N
  N4       1.0000 0.38820  0.72510  0.79870  Biso   1.000  N
  N5       1.0000 0.39160  0.53150  0.26200  Biso   1.000  N
  N6       1.0000 0.60840  0.46850  0.73800  Biso   1.000  N
  N7       1.0000 0.67610  0.25130  0.41290  Biso   1.000  N
  N8       1.0000 0.32390  0.74870  0.58710  Biso   1.000  N
  N9       1.0000 0.24290  0.28540  0.40370  Biso   1.000  N
  N10      1.0000 0.75710  0.71460  0.59630  Biso   1.000  N
  N11      1.0000 0.94850  0.25340  0.48050  Biso   1.000  N
  N12      1.0000 0.05150  0.74660  0.51950  Biso   1.000  N
  C1       1.0000 0.54110  0.89870  0.38960  Biso   1.000  C
  C2       1.0000 0.45890  0.10130  0.61040  Biso   1.000  C
  H3       1.0000 0.45770  0.92700  0.43980  Biso   1.000  H
  H4       1.0000 0.54230  0.07300  0.56020  Biso   1.000  H
  C3       1.0000 0.62970  0.73080  0.38810  Biso   1.000  C
  C4       1.0000 0.37030  0.26920  0.61190  Biso   1.000  C
  H5       1.0000 0.60740  0.64750  0.43680  Biso   1.000  H
  H6       1.0000 0.39260  0.35250  0.56320  Biso   1.000  H
  C5       1.0000 0.75170  0.68670  0.31390  Biso   1.000  C
  C6       1.0000 0.24830  0.31330  0.68610  Biso   1.000  C
  H7       1.0000 0.81270  0.57360  0.31140  Biso   1.000  H
  H8       1.0000 0.18730  0.42640  0.68860  Biso   1.000  H
  C7       1.0000 0.78200  0.81520  0.24270  Biso   1.000  C
  C8       1.0000 0.21800  0.18480  0.75730  Biso   1.000  C
  H9       1.0000 0.86320  0.78900  0.19150  Biso   1.000  H
  H10      1.0000 0.13680  0.21100  0.80850  Biso   1.000  H
  C9       1.0000 0.69050  0.98150  0.24880  Biso   1.000  C
  C10      1.0000 0.30950  0.01850  0.75120  Biso   1.000  C
  C11      1.0000 0.71210  0.12810  0.17780  Biso   1.000  C
  C12      1.0000 0.28790  0.87190  0.82220  Biso   1.000  C
  C13      1.0000 0.82030  0.12180  0.09560  Biso   1.000  C
  C14      1.0000 0.17970  0.87820  0.90440  Biso   1.000  C
  H11      1.0000 0.89020  0.01870  0.08020  Biso   1.000  H
  H12      1.0000 0.10980  0.98130  0.91980  Biso   1.000  H
  C15      1.0000 0.82290  0.27320  0.03590  Biso   1.000  C
  C16      1.0000 0.17710  0.72680  0.96410  Biso   1.000  C
  C17      1.0000 0.71490  0.42670  0.06020  Biso   1.000  C
  C18      1.0000 0.28510  0.57330  0.93980  Biso   1.000  C
  H13      1.0000 0.71400  0.52910  0.02090  Biso   1.000  H
  H14      1.0000 0.28600  0.47090  0.97910  Biso   1.000  H
  C19      1.0000 0.61040  0.42330  0.14310  Biso   1.000  C
  C20      1.0000 0.38960  0.57670  0.85690  Biso   1.000  C
  C21      1.0000 0.48210  0.57160  0.18000  Biso   1.000  C
  C22      1.0000 0.51790  0.42840  0.82000  Biso   1.000  C
  C23      1.0000 0.45360  0.73800  0.13440  Biso   1.000  C
  C24      1.0000 0.54640  0.26200  0.86560  Biso   1.000  C
  H15      1.0000 0.51850  0.76320  0.07790  Biso   1.000  H
  H16      1.0000 0.48150  0.23680  0.92210  Biso   1.000  H
  C25      1.0000 0.32700  0.86590  0.17430  Biso   1.000  C
  C26      1.0000 0.67300  0.13410  0.82570  Biso   1.000  C
  H17      1.0000 0.30380  0.97900  0.14430  Biso   1.000  H
  H18      1.0000 0.69620  0.02100  0.85570  Biso   1.000  H
  C27      1.0000 0.23550  0.82610  0.25830  Biso   1.000  C
  C28      1.0000 0.76450  0.17390  0.74170  Biso   1.000  C
  H19      1.0000 0.15090  0.91140  0.28610  Biso   1.000  H
  H20      1.0000 0.84910  0.08860  0.71390  Biso   1.000  H
  C29      1.0000 0.27050  0.65740  0.30100  Biso   1.000  C
  C30      1.0000 0.72950  0.34260  0.69900  Biso   1.000  C
  H21      1.0000 0.20880  0.63010  0.35820  Biso   1.000  H
  H22      1.0000 0.79120  0.36990  0.64180  Biso   1.000  H
  C31      1.0000 0.80930  0.25070  0.44060  Biso   1.000  C
  C32      1.0000 0.19070  0.74930  0.55940  Biso   1.000  C
  C33      1.0000 0.10200  0.26910  0.43510  Biso   1.000  C
  C34      1.0000 0.89800  0.73090  0.56490  Biso   1.000  C
  N13      1.0000 0.89070  0.66810  0.82480  Biso   1.000  N
  N14      1.0000 0.10930  0.33190  0.17520  Biso   1.000  N
  O3       1.0000 0.96980  0.51230  0.83280  Biso   1.000  O
  O4       1.0000 0.03020  0.48770  0.16720  Biso   1.000  O
  O5       1.0000 0.76600  0.72120  0.88280  Biso   1.000  O
  O6       1.0000 0.23400  0.27880  0.11720  Biso   1.000  O
  O7       1.0000 0.94510  0.76460  0.76180  Biso   1.000  O
  O8       1.0000 0.05490  0.23540  0.23820  Biso   1.000  O
