data_image0
_cell_length_a       11.351
_cell_length_b       11.393
_cell_length_c       26.21
_cell_angle_alpha    90
_cell_angle_beta     95.36
_cell_angle_gamma    90

_symmetry_space_group_name_H-M    "P 1"
_symmetry_int_tables_number       1

loop_
  _symmetry_equiv_pos_as_xyz
  'x, y, z'

loop_
  _atom_site_label
  _atom_site_occupancy
  _atom_site_fract_x
  _atom_site_fract_y
  _atom_site_fract_z
  _atom_site_thermal_displace_type
  _atom_site_B_iso_or_equiv
  _atom_site_type_symbol
  Cu1      1.0000 0.09508  0.77543  0.00180  Biso   1.000  Cu
  Cu2      1.0000 0.40492  0.27543  0.49820  Biso   1.000  Cu
  Cu3      1.0000 0.90492  0.22457  0.99820  Biso   1.000  Cu
  Cu4      1.0000 0.59508  0.72457  0.50180  Biso   1.000  Cu
  O1       1.0000 0.20520  0.15160  0.79564  Biso   1.000  O
  O2       1.0000 0.29480  0.65160  0.70436  Biso   1.000  O
  O3       1.0000 0.79480  0.84840  0.20436  Biso   1.000  O
  O4       1.0000 0.70520  0.34840  0.29564  Biso   1.000  O
  O5       1.0000 0.16670  0.35500  0.20486  Biso   1.000  O
  O6       1.0000 0.33330  0.85500  0.29514  Biso   1.000  O
  O7       1.0000 0.83330  0.64500  0.79514  Biso   1.000  O
  O8       1.0000 0.66670  0.14500  0.70486  Biso   1.000  O
  O9       1.0000 0.92290  0.80510  0.99364  Biso   1.000  O
  O10      1.0000 0.57710  0.30510  0.50636  Biso   1.000  O
  O11      1.0000 0.07710  0.19490  0.00636  Biso   1.000  O
  O12      1.0000 0.42290  0.69490  0.49364  Biso   1.000  O
  O13      1.0000 0.86590  0.61950  0.98047  Biso   1.000  O
  O14      1.0000 0.63410  0.11950  0.51953  Biso   1.000  O
  O15      1.0000 0.13410  0.38050  0.01953  Biso   1.000  O
  O16      1.0000 0.36590  0.88050  0.48047  Biso   1.000  O
  O17      1.0000 0.33740  0.90050  0.04921  Biso   1.000  O
  O18      1.0000 0.16260  0.40050  0.45079  Biso   1.000  O
  O19      1.0000 0.66260  0.09950  0.95079  Biso   1.000  O
  O20      1.0000 0.83740  0.59950  0.54921  Biso   1.000  O
  O21      1.0000 0.26640  0.74450  0.00484  Biso   1.000  O
  O22      1.0000 0.23360  0.24450  0.49516  Biso   1.000  O
  O23      1.0000 0.73360  0.25550  0.99516  Biso   1.000  O
  O24      1.0000 0.76640  0.75550  0.50484  Biso   1.000  O
  O25      1.0000 0.10790  0.95990  0.04386  Biso   1.000  O
  O26      1.0000 0.39210  0.45990  0.45614  Biso   1.000  O
  O27      1.0000 0.89210  0.04010  0.95614  Biso   1.000  O
  O28      1.0000 0.60790  0.54010  0.54386  Biso   1.000  O
  H1       1.0000 0.17870  0.96740  0.03760  Biso   1.000  H
  H2       1.0000 0.32130  0.46740  0.46240  Biso   1.000  H
  H3       1.0000 0.82130  0.03260  0.96240  Biso   1.000  H
  H4       1.0000 0.67870  0.53260  0.53760  Biso   1.000  H
  H5       1.0000 0.10830  0.95010  0.07570  Biso   1.000  H
  H6       1.0000 0.39170  0.45010  0.42430  Biso   1.000  H
  H7       1.0000 0.89170  0.04990  0.92430  Biso   1.000  H
  H8       1.0000 0.60830  0.54990  0.57570  Biso   1.000  H
  N1       1.0000 0.10350  0.83430  0.92964  Biso   1.000  N
  N2       1.0000 0.39650  0.33430  0.57036  Biso   1.000  N
  N3       1.0000 0.89650  0.16570  0.07036  Biso   1.000  N
  N4       1.0000 0.60350  0.66570  0.42964  Biso   1.000  N
  N5       1.0000 0.16870  0.06910  0.76445  Biso   1.000  N
  N6       1.0000 0.33130  0.56910  0.73555  Biso   1.000  N
  N7       1.0000 0.83130  0.93090  0.23555  Biso   1.000  N
  N8       1.0000 0.66870  0.43090  0.26445  Biso   1.000  N
  N9       1.0000 0.08230  0.90020  0.73793  Biso   1.000  N
  N10      1.0000 0.41770  0.40020  0.76207  Biso   1.000  N
  N11      1.0000 0.91770  0.09980  0.26207  Biso   1.000  N
  N12      1.0000 0.58230  0.59980  0.23793  Biso   1.000  N
  N13      1.0000 0.08820  0.69870  0.07105  Biso   1.000  N
  N14      1.0000 0.41180  0.19870  0.42895  Biso   1.000  N
  N15      1.0000 0.91180  0.30130  0.92895  Biso   1.000  N
  N16      1.0000 0.58820  0.80130  0.57105  Biso   1.000  N
  N17      1.0000 0.14820  0.43950  0.23514  Biso   1.000  N
  N18      1.0000 0.35180  0.93950  0.26486  Biso   1.000  N
  N19      1.0000 0.85180  0.56050  0.76486  Biso   1.000  N
  N20      1.0000 0.64820  0.06050  0.73514  Biso   1.000  N
  N21      1.0000 0.08480  0.61500  0.26008  Biso   1.000  N
  N22      1.0000 0.41520  0.11500  0.23992  Biso   1.000  N
  N23      1.0000 0.91520  0.38500  0.73992  Biso   1.000  N
  N24      1.0000 0.58480  0.88500  0.76008  Biso   1.000  N
  C1       1.0000 0.11530  0.92180  0.83057  Biso   1.000  C
  C2       1.0000 0.38470  0.42180  0.66943  Biso   1.000  C
  C3       1.0000 0.88470  0.07820  0.16943  Biso   1.000  C
  C4       1.0000 0.61530  0.57820  0.33057  Biso   1.000  C
  C5       1.0000 0.18700  0.96650  0.87176  Biso   1.000  C
  C6       1.0000 0.31300  0.46650  0.62824  Biso   1.000  C
  C7       1.0000 0.81300  0.03350  0.12824  Biso   1.000  C
  C8       1.0000 0.68700  0.53350  0.37176  Biso   1.000  C
  H9       1.0000 0.24170  0.02770  0.86680  Biso   1.000  H
  H10      1.0000 0.25830  0.52770  0.63320  Biso   1.000  H
  H11      1.0000 0.75830  0.97230  0.13320  Biso   1.000  H
  H12      1.0000 0.74170  0.47230  0.36680  Biso   1.000  H
  C9       1.0000 0.17810  0.92070  0.92051  Biso   1.000  C
  C10      1.0000 0.32190  0.42070  0.57949  Biso   1.000  C
  C11      1.0000 0.82190  0.07930  0.07949  Biso   1.000  C
  C12      1.0000 0.67810  0.57930  0.42051  Biso   1.000  C
  H13      1.0000 0.22720  0.95240  0.94850  Biso   1.000  H
  H14      1.0000 0.27280  0.45240  0.55150  Biso   1.000  H
  H15      1.0000 0.77280  0.04760  0.05150  Biso   1.000  H
  H16      1.0000 0.72720  0.54760  0.44850  Biso   1.000  H
  C13      1.0000 0.03380  0.79110  0.88951  Biso   1.000  C
  C14      1.0000 0.46620  0.29110  0.61049  Biso   1.000  C
  C15      1.0000 0.96620  0.20890  0.11049  Biso   1.000  C
  C16      1.0000 0.53380  0.70890  0.38951  Biso   1.000  C
  H17      1.0000 0.97950  0.73040  0.89560  Biso   1.000  H
  H18      1.0000 0.52050  0.23040  0.60440  Biso   1.000  H
  H19      1.0000 0.02050  0.26960  0.10440  Biso   1.000  H
  H20      1.0000 0.47950  0.76960  0.39560  Biso   1.000  H
  C17      1.0000 0.03760  0.83100  0.84028  Biso   1.000  C
  C18      1.0000 0.46240  0.33100  0.65972  Biso   1.000  C
  C19      1.0000 0.96240  0.16900  0.15972  Biso   1.000  C
  C20      1.0000 0.53760  0.66900  0.34028  Biso   1.000  C
  H21      1.0000 0.98790  0.79710  0.81300  Biso   1.000  H
  H22      1.0000 0.51210  0.29710  0.68700  Biso   1.000  H
  H23      1.0000 0.01210  0.20290  0.18700  Biso   1.000  H
  H24      1.0000 0.48790  0.70290  0.31300  Biso   1.000  H
  C21      1.0000 0.12040  0.96190  0.77716  Biso   1.000  C
  C22      1.0000 0.37960  0.46190  0.72284  Biso   1.000  C
  C23      1.0000 0.87960  0.03810  0.22284  Biso   1.000  C
  C24      1.0000 0.62040  0.53810  0.27716  Biso   1.000  C
  C25      1.0000 0.18090  0.07360  0.70861  Biso   1.000  C
  C26      1.0000 0.31910  0.57360  0.79139  Biso   1.000  C
  C27      1.0000 0.81910  0.92640  0.29139  Biso   1.000  C
  C28      1.0000 0.68090  0.42640  0.20861  Biso   1.000  C
  C29      1.0000 0.15340  0.19460  0.68812  Biso   1.000  C
  C30      1.0000 0.34660  0.69460  0.81188  Biso   1.000  C
  C31      1.0000 0.84660  0.80540  0.31188  Biso   1.000  C
  C32      1.0000 0.65340  0.30540  0.18812  Biso   1.000  C
  H25      1.0000 0.07220  0.21560  0.69420  Biso   1.000  H
  H26      1.0000 0.42780  0.71560  0.80580  Biso   1.000  H
  H27      1.0000 0.92780  0.78440  0.30580  Biso   1.000  H
  H28      1.0000 0.57220  0.28440  0.19420  Biso   1.000  H
  H29      1.0000 0.16160  0.19610  0.65120  Biso   1.000  H
  H30      1.0000 0.33840  0.69610  0.84880  Biso   1.000  H
  H31      1.0000 0.83840  0.80390  0.34880  Biso   1.000  H
  H32      1.0000 0.66160  0.30390  0.15120  Biso   1.000  H
  H33      1.0000 0.20850  0.25100  0.70560  Biso   1.000  H
  H34      1.0000 0.29150  0.75100  0.79440  Biso   1.000  H
  H35      1.0000 0.79150  0.74900  0.29440  Biso   1.000  H
  H36      1.0000 0.70850  0.24900  0.20560  Biso   1.000  H
  C33      1.0000 0.31280  0.04480  0.70148  Biso   1.000  C
  C34      1.0000 0.18720  0.54480  0.79852  Biso   1.000  C
  C35      1.0000 0.68720  0.95520  0.29852  Biso   1.000  C
  C36      1.0000 0.81280  0.45520  0.20148  Biso   1.000  C
  H37      1.0000 0.36400  0.10530  0.71830  Biso   1.000  H
  H38      1.0000 0.13600  0.60530  0.78170  Biso   1.000  H
  H39      1.0000 0.63600  0.89470  0.28170  Biso   1.000  H
  H40      1.0000 0.86400  0.39470  0.21830  Biso   1.000  H
  H41      1.0000 0.32380  0.04270  0.66480  Biso   1.000  H
  H42      1.0000 0.17620  0.54270  0.83520  Biso   1.000  H
  H43      1.0000 0.67620  0.95730  0.33520  Biso   1.000  H
  H44      1.0000 0.82380  0.45730  0.16480  Biso   1.000  H
  H45      1.0000 0.33350  0.96820  0.71680  Biso   1.000  H
  H46      1.0000 0.16650  0.46820  0.78320  Biso   1.000  H
  H47      1.0000 0.66650  0.03180  0.28320  Biso   1.000  H
  H48      1.0000 0.83350  0.53180  0.21680  Biso   1.000  H
  C37      1.0000 0.09640  0.97140  0.69096  Biso   1.000  C
  C38      1.0000 0.40360  0.47140  0.80904  Biso   1.000  C
  C39      1.0000 0.90360  0.02860  0.30904  Biso   1.000  C
  C40      1.0000 0.59640  0.52860  0.19096  Biso   1.000  C
  C41      1.0000 0.13680  0.89250  0.64964  Biso   1.000  C
  C42      1.0000 0.36320  0.39250  0.85036  Biso   1.000  C
  C43      1.0000 0.86320  0.10750  0.35036  Biso   1.000  C
  C44      1.0000 0.63680  0.60750  0.14964  Biso   1.000  C
  H49      1.0000 0.21020  0.85280  0.66250  Biso   1.000  H
  H50      1.0000 0.28980  0.35280  0.83750  Biso   1.000  H
  H51      1.0000 0.78980  0.14720  0.33750  Biso   1.000  H
  H52      1.0000 0.71020  0.64720  0.16250  Biso   1.000  H
  H53      1.0000 0.15070  0.93980  0.61950  Biso   1.000  H
  H54      1.0000 0.34930  0.43980  0.88050  Biso   1.000  H
  H55      1.0000 0.84930  0.06020  0.38050  Biso   1.000  H
  H56      1.0000 0.65070  0.56020  0.11950  Biso   1.000  H
  H57      1.0000 0.07550  0.83390  0.64010  Biso   1.000  H
  H58      1.0000 0.42450  0.33390  0.85990  Biso   1.000  H
  H59      1.0000 0.92450  0.16610  0.35990  Biso   1.000  H
  H60      1.0000 0.57550  0.66610  0.14010  Biso   1.000  H
  C45      1.0000 0.97060  0.01790  0.67380  Biso   1.000  C
  C46      1.0000 0.52940  0.51790  0.82620  Biso   1.000  C
  C47      1.0000 0.02940  0.98210  0.32620  Biso   1.000  C
  C48      1.0000 0.47060  0.48210  0.17380  Biso   1.000  C
  H61      1.0000 0.91400  0.95290  0.67290  Biso   1.000  H
  H62      1.0000 0.58600  0.45290  0.82710  Biso   1.000  H
  H63      1.0000 0.08600  0.04710  0.32710  Biso   1.000  H
  H64      1.0000 0.41400  0.54710  0.17290  Biso   1.000  H
  H65      1.0000 0.96980  0.05290  0.63960  Biso   1.000  H
  H66      1.0000 0.53020  0.55290  0.86040  Biso   1.000  H
  H67      1.0000 0.03020  0.94710  0.36040  Biso   1.000  H
  H68      1.0000 0.46980  0.44710  0.13960  Biso   1.000  H
  H69      1.0000 0.94850  0.07750  0.69820  Biso   1.000  H
  H70      1.0000 0.55150  0.57750  0.80180  Biso   1.000  H
  H71      1.0000 0.05150  0.92250  0.30180  Biso   1.000  H
  H72      1.0000 0.44850  0.42250  0.19820  Biso   1.000  H
  C49      1.0000 0.09210  0.59370  0.16759  Biso   1.000  C
  C50      1.0000 0.40790  0.09370  0.33241  Biso   1.000  C
  C51      1.0000 0.90790  0.40630  0.83241  Biso   1.000  C
  C52      1.0000 0.59210  0.90630  0.66759  Biso   1.000  C
  C53      1.0000 0.15770  0.54750  0.13051  Biso   1.000  C
  C54      1.0000 0.34230  0.04750  0.36949  Biso   1.000  C
  C55      1.0000 0.84230  0.45250  0.86949  Biso   1.000  C
  C56      1.0000 0.65770  0.95250  0.63051  Biso   1.000  C
  H73      1.0000 0.20380  0.47870  0.13730  Biso   1.000  H
  H74      1.0000 0.29620  0.97870  0.36270  Biso   1.000  H
  H75      1.0000 0.79620  0.52130  0.86270  Biso   1.000  H
  H76      1.0000 0.70380  0.02130  0.63730  Biso   1.000  H
  C57      1.0000 0.15550  0.60290  0.08312  Biso   1.000  C
  C58      1.0000 0.34450  0.10290  0.41688  Biso   1.000  C
  C59      1.0000 0.84450  0.39710  0.91688  Biso   1.000  C
  C60      1.0000 0.65550  0.89710  0.58312  Biso   1.000  C
  H77      1.0000 0.20300  0.57220  0.05830  Biso   1.000  H
  H78      1.0000 0.29700  0.07220  0.44170  Biso   1.000  H
  H79      1.0000 0.79700  0.42780  0.94170  Biso   1.000  H
  H80      1.0000 0.70300  0.92780  0.55830  Biso   1.000  H
  C61      1.0000 0.02080  0.74050  0.10638  Biso   1.000  C
  C62      1.0000 0.47920  0.24050  0.39362  Biso   1.000  C
  C63      1.0000 0.97920  0.25950  0.89362  Biso   1.000  C
  C64      1.0000 0.52080  0.75950  0.60638  Biso   1.000  C
  H81      1.0000 0.97160  0.80640  0.09770  Biso   1.000  H
  H82      1.0000 0.52840  0.30640  0.40230  Biso   1.000  H
  H83      1.0000 0.02840  0.19360  0.90230  Biso   1.000  H
  H84      1.0000 0.47160  0.69360  0.59770  Biso   1.000  H
  C65      1.0000 0.01960  0.69230  0.15472  Biso   1.000  C
  C66      1.0000 0.48040  0.19230  0.34528  Biso   1.000  C
  C67      1.0000 0.98040  0.30770  0.84528  Biso   1.000  C
  C68      1.0000 0.51960  0.80770  0.65472  Biso   1.000  C
  H85      1.0000 0.97100  0.72470  0.17880  Biso   1.000  H
  H86      1.0000 0.52900  0.22470  0.32120  Biso   1.000  H
  H87      1.0000 0.02900  0.27530  0.82120  Biso   1.000  H
  H88      1.0000 0.47100  0.77530  0.67880  Biso   1.000  H
  C69      1.0000 0.10370  0.55200  0.22136  Biso   1.000  C
  C70      1.0000 0.39630  0.05200  0.27864  Biso   1.000  C
  C71      1.0000 0.89630  0.44800  0.77864  Biso   1.000  C
  C72      1.0000 0.60370  0.94800  0.72136  Biso   1.000  C
  C73      1.0000 0.18340  0.43620  0.29145  Biso   1.000  C
  C74      1.0000 0.31660  0.93620  0.20855  Biso   1.000  C
  C75      1.0000 0.81660  0.56380  0.70855  Biso   1.000  C
  C76      1.0000 0.68340  0.06380  0.79145  Biso   1.000  C
  C77      1.0000 0.31720  0.45550  0.29819  Biso   1.000  C
  C78      1.0000 0.18280  0.95550  0.20181  Biso   1.000  C
  C79      1.0000 0.68280  0.54450  0.70181  Biso   1.000  C
  C80      1.0000 0.81720  0.04450  0.79819  Biso   1.000  C
  H89      1.0000 0.35670  0.39170  0.28140  Biso   1.000  H
  H90      1.0000 0.14330  0.89170  0.21860  Biso   1.000  H
  H91      1.0000 0.64330  0.60830  0.71860  Biso   1.000  H
  H92      1.0000 0.85670  0.10830  0.78140  Biso   1.000  H
  H93      1.0000 0.34430  0.45670  0.33480  Biso   1.000  H
  H94      1.0000 0.15570  0.95670  0.16520  Biso   1.000  H
  H95      1.0000 0.65570  0.54330  0.66520  Biso   1.000  H
  H96      1.0000 0.84430  0.04330  0.83480  Biso   1.000  H
  H97      1.0000 0.33620  0.53060  0.28270  Biso   1.000  H
  H98      1.0000 0.16380  0.03060  0.21730  Biso   1.000  H
  H99      1.0000 0.66380  0.46940  0.71730  Biso   1.000  H
  H100     1.0000 0.83620  0.96940  0.78270  Biso   1.000  H
  C81      1.0000 0.15190  0.31680  0.31324  Biso   1.000  C
  C82      1.0000 0.34810  0.81680  0.18676  Biso   1.000  C
  C83      1.0000 0.84810  0.68320  0.68676  Biso   1.000  C
  C84      1.0000 0.65190  0.18320  0.81324  Biso   1.000  C
  H101     1.0000 0.06670  0.30290  0.30610  Biso   1.000  H
  H102     1.0000 0.43330  0.80290  0.19390  Biso   1.000  H
  H103     1.0000 0.93330  0.69710  0.69390  Biso   1.000  H
  H104     1.0000 0.56670  0.19710  0.80610  Biso   1.000  H
  H105     1.0000 0.17290  0.31610  0.35040  Biso   1.000  H
  H106     1.0000 0.32710  0.81610  0.14960  Biso   1.000  H
  H107     1.0000 0.82710  0.68390  0.64960  Biso   1.000  H
  H108     1.0000 0.67290  0.18390  0.85040  Biso   1.000  H
  H109     1.0000 0.19570  0.25490  0.29720  Biso   1.000  H
  H110     1.0000 0.30430  0.75490  0.20280  Biso   1.000  H
  H111     1.0000 0.80430  0.74510  0.70280  Biso   1.000  H
  H112     1.0000 0.69570  0.24510  0.79720  Biso   1.000  H
  C85      1.0000 0.11120  0.54560  0.30793  Biso   1.000  C
  C86      1.0000 0.38880  0.04560  0.19207  Biso   1.000  C
  C87      1.0000 0.88880  0.45440  0.69207  Biso   1.000  C
  C88      1.0000 0.61120  0.95440  0.80793  Biso   1.000  C
  C89      1.0000 0.99360  0.51130  0.32812  Biso   1.000  C
  C90      1.0000 0.50640  0.01130  0.17188  Biso   1.000  C
  C91      1.0000 0.00640  0.48870  0.67188  Biso   1.000  C
  C92      1.0000 0.49360  0.98870  0.82812  Biso   1.000  C
  H113     1.0000 0.94600  0.58200  0.33200  Biso   1.000  H
  H114     1.0000 0.55400  0.08200  0.16800  Biso   1.000  H
  H115     1.0000 0.05400  0.41800  0.66800  Biso   1.000  H
  H116     1.0000 0.44600  0.91800  0.83200  Biso   1.000  H
  H117     1.0000 0.00900  0.47230  0.36140  Biso   1.000  H
  H118     1.0000 0.49100  0.97230  0.13860  Biso   1.000  H
  H119     1.0000 0.99100  0.52770  0.63860  Biso   1.000  H
  H120     1.0000 0.50900  0.02770  0.86140  Biso   1.000  H
  H121     1.0000 0.95040  0.45770  0.30380  Biso   1.000  H
  H122     1.0000 0.54960  0.95770  0.19620  Biso   1.000  H
  H123     1.0000 0.04960  0.54230  0.69620  Biso   1.000  H
  H124     1.0000 0.45040  0.04230  0.80380  Biso   1.000  H
  C93      1.0000 0.18020  0.62400  0.34746  Biso   1.000  C
  C94      1.0000 0.31980  0.12400  0.15254  Biso   1.000  C
  C95      1.0000 0.81980  0.37600  0.65254  Biso   1.000  C
  C96      1.0000 0.68020  0.87600  0.84746  Biso   1.000  C
  H125     1.0000 0.24870  0.65750  0.33260  Biso   1.000  H
  H126     1.0000 0.25130  0.15750  0.16740  Biso   1.000  H
  H127     1.0000 0.75130  0.34250  0.66740  Biso   1.000  H
  H128     1.0000 0.74870  0.84250  0.83260  Biso   1.000  H
  H129     1.0000 0.20720  0.57720  0.37770  Biso   1.000  H
  H130     1.0000 0.29280  0.07720  0.12230  Biso   1.000  H
  H131     1.0000 0.79280  0.42280  0.62230  Biso   1.000  H
  H132     1.0000 0.70720  0.92280  0.87770  Biso   1.000  H
  H133     1.0000 0.12880  0.68740  0.35750  Biso   1.000  H
  H134     1.0000 0.37120  0.18740  0.14250  Biso   1.000  H
  H135     1.0000 0.87120  0.31260  0.64250  Biso   1.000  H
  H136     1.0000 0.62880  0.81260  0.85750  Biso   1.000  H
  C97      1.0000 0.84410  0.72580  0.98642  Biso   1.000  C
  C98      1.0000 0.65590  0.22580  0.51358  Biso   1.000  C
  C99      1.0000 0.15590  0.27420  0.01358  Biso   1.000  C
  C100     1.0000 0.34410  0.77420  0.48642  Biso   1.000  C
  C101     1.0000 0.71750  0.76760  0.98882  Biso   1.000  C
  C102     1.0000 0.78250  0.26760  0.51118  Biso   1.000  C
  C103     1.0000 0.28250  0.23240  0.01118  Biso   1.000  C
  C104     1.0000 0.21750  0.73240  0.48882  Biso   1.000  C
  H137     1.0000 0.70900  0.84550  0.97130  Biso   1.000  H
  H138     1.0000 0.79100  0.34550  0.52870  Biso   1.000  H
  H139     1.0000 0.29100  0.15450  0.02870  Biso   1.000  H
  H140     1.0000 0.20900  0.65450  0.47130  Biso   1.000  H
  C105     1.0000 0.62380  0.68430  0.96273  Biso   1.000  C
  C106     1.0000 0.87620  0.18430  0.53727  Biso   1.000  C
  C107     1.0000 0.37620  0.31570  0.03727  Biso   1.000  C
  C108     1.0000 0.12380  0.81570  0.46273  Biso   1.000  C
  H141     1.0000 0.62930  0.60680  0.97980  Biso   1.000  H
  H142     1.0000 0.87070  0.10680  0.52020  Biso   1.000  H
  H143     1.0000 0.37070  0.39320  0.02020  Biso   1.000  H
  H144     1.0000 0.12930  0.89320  0.47980  Biso   1.000  H
  H145     1.0000 0.63820  0.67320  0.92640  Biso   1.000  H
  H146     1.0000 0.86180  0.17320  0.57360  Biso   1.000  H
  H147     1.0000 0.36180  0.32680  0.07360  Biso   1.000  H
  H148     1.0000 0.13820  0.82680  0.42640  Biso   1.000  H
  C109     1.0000 0.49930  0.73630  0.96601  Biso   1.000  C
  C110     1.0000 0.00070  0.23630  0.53399  Biso   1.000  C
  C111     1.0000 0.50070  0.26370  0.03399  Biso   1.000  C
  C112     1.0000 0.99930  0.76370  0.46601  Biso   1.000  C
  H149     1.0000 0.49250  0.81140  0.94690  Biso   1.000  H
  H150     1.0000 0.00750  0.31140  0.55310  Biso   1.000  H
  H151     1.0000 0.50750  0.18860  0.05310  Biso   1.000  H
  H152     1.0000 0.99250  0.68860  0.44690  Biso   1.000  H
  H153     1.0000 0.43920  0.68160  0.94990  Biso   1.000  H
  H154     1.0000 0.06080  0.18160  0.55010  Biso   1.000  H
  H155     1.0000 0.56080  0.31840  0.05010  Biso   1.000  H
  H156     1.0000 0.93920  0.81840  0.44990  Biso   1.000  H
  C113     1.0000 0.47550  0.75770  0.02140  Biso   1.000  C
  C114     1.0000 0.02450  0.25770  0.47860  Biso   1.000  C
  C115     1.0000 0.52450  0.24230  0.97860  Biso   1.000  C
  C116     1.0000 0.97550  0.74230  0.52140  Biso   1.000  C
  H157     1.0000 0.47930  0.67970  0.03900  Biso   1.000  H
  H158     1.0000 0.02070  0.17970  0.46100  Biso   1.000  H
  H159     1.0000 0.52070  0.32030  0.96100  Biso   1.000  H
  H160     1.0000 0.97930  0.82030  0.53900  Biso   1.000  H
  C117     1.0000 0.57060  0.83490  0.04938  Biso   1.000  C
  C118     1.0000 0.92940  0.33490  0.45062  Biso   1.000  C
  C119     1.0000 0.42940  0.16510  0.95062  Biso   1.000  C
  C120     1.0000 0.07060  0.66510  0.54938  Biso   1.000  C
  H161     1.0000 0.55670  0.84040  0.08600  Biso   1.000  H
  H162     1.0000 0.94330  0.34040  0.41400  Biso   1.000  H
  H163     1.0000 0.44330  0.15960  0.91400  Biso   1.000  H
  H164     1.0000 0.05670  0.65960  0.58600  Biso   1.000  H
  H165     1.0000 0.56570  0.91510  0.03470  Biso   1.000  H
  H166     1.0000 0.93430  0.41510  0.46530  Biso   1.000  H
  H167     1.0000 0.43430  0.08490  0.96530  Biso   1.000  H
  H168     1.0000 0.06570  0.58490  0.53470  Biso   1.000  H
  C121     1.0000 0.69420  0.78450  0.04459  Biso   1.000  C
  C122     1.0000 0.80580  0.28450  0.45541  Biso   1.000  C
  C123     1.0000 0.30580  0.21550  0.95541  Biso   1.000  C
  C124     1.0000 0.19420  0.71550  0.54459  Biso   1.000  C
  H169     1.0000 0.75430  0.83840  0.06140  Biso   1.000  H
  H170     1.0000 0.74570  0.33840  0.43860  Biso   1.000  H
  H171     1.0000 0.24570  0.16160  0.93860  Biso   1.000  H
  H172     1.0000 0.25430  0.66160  0.56140  Biso   1.000  H
  H173     1.0000 0.70180  0.70810  0.06260  Biso   1.000  H
  H174     1.0000 0.79820  0.20810  0.43740  Biso   1.000  H
  H175     1.0000 0.29820  0.29190  0.93740  Biso   1.000  H
  H176     1.0000 0.20180  0.79190  0.56260  Biso   1.000  H
  C125     1.0000 0.35090  0.80730  0.02574  Biso   1.000  C
  C126     1.0000 0.14910  0.30730  0.47426  Biso   1.000  C
  C127     1.0000 0.64910  0.19270  0.97426  Biso   1.000  C
  C128     1.0000 0.85090  0.69270  0.52574  Biso   1.000  C
  O29      1.0000 0.07940  0.56420  0.95730  Biso   1.000  O
  O30      1.0000 0.42060  0.06420  0.54270  Biso   1.000  O
  O31      1.0000 0.92060  0.43580  0.04270  Biso   1.000  O
  O32      1.0000 0.57940  0.93580  0.45730  Biso   1.000  O
  O33      1.0000 0.22860  0.55230  0.93880  Biso   1.000  O
  O34      1.0000 0.27140  0.05230  0.56120  Biso   1.000  O
  O35      1.0000 0.77140  0.44770  0.06120  Biso   1.000  O
  O36      1.0000 0.72860  0.94770  0.43880  Biso   1.000  O
