data_image0
_cell_length_a       6.8408
_cell_length_b       10.7839
_cell_length_c       11.553
_cell_angle_alpha    85.637
_cell_angle_beta     87.766
_cell_angle_gamma    78.553

_symmetry_space_group_name_H-M    "P 1"
_symmetry_int_tables_number       1

loop_
  _symmetry_equiv_pos_as_xyz
  'x, y, z'

loop_
  _atom_site_label
  _atom_site_occupancy
  _atom_site_fract_x
  _atom_site_fract_y
  _atom_site_fract_z
  _atom_site_thermal_displace_type
  _atom_site_B_iso_or_equiv
  _atom_site_type_symbol
  Cu1      1.0000 0.00000  0.00000  0.00000  Biso   1.000  Cu
  O1       1.0000 0.72420  0.06540  0.42054  Biso   1.000  O
  O2       1.0000 0.27580  0.93460  0.57946  Biso   1.000  O
  O3       1.0000 0.31590  0.38645  0.60848  Biso   1.000  O
  O4       1.0000 0.68410  0.61355  0.39152  Biso   1.000  O
  O5       1.0000 0.80000  0.83004  0.04461  Biso   1.000  O
  O6       1.0000 0.20000  0.16996  0.95539  Biso   1.000  O
  O7       1.0000 0.07180  0.83352  0.93675  Biso   1.000  O
  O8       1.0000 0.92820  0.16648  0.06325  Biso   1.000  O
  N1       1.0000 0.84470  0.07024  0.85715  Biso   1.000  N
  N2       1.0000 0.15530  0.92976  0.14285  Biso   1.000  N
  N3       1.0000 0.59670  0.16537  0.43999  Biso   1.000  N
  N4       1.0000 0.40330  0.83463  0.56001  Biso   1.000  N
  N5       1.0000 0.39580  0.31362  0.53082  Biso   1.000  N
  N6       1.0000 0.60420  0.68638  0.46918  Biso   1.000  N
  C1       1.0000 0.64990  0.16694  0.65227  Biso   1.000  C
  C2       1.0000 0.35010  0.83306  0.34773  Biso   1.000  C
  C3       1.0000 0.84760  0.10270  0.65070  Biso   1.000  C
  C4       1.0000 0.15240  0.89730  0.34930  Biso   1.000  C
  H1       1.0000 0.91770  0.09080  0.58050  Biso   1.000  H
  H2       1.0000 0.08230  0.90920  0.41950  Biso   1.000  H
  C5       1.0000 0.93800  0.05700  0.75321  Biso   1.000  C
  C6       1.0000 0.06200  0.94300  0.24679  Biso   1.000  C
  H3       1.0000 0.07050  0.01490  0.75070  Biso   1.000  H
  H4       1.0000 0.92950  0.98510  0.24930  Biso   1.000  H
  C7       1.0000 0.65430  0.13130  0.85886  Biso   1.000  C
  C8       1.0000 0.34570  0.86870  0.14114  Biso   1.000  C
  H5       1.0000 0.58760  0.14060  0.93030  Biso   1.000  H
  H6       1.0000 0.41240  0.85940  0.06970  Biso   1.000  H
  C9       1.0000 0.55230  0.18110  0.76036  Biso   1.000  C
  C10      1.0000 0.44770  0.81890  0.23964  Biso   1.000  C
  H7       1.0000 0.42030  0.22350  0.76560  Biso   1.000  H
  H8       1.0000 0.57970  0.77650  0.23440  Biso   1.000  H
  C11      1.0000 0.54960  0.21469  0.54416  Biso   1.000  C
  C12      1.0000 0.45040  0.78531  0.45584  Biso   1.000  C
  C13      1.0000 0.48840  0.24865  0.34296  Biso   1.000  C
  C14      1.0000 0.51160  0.75135  0.65704  Biso   1.000  C
  C15      1.0000 0.63070  0.33100  0.29090  Biso   1.000  C
  C16      1.0000 0.36930  0.66900  0.70910  Biso   1.000  C
  H9       1.0000 0.66400  0.38150  0.34920  Biso   1.000  H
  H10      1.0000 0.33600  0.61850  0.65080  Biso   1.000  H
  H11      1.0000 0.56780  0.38550  0.22770  Biso   1.000  H
  H12      1.0000 0.43220  0.61450  0.77230  Biso   1.000  H
  H13      1.0000 0.74990  0.27780  0.26270  Biso   1.000  H
  H14      1.0000 0.25010  0.72220  0.73730  Biso   1.000  H
  C17      1.0000 0.43660  0.16680  0.25150  Biso   1.000  C
  C18      1.0000 0.56340  0.83320  0.74850  Biso   1.000  C
  H15      1.0000 0.55700  0.12480  0.21440  Biso   1.000  H
  H16      1.0000 0.44300  0.87520  0.78560  Biso   1.000  H
  H17      1.0000 0.35330  0.21930  0.19470  Biso   1.000  H
  H18      1.0000 0.64670  0.78070  0.80530  Biso   1.000  H
  H19      1.0000 0.36690  0.10470  0.28790  Biso   1.000  H
  H20      1.0000 0.63310  0.89530  0.71210  Biso   1.000  H
  C19      1.0000 0.30930  0.32250  0.41213  Biso   1.000  C
  C20      1.0000 0.69070  0.67750  0.58787  Biso   1.000  C
  C21      1.0000 0.13460  0.25410  0.42610  Biso   1.000  C
  C22      1.0000 0.86540  0.74590  0.57390  Biso   1.000  C
  H21      1.0000 0.18180  0.16750  0.45360  Biso   1.000  H
  H22      1.0000 0.81820  0.83250  0.54640  Biso   1.000  H
  H23      1.0000 0.07280  0.25670  0.35250  Biso   1.000  H
  H24      1.0000 0.92720  0.74330  0.64750  Biso   1.000  H
  H25      1.0000 0.03890  0.29500  0.48100  Biso   1.000  H
  H26      1.0000 0.96110  0.70500  0.51900  Biso   1.000  H
  C23      1.0000 0.24060  0.46090  0.37020  Biso   1.000  C
  C24      1.0000 0.75940  0.53910  0.62980  Biso   1.000  C
  H27      1.0000 0.12410  0.49710  0.41430  Biso   1.000  H
  H28      1.0000 0.87590  0.50290  0.58570  Biso   1.000  H
  H29      1.0000 0.20930  0.46650  0.28950  Biso   1.000  H
  H30      1.0000 0.79070  0.53350  0.71050  Biso   1.000  H
  H31      1.0000 0.34510  0.50650  0.38050  Biso   1.000  H
  H32      1.0000 0.65490  0.49350  0.61950  Biso   1.000  H
  C25      1.0000 0.93990  0.77610  0.98458  Biso   1.000  C
  C26      1.0000 0.06010  0.22390  0.01542  Biso   1.000  C
  C27      1.0000 0.96910  0.63597  0.96290  Biso   1.000  C
  C28      1.0000 0.03090  0.36403  0.03710  Biso   1.000  C
  H33      1.0000 0.97890  0.62930  0.87860  Biso   1.000  H
  H34      1.0000 0.02110  0.37070  0.12140  Biso   1.000  H
  C29      1.0000 0.16630  0.56470  0.01370  Biso   1.000  C
  C30      1.0000 0.83370  0.43530  0.98630  Biso   1.000  C
  H35      1.0000 0.27480  0.60190  0.97920  Biso   1.000  H
  H36      1.0000 0.72520  0.39810  0.02080  Biso   1.000  H
  H37      1.0000 0.16360  0.57360  0.09670  Biso   1.000  H
  H38      1.0000 0.83640  0.42640  0.90330  Biso   1.000  H
  C31      1.0000 0.79580  0.57600  0.00860  Biso   1.000  C
  C32      1.0000 0.20420  0.42400  0.99140  Biso   1.000  C
  H39      1.0000 0.67450  0.61930  0.97090  Biso   1.000  H
  H40      1.0000 0.32550  0.38070  0.02910  Biso   1.000  H
  H41      1.0000 0.77730  0.58550  0.09140  Biso   1.000  H
  H42      1.0000 0.22270  0.41450  0.90860  Biso   1.000  H
