data_image0
_cell_length_a       8.653
_cell_length_b       11.355
_cell_length_c       11.945
_cell_angle_alpha    111.36
_cell_angle_beta     102.79
_cell_angle_gamma    100.55

_symmetry_space_group_name_H-M    "P 1"
_symmetry_int_tables_number       1

loop_
  _symmetry_equiv_pos_as_xyz
  'x, y, z'

loop_
  _atom_site_label
  _atom_site_occupancy
  _atom_site_fract_x
  _atom_site_fract_y
  _atom_site_fract_z
  _atom_site_thermal_displace_type
  _atom_site_B_iso_or_equiv
  _atom_site_type_symbol
  Cu1      1.0000 0.00000  0.00000  0.00000  Biso   1.000  Cu
  N1       1.0000 0.21560  0.05490  0.96420  Biso   1.000  N
  N2       1.0000 0.78440  0.94510  0.03580  Biso   1.000  N
  O1       1.0000 0.21150  0.95040  0.59700  Biso   1.000  O
  O2       1.0000 0.78850  0.04960  0.40300  Biso   1.000  O
  O3       1.0000 0.16910  0.93860  0.17720  Biso   1.000  O
  O4       1.0000 0.83090  0.06140  0.82280  Biso   1.000  O
  C1       1.0000 0.36180  0.04430  0.81630  Biso   1.000  C
  C2       1.0000 0.63820  0.95570  0.18370  Biso   1.000  C
  C3       1.0000 0.22350  0.00770  0.84630  Biso   1.000  C
  C4       1.0000 0.77650  0.99230  0.15370  Biso   1.000  C
  H1       1.0000 0.12960  0.94660  0.78140  Biso   1.000  H
  H2       1.0000 0.87040  0.05340  0.21860  Biso   1.000  H
  C5       1.0000 0.34950  0.13770  0.05830  Biso   1.000  C
  C6       1.0000 0.65050  0.86230  0.94170  Biso   1.000  C
  H3       1.0000 0.34460  0.16960  0.14060  Biso   1.000  H
  H4       1.0000 0.65540  0.83040  0.85940  Biso   1.000  H
  C7       1.0000 0.49820  0.17840  0.03670  Biso   1.000  C
  C8       1.0000 0.50180  0.82160  0.96330  Biso   1.000  C
  H5       1.0000 0.59130  0.23620  0.10430  Biso   1.000  H
  H6       1.0000 0.40870  0.76380  0.89570  Biso   1.000  H
  C9       1.0000 0.50650  0.13240  0.91480  Biso   1.000  C
  C10      1.0000 0.49350  0.86760  0.08520  Biso   1.000  C
  H7       1.0000 0.60410  0.15870  0.89830  Biso   1.000  H
  H8       1.0000 0.39590  0.84130  0.10170  Biso   1.000  H
  C11      1.0000 0.34780  0.98910  0.67930  Biso   1.000  C
  C12      1.0000 0.65220  0.01090  0.32070  Biso   1.000  C
  N3       1.0000 0.48590  0.98790  0.64940  Biso   1.000  N
  N4       1.0000 0.51410  0.01210  0.35060  Biso   1.000  N
  H9       1.0000 0.57700  0.01400  0.71010  Biso   1.000  H
  H10      1.0000 0.42300  0.98600  0.28990  Biso   1.000  H
  C13      1.0000 0.49450  0.94560  0.52180  Biso   1.000  C
  C14      1.0000 0.50550  0.05440  0.47820  Biso   1.000  C
  H11      1.0000 0.39690  0.87280  0.46480  Biso   1.000  H
  H12      1.0000 0.60310  0.12720  0.53520  Biso   1.000  H
  H13      1.0000 0.59060  0.91370  0.51780  Biso   1.000  H
  H14      1.0000 0.40940  0.08630  0.48220  Biso   1.000  H
  O5       1.0000 0.05820  0.17460  0.14100  Biso   1.000  O
  O6       1.0000 0.94180  0.82540  0.85900  Biso   1.000  O
  O7       1.0000 0.90260  0.26630  0.04680  Biso   1.000  O
  O8       1.0000 0.09740  0.73370  0.95320  Biso   1.000  O
  C15      1.0000 0.05630  0.38850  0.26440  Biso   1.000  C
  C16      1.0000 0.94370  0.61150  0.73560  Biso   1.000  C
  C17      1.0000 0.17920  0.39540  0.36410  Biso   1.000  C
  C18      1.0000 0.82080  0.60460  0.63590  Biso   1.000  C
  H15      1.0000 0.22410  0.32530  0.35460  Biso   1.000  H
  H16      1.0000 0.77590  0.67470  0.64540  Biso   1.000  H
  C19      1.0000 0.23590  0.50620  0.47800  Biso   1.000  C
  C20      1.0000 0.76410  0.49380  0.52200  Biso   1.000  C
  C21      1.0000 0.16000  0.61340  0.48370  Biso   1.000  C
  C22      1.0000 0.84000  0.38660  0.51630  Biso   1.000  C
  H17      1.0000 0.18960  0.68830  0.55960  Biso   1.000  H
  H18      1.0000 0.81040  0.31170  0.44040  Biso   1.000  H
  C23      1.0000 0.04700  0.60420  0.38020  Biso   1.000  C
  C24      1.0000 0.95300  0.39580  0.61980  Biso   1.000  C
  H19      1.0000 0.00940  0.67650  0.38380  Biso   1.000  H
  H20      1.0000 0.99060  0.32350  0.61620  Biso   1.000  H
  C25      1.0000 0.98940  0.49370  0.27270  Biso   1.000  C
  C26      1.0000 0.01060  0.50630  0.72730  Biso   1.000  C
  H21      1.0000 0.90580  0.48670  0.20440  Biso   1.000  H
  H22      1.0000 0.09420  0.51330  0.79560  Biso   1.000  H
  C27      1.0000 0.00140  0.26890  0.13770  Biso   1.000  C
  C28      1.0000 0.99860  0.73110  0.86230  Biso   1.000  C
  N5       1.0000 0.35810  0.51810  0.58370  Biso   1.000  N
  N6       1.0000 0.64190  0.48190  0.41630  Biso   1.000  N
  O9       1.0000 0.41480  0.42730  0.57410  Biso   1.000  O
  O10      1.0000 0.58520  0.57270  0.42590  Biso   1.000  O
  O11      1.0000 0.40580  0.62540  0.67870  Biso   1.000  O
  O12      1.0000 0.59420  0.37460  0.32130  Biso   1.000  O
  O13      1.0000 0.03400  0.91720  0.35480  Biso   1.000  O
  O14      1.0000 0.96600  0.08280  0.64520  Biso   1.000  O
  C29      1.0000 0.52600  0.56920  0.09850  Biso   1.000  C
  C30      1.0000 0.47400  0.43080  0.90150  Biso   1.000  C
  O15      1.0000 0.64380  0.73640  0.31030  Biso   1.000  O
  O16      1.0000 0.35620  0.26360  0.68970  Biso   1.000  O
  C31      1.0000 0.38500  0.54400  0.09700  Biso   1.000  C
  C32      1.0000 0.61500  0.45600  0.90300  Biso   1.000  C
  C33      1.0000 0.71000  0.61890  0.09130  Biso   1.000  C
  C34      1.0000 0.29000  0.38110  0.90870  Biso   1.000  C
  C35      1.0000 0.24300  0.45600  0.02200  Biso   1.000  C
  C36      1.0000 0.75700  0.54400  0.97800  Biso   1.000  C
  O17      1.0000 0.34700  0.65170  0.23350  Biso   1.000  O
  O18      1.0000 0.65300  0.34830  0.76650  Biso   1.000  O
  N7       1.0000 0.48800  0.65200  0.21400  Biso   1.000  N
  N8       1.0000 0.51200  0.34800  0.78600  Biso   1.000  N
  O19      1.0000 0.82100  0.71500  0.18730  Biso   1.000  O
  O20      1.0000 0.17900  0.28500  0.81270  Biso   1.000  O
  C37      1.0000 0.40400  0.48500  0.00900  Biso   1.000  C
  C38      1.0000 0.59600  0.51500  0.99100  Biso   1.000  C
  C39      1.0000 0.65800  0.66300  0.19300  Biso   1.000  C
  C40      1.0000 0.34200  0.33700  0.80700  Biso   1.000  C
