data_image0
_cell_length_a       8.6297
_cell_length_b       8.9671
_cell_length_c       12.467
_cell_angle_alpha    93.51
_cell_angle_beta     106.47
_cell_angle_gamma    96.74

_symmetry_space_group_name_H-M    "P 1"
_symmetry_int_tables_number       1

loop_
  _symmetry_equiv_pos_as_xyz
  'x, y, z'

loop_
  _atom_site_label
  _atom_site_occupancy
  _atom_site_fract_x
  _atom_site_fract_y
  _atom_site_fract_z
  _atom_site_thermal_displace_type
  _atom_site_B_iso_or_equiv
  _atom_site_type_symbol
  Cu1      1.0000 0.50000  0.00000  0.50000  Biso   1.000  Cu
  O1       1.0000 0.49410  0.42210  0.29470  Biso   1.000  O
  O2       1.0000 0.50590  0.57790  0.70530  Biso   1.000  O
  H1       1.0000 0.54570  0.47880  0.36810  Biso   1.000  H
  H2       1.0000 0.45430  0.52120  0.63190  Biso   1.000  H
  H3       1.0000 0.59100  0.41880  0.29420  Biso   1.000  H
  H4       1.0000 0.40900  0.58120  0.70580  Biso   1.000  H
  O3       1.0000 0.63300  0.75490  0.56970  Biso   1.000  O
  O4       1.0000 0.36700  0.24510  0.43030  Biso   1.000  O
  H5       1.0000 0.57620  0.70320  0.61330  Biso   1.000  H
  H6       1.0000 0.42380  0.29680  0.38670  Biso   1.000  H
  H7       1.0000 0.59590  0.73510  0.50980  Biso   1.000  H
  H8       1.0000 0.40410  0.26490  0.49020  Biso   1.000  H
  O5       1.0000 0.19070  0.58360  0.69180  Biso   1.000  O
  O6       1.0000 0.80930  0.41640  0.30820  Biso   1.000  O
  N1       1.0000 0.27000  0.90410  0.48500  Biso   1.000  N
  N2       1.0000 0.73000  0.09590  0.51500  Biso   1.000  N
  C1       1.0000 0.08610  0.74270  0.55170  Biso   1.000  C
  C2       1.0000 0.91390  0.25730  0.44830  Biso   1.000  C
  C3       1.0000 0.24070  0.81820  0.56170  Biso   1.000  C
  C4       1.0000 0.75930  0.18180  0.43830  Biso   1.000  C
  H9       1.0000 0.32650  0.80810  0.62450  Biso   1.000  H
  H10      1.0000 0.67350  0.19190  0.37550  Biso   1.000  H
  C5       1.0000 0.14280  0.92580  0.39700  Biso   1.000  C
  C6       1.0000 0.85720  0.07420  0.60300  Biso   1.000  C
  H11      1.0000 0.16100  0.99070  0.34510  Biso   1.000  H
  H12      1.0000 0.83900  0.00930  0.65490  Biso   1.000  H
  C7       1.0000 0.07350  0.63860  0.63950  Biso   1.000  C
  C8       1.0000 0.92650  0.36140  0.36050  Biso   1.000  C
  C9       1.0000 0.98780  0.85410  0.38300  Biso   1.000  C
  C10      1.0000 0.01220  0.14590  0.61700  Biso   1.000  C
  H13      1.0000 0.90300  0.86810  0.32070  Biso   1.000  H
  H14      1.0000 0.09700  0.13190  0.67930  Biso   1.000  H
  C11      1.0000 0.95830  0.76280  0.46010  Biso   1.000  C
  C12      1.0000 0.04170  0.23720  0.53990  Biso   1.000  C
  H15      1.0000 0.85350  0.71430  0.45130  Biso   1.000  H
  H16      1.0000 0.14650  0.28570  0.54870  Biso   1.000  H
  N3       1.0000 0.92600  0.60990  0.65560  Biso   1.000  N
  N4       1.0000 0.07400  0.39010  0.34440  Biso   1.000  N
  H17      1.0000 0.84580  0.65150  0.61760  Biso   1.000  H
  H18      1.0000 0.15420  0.34850  0.38240  Biso   1.000  H
  C13      1.0000 0.90290  0.50780  0.73800  Biso   1.000  C
  C14      1.0000 0.09710  0.49220  0.26200  Biso   1.000  C
  H19      1.0000 0.96220  0.42340  0.73310  Biso   1.000  H
  H20      1.0000 0.03780  0.57660  0.26690  Biso   1.000  H
  H21      1.0000 0.78800  0.46800  0.71950  Biso   1.000  H
  H22      1.0000 0.21200  0.53200  0.28050  Biso   1.000  H
  C15      1.0000 0.95850  0.58010  0.85510  Biso   1.000  C
  C16      1.0000 0.04150  0.41990  0.14490  Biso   1.000  C
  H23      1.0000 0.88740  0.65350  0.86310  Biso   1.000  H
  H24      1.0000 0.11260  0.34650  0.13690  Biso   1.000  H
  H25      1.0000 0.06790  0.63380  0.86970  Biso   1.000  H
  H26      1.0000 0.93210  0.36620  0.13030  Biso   1.000  H
  C17      1.0000 0.95930  0.46920  0.94110  Biso   1.000  C
  C18      1.0000 0.04070  0.53080  0.05890  Biso   1.000  C
  H27      1.0000 0.84730  0.42900  0.93440  Biso   1.000  H
  H28      1.0000 0.15270  0.57100  0.06560  Biso   1.000  H
  H29      1.0000 0.01300  0.38570  0.92350  Biso   1.000  H
  H30      1.0000 0.98700  0.61430  0.07650  Biso   1.000  H
  O7       1.0000 0.45950  0.95780  0.33810  Biso   1.000  O
  O8       1.0000 0.54050  0.04220  0.66190  Biso   1.000  O
  O9       1.0000 0.53440  0.73060  0.34240  Biso   1.000  O
  O10      1.0000 0.46560  0.26940  0.65760  Biso   1.000  O
  C19      1.0000 0.44810  0.82710  0.16740  Biso   1.000  C
  C20      1.0000 0.55190  0.17290  0.83260  Biso   1.000  C
  C21      1.0000 0.34050  0.91400  0.10360  Biso   1.000  C
  C22      1.0000 0.65950  0.08600  0.89640  Biso   1.000  C
  H31      1.0000 0.29260  0.98360  0.13740  Biso   1.000  H
  H32      1.0000 0.70740  0.01640  0.86260  Biso   1.000  H
  C23      1.0000 0.30710  0.89310  0.98840  Biso   1.000  C
  C24      1.0000 0.69290  0.10690  0.01160  Biso   1.000  C
  C25      1.0000 0.37980  0.80020  0.93500  Biso   1.000  C
  C26      1.0000 0.62020  0.19980  0.06500  Biso   1.000  C
  H33      1.0000 0.35750  0.79370  0.85730  Biso   1.000  H
  H34      1.0000 0.64250  0.20630  0.14270  Biso   1.000  H
  C27      1.0000 0.48680  0.71600  0.99820  Biso   1.000  C
  C28      1.0000 0.51320  0.28400  0.00180  Biso   1.000  C
  H35      1.0000 0.53770  0.65080  0.96300  Biso   1.000  H
  H36      1.0000 0.46230  0.34920  0.03700  Biso   1.000  H
  C29      1.0000 0.51980  0.72630  0.11220  Biso   1.000  C
  C30      1.0000 0.48020  0.27370  0.88780  Biso   1.000  C
  H37      1.0000 0.59050  0.66600  0.15380  Biso   1.000  H
  H38      1.0000 0.40950  0.33400  0.84620  Biso   1.000  H
  C31      1.0000 0.48390  0.83810  0.29130  Biso   1.000  C
  C32      1.0000 0.51610  0.16190  0.70870  Biso   1.000  C
  N5       1.0000 0.19210  0.98100  0.92220  Biso   1.000  N
  N6       1.0000 0.80790  0.01900  0.07780  Biso   1.000  N
  O11      1.0000 0.14680  0.95600  0.82100  Biso   1.000  O
  O12      1.0000 0.85320  0.04400  0.17900  Biso   1.000  O
  O13      1.0000 0.14600  0.08290  0.96710  Biso   1.000  O
  O14      1.0000 0.85400  0.91710  0.03290  Biso   1.000  O
