data_image0
_cell_length_a       10.196
_cell_length_b       16.435
_cell_length_c       12.705
_cell_angle_alpha    90
_cell_angle_beta     97.14
_cell_angle_gamma    90

_symmetry_space_group_name_H-M    "P 1"
_symmetry_int_tables_number       1

loop_
  _symmetry_equiv_pos_as_xyz
  'x, y, z'

loop_
  _atom_site_label
  _atom_site_occupancy
  _atom_site_fract_x
  _atom_site_fract_y
  _atom_site_fract_z
  _atom_site_thermal_displace_type
  _atom_site_B_iso_or_equiv
  _atom_site_type_symbol
  Cu1      1.0000 0.25000  0.25000  0.00000  Biso   1.000  Cu
  Cu2      1.0000 0.75000  0.75000  0.00000  Biso   1.000  Cu
  Cu3      1.0000 0.75000  0.25000  0.50000  Biso   1.000  Cu
  Cu4      1.0000 0.25000  0.75000  0.50000  Biso   1.000  Cu
  O1       1.0000 0.50000  0.39980  0.25000  Biso   1.000  O
  O2       1.0000 0.00000  0.89980  0.25000  Biso   1.000  O
  O3       1.0000 0.50000  0.60020  0.75000  Biso   1.000  O
  O4       1.0000 0.00000  0.10020  0.75000  Biso   1.000  O
  O5       1.0000 0.02200  0.19900  0.93250  Biso   1.000  O
  O6       1.0000 0.52200  0.69900  0.93250  Biso   1.000  O
  O7       1.0000 0.97800  0.19900  0.56750  Biso   1.000  O
  O8       1.0000 0.47800  0.69900  0.56750  Biso   1.000  O
  O9       1.0000 0.97800  0.80100  0.06750  Biso   1.000  O
  O10      1.0000 0.47800  0.30100  0.06750  Biso   1.000  O
  O11      1.0000 0.02200  0.80100  0.43250  Biso   1.000  O
  O12      1.0000 0.52200  0.30100  0.43250  Biso   1.000  O
  N1       1.0000 0.21140  0.24560  0.15460  Biso   1.000  N
  N2       1.0000 0.71140  0.74560  0.15460  Biso   1.000  N
  N3       1.0000 0.78860  0.24560  0.34540  Biso   1.000  N
  N4       1.0000 0.28860  0.74560  0.34540  Biso   1.000  N
  N5       1.0000 0.78860  0.75440  0.84540  Biso   1.000  N
  N6       1.0000 0.28860  0.25440  0.84540  Biso   1.000  N
  N7       1.0000 0.21140  0.75440  0.65460  Biso   1.000  N
  N8       1.0000 0.71140  0.25440  0.65460  Biso   1.000  N
  N9       1.0000 0.09610  0.08230  0.44310  Biso   1.000  N
  N10      1.0000 0.59610  0.58230  0.44310  Biso   1.000  N
  N11      1.0000 0.90390  0.08230  0.05690  Biso   1.000  N
  N12      1.0000 0.40390  0.58230  0.05690  Biso   1.000  N
  N13      1.0000 0.90390  0.91770  0.55690  Biso   1.000  N
  N14      1.0000 0.40390  0.41770  0.55690  Biso   1.000  N
  N15      1.0000 0.09610  0.91770  0.94310  Biso   1.000  N
  N16      1.0000 0.59610  0.41770  0.94310  Biso   1.000  N
  H1       1.0000 0.07570  0.12760  0.47070  Biso   1.000  H
  H2       1.0000 0.57570  0.62760  0.47070  Biso   1.000  H
  H3       1.0000 0.92430  0.12760  0.02930  Biso   1.000  H
  H4       1.0000 0.42430  0.62760  0.02930  Biso   1.000  H
  H5       1.0000 0.92430  0.87240  0.52930  Biso   1.000  H
  H6       1.0000 0.42430  0.37240  0.52930  Biso   1.000  H
  H7       1.0000 0.07570  0.87240  0.97070  Biso   1.000  H
  H8       1.0000 0.57570  0.37240  0.97070  Biso   1.000  H
  O13      1.0000 0.17630  0.02410  0.30160  Biso   1.000  O
  O14      1.0000 0.67630  0.52410  0.30160  Biso   1.000  O
  O15      1.0000 0.82370  0.02410  0.19840  Biso   1.000  O
  O16      1.0000 0.32370  0.52410  0.19840  Biso   1.000  O
  O17      1.0000 0.82370  0.97590  0.69840  Biso   1.000  O
  O18      1.0000 0.32370  0.47590  0.69840  Biso   1.000  O
  O19      1.0000 0.17630  0.97590  0.80160  Biso   1.000  O
  O20      1.0000 0.67630  0.47590  0.80160  Biso   1.000  O
  C1       1.0000 0.16540  0.16860  0.30710  Biso   1.000  C
  C2       1.0000 0.66540  0.66860  0.30710  Biso   1.000  C
  C3       1.0000 0.83460  0.16860  0.19290  Biso   1.000  C
  C4       1.0000 0.33460  0.66860  0.19290  Biso   1.000  C
  C5       1.0000 0.83460  0.83140  0.69290  Biso   1.000  C
  C6       1.0000 0.33460  0.33140  0.69290  Biso   1.000  C
  C7       1.0000 0.16540  0.83140  0.80710  Biso   1.000  C
  C8       1.0000 0.66540  0.33140  0.80710  Biso   1.000  C
  C9       1.0000 0.19280  0.17420  0.20330  Biso   1.000  C
  C10      1.0000 0.69280  0.67420  0.20330  Biso   1.000  C
  C11      1.0000 0.80720  0.17420  0.29670  Biso   1.000  C
  C12      1.0000 0.30720  0.67420  0.29670  Biso   1.000  C
  C13      1.0000 0.80720  0.82580  0.79670  Biso   1.000  C
  C14      1.0000 0.30720  0.32580  0.79670  Biso   1.000  C
  C15      1.0000 0.19280  0.82580  0.70330  Biso   1.000  C
  C16      1.0000 0.69280  0.32580  0.70330  Biso   1.000  C
  H9       1.0000 0.19860  0.12640  0.16510  Biso   1.000  H
  H10      1.0000 0.69860  0.62640  0.16510  Biso   1.000  H
  H11      1.0000 0.80140  0.12640  0.33490  Biso   1.000  H
  H12      1.0000 0.30140  0.62640  0.33490  Biso   1.000  H
  H13      1.0000 0.80140  0.87360  0.83490  Biso   1.000  H
  H14      1.0000 0.30140  0.37360  0.83490  Biso   1.000  H
  H15      1.0000 0.19860  0.87360  0.66510  Biso   1.000  H
  H16      1.0000 0.69860  0.37360  0.66510  Biso   1.000  H
  C17      1.0000 0.20380  0.31390  0.21060  Biso   1.000  C
  C18      1.0000 0.70380  0.81390  0.21060  Biso   1.000  C
  C19      1.0000 0.79620  0.31390  0.28940  Biso   1.000  C
  C20      1.0000 0.29620  0.81390  0.28940  Biso   1.000  C
  C21      1.0000 0.79620  0.68610  0.78940  Biso   1.000  C
  C22      1.0000 0.29620  0.18610  0.78940  Biso   1.000  C
  C23      1.0000 0.20380  0.68610  0.71060  Biso   1.000  C
  C24      1.0000 0.70380  0.18610  0.71060  Biso   1.000  C
  H17      1.0000 0.21750  0.36340  0.17830  Biso   1.000  H
  H18      1.0000 0.71750  0.86340  0.17830  Biso   1.000  H
  H19      1.0000 0.78250  0.36340  0.32170  Biso   1.000  H
  H20      1.0000 0.28250  0.86340  0.32170  Biso   1.000  H
  H21      1.0000 0.78250  0.63660  0.82170  Biso   1.000  H
  H22      1.0000 0.28250  0.13660  0.82170  Biso   1.000  H
  H23      1.0000 0.21750  0.63660  0.67830  Biso   1.000  H
  H24      1.0000 0.71750  0.13660  0.67830  Biso   1.000  H
  C25      1.0000 0.17620  0.31410  0.31500  Biso   1.000  C
  C26      1.0000 0.67620  0.81410  0.31500  Biso   1.000  C
  C27      1.0000 0.82380  0.31410  0.18500  Biso   1.000  C
  C28      1.0000 0.32380  0.81410  0.18500  Biso   1.000  C
  C29      1.0000 0.82380  0.68590  0.68500  Biso   1.000  C
  C30      1.0000 0.32380  0.18590  0.68500  Biso   1.000  C
  C31      1.0000 0.17620  0.68590  0.81500  Biso   1.000  C
  C32      1.0000 0.67620  0.18590  0.81500  Biso   1.000  C
  H25      1.0000 0.17080  0.36270  0.35140  Biso   1.000  H
  H26      1.0000 0.67080  0.86270  0.35140  Biso   1.000  H
  H27      1.0000 0.82920  0.36270  0.14860  Biso   1.000  H
  H28      1.0000 0.32920  0.86270  0.14860  Biso   1.000  H
  H29      1.0000 0.82920  0.63730  0.64860  Biso   1.000  H
  H30      1.0000 0.32920  0.13730  0.64860  Biso   1.000  H
  H31      1.0000 0.17080  0.63730  0.85140  Biso   1.000  H
  H32      1.0000 0.67080  0.13730  0.85140  Biso   1.000  H
  C33      1.0000 0.15720  0.24070  0.36350  Biso   1.000  C
  C34      1.0000 0.65720  0.74070  0.36350  Biso   1.000  C
  C35      1.0000 0.84280  0.24070  0.13650  Biso   1.000  C
  C36      1.0000 0.34280  0.74070  0.13650  Biso   1.000  C
  C37      1.0000 0.84280  0.75930  0.63650  Biso   1.000  C
  C38      1.0000 0.34280  0.25930  0.63650  Biso   1.000  C
  C39      1.0000 0.15720  0.75930  0.86350  Biso   1.000  C
  C40      1.0000 0.65720  0.25930  0.86350  Biso   1.000  C
  H33      1.0000 0.13890  0.23940  0.43340  Biso   1.000  H
  H34      1.0000 0.63890  0.73940  0.43340  Biso   1.000  H
  H35      1.0000 0.86110  0.23940  0.06660  Biso   1.000  H
  H36      1.0000 0.36110  0.73940  0.06660  Biso   1.000  H
  H37      1.0000 0.86110  0.76060  0.56660  Biso   1.000  H
  H38      1.0000 0.36110  0.26060  0.56660  Biso   1.000  H
  H39      1.0000 0.13890  0.76060  0.93340  Biso   1.000  H
  H40      1.0000 0.63890  0.26060  0.93340  Biso   1.000  H
  C41      1.0000 0.14640  0.08520  0.35090  Biso   1.000  C
  C42      1.0000 0.64640  0.58520  0.35090  Biso   1.000  C
  C43      1.0000 0.85360  0.08520  0.14910  Biso   1.000  C
  C44      1.0000 0.35360  0.58520  0.14910  Biso   1.000  C
  C45      1.0000 0.85360  0.91480  0.64910  Biso   1.000  C
  C46      1.0000 0.35360  0.41480  0.64910  Biso   1.000  C
  C47      1.0000 0.14640  0.91480  0.85090  Biso   1.000  C
  C48      1.0000 0.64640  0.41480  0.85090  Biso   1.000  C
  C49      1.0000 0.07360  0.00770  0.50030  Biso   1.000  C
  C50      1.0000 0.57360  0.50770  0.50030  Biso   1.000  C
  C51      1.0000 0.92640  0.00770  0.99970  Biso   1.000  C
  C52      1.0000 0.42640  0.50770  0.99970  Biso   1.000  C
  C53      1.0000 0.92640  0.99230  0.49970  Biso   1.000  C
  C54      1.0000 0.42640  0.49230  0.49970  Biso   1.000  C
  C55      1.0000 0.07360  0.99230  0.00030  Biso   1.000  C
  C56      1.0000 0.57360  0.49230  0.00030  Biso   1.000  C
  H41      1.0000 0.11530  0.01210  0.57300  Biso   1.000  H
  H42      1.0000 0.61530  0.51210  0.57300  Biso   1.000  H
  H43      1.0000 0.88470  0.01210  0.92700  Biso   1.000  H
  H44      1.0000 0.38470  0.51210  0.92700  Biso   1.000  H
  H45      1.0000 0.88470  0.98790  0.42700  Biso   1.000  H
  H46      1.0000 0.38470  0.48790  0.42700  Biso   1.000  H
  H47      1.0000 0.11530  0.98790  0.07300  Biso   1.000  H
  H48      1.0000 0.61530  0.48790  0.07300  Biso   1.000  H
  H49      1.0000 0.11330  0.96210  0.46740  Biso   1.000  H
  H50      1.0000 0.61330  0.46210  0.46740  Biso   1.000  H
  H51      1.0000 0.88670  0.96210  0.03260  Biso   1.000  H
  H52      1.0000 0.38670  0.46210  0.03260  Biso   1.000  H
  H53      1.0000 0.88670  0.03790  0.53260  Biso   1.000  H
  H54      1.0000 0.38670  0.53790  0.53260  Biso   1.000  H
  H55      1.0000 0.11330  0.03790  0.96740  Biso   1.000  H
  H56      1.0000 0.61330  0.53790  0.96740  Biso   1.000  H
  O21      1.0000 0.18660  0.36270  0.98940  Biso   1.000  O
  O22      1.0000 0.68660  0.86270  0.98940  Biso   1.000  O
  O23      1.0000 0.81340  0.36270  0.51060  Biso   1.000  O
  O24      1.0000 0.31340  0.86270  0.51060  Biso   1.000  O
  O25      1.0000 0.81340  0.63730  0.01060  Biso   1.000  O
  O26      1.0000 0.31340  0.13730  0.01060  Biso   1.000  O
  O27      1.0000 0.18660  0.63730  0.48940  Biso   1.000  O
  O28      1.0000 0.68660  0.13730  0.48940  Biso   1.000  O
  O29      1.0000 0.96830  0.35330  0.95260  Biso   1.000  O
  O30      1.0000 0.46830  0.85330  0.95260  Biso   1.000  O
  O31      1.0000 0.03170  0.35330  0.54740  Biso   1.000  O
  O32      1.0000 0.53170  0.85330  0.54740  Biso   1.000  O
  O33      1.0000 0.03170  0.64670  0.04740  Biso   1.000  O
  O34      1.0000 0.53170  0.14670  0.04740  Biso   1.000  O
  O35      1.0000 0.96830  0.64670  0.45260  Biso   1.000  O
  O36      1.0000 0.46830  0.14670  0.45260  Biso   1.000  O
  C57      1.0000 0.07090  0.39240  0.97560  Biso   1.000  C
  C58      1.0000 0.57090  0.89240  0.97560  Biso   1.000  C
  C59      1.0000 0.92910  0.39240  0.52440  Biso   1.000  C
  C60      1.0000 0.42910  0.89240  0.52440  Biso   1.000  C
  C61      1.0000 0.92910  0.60760  0.02440  Biso   1.000  C
  C62      1.0000 0.42910  0.10760  0.02440  Biso   1.000  C
  C63      1.0000 0.07090  0.60760  0.47560  Biso   1.000  C
  C64      1.0000 0.57090  0.10760  0.47560  Biso   1.000  C
  C65      1.0000 0.06420  0.48370  0.99320  Biso   1.000  C
  C66      1.0000 0.56420  0.98370  0.99320  Biso   1.000  C
  C67      1.0000 0.93580  0.48370  0.50680  Biso   1.000  C
  C68      1.0000 0.43580  0.98370  0.50680  Biso   1.000  C
  C69      1.0000 0.93580  0.51630  0.00680  Biso   1.000  C
  C70      1.0000 0.43580  0.01630  0.00680  Biso   1.000  C
  C71      1.0000 0.06420  0.51630  0.49320  Biso   1.000  C
  C72      1.0000 0.56420  0.01630  0.49320  Biso   1.000  C
  H57      1.0000 0.12500  0.49740  0.05550  Biso   1.000  H
  H58      1.0000 0.62500  0.99740  0.05550  Biso   1.000  H
  H59      1.0000 0.87500  0.49740  0.44450  Biso   1.000  H
  H60      1.0000 0.37500  0.99740  0.44450  Biso   1.000  H
  H61      1.0000 0.87500  0.50260  0.94450  Biso   1.000  H
  H62      1.0000 0.37500  0.00260  0.94450  Biso   1.000  H
  H63      1.0000 0.12500  0.50260  0.55550  Biso   1.000  H
  H64      1.0000 0.62500  0.00260  0.55550  Biso   1.000  H
  H65      1.0000 0.09510  0.51080  0.93310  Biso   1.000  H
  H66      1.0000 0.59510  0.01080  0.93310  Biso   1.000  H
  H67      1.0000 0.90490  0.51080  0.56690  Biso   1.000  H
  H68      1.0000 0.40490  0.01080  0.56690  Biso   1.000  H
  H69      1.0000 0.90490  0.48920  0.06690  Biso   1.000  H
  H70      1.0000 0.40490  0.98920  0.06690  Biso   1.000  H
  H71      1.0000 0.09510  0.48920  0.43310  Biso   1.000  H
  H72      1.0000 0.59510  0.98920  0.43310  Biso   1.000  H
