data_image0
_cell_length_a       8.731
_cell_length_b       11.137
_cell_length_c       12.603
_cell_angle_alpha    106.51
_cell_angle_beta     90.29
_cell_angle_gamma    98.08

_symmetry_space_group_name_H-M    "P 1"
_symmetry_int_tables_number       1

loop_
  _symmetry_equiv_pos_as_xyz
  'x, y, z'

loop_
  _atom_site_label
  _atom_site_occupancy
  _atom_site_fract_x
  _atom_site_fract_y
  _atom_site_fract_z
  _atom_site_thermal_displace_type
  _atom_site_B_iso_or_equiv
  _atom_site_type_symbol
  Cu1      1.0000 0.00000  0.00000  0.00000  Biso   1.000  Cu
  O1       1.0000 0.30290  0.70640  0.82932  Biso   1.000  O
  O2       1.0000 0.69710  0.29360  0.17068  Biso   1.000  O
  O3       1.0000 0.91460  0.18970  0.85371  Biso   1.000  O
  O4       1.0000 0.08540  0.81030  0.14629  Biso   1.000  O
  O5       1.0000 0.95030  0.99211  0.84497  Biso   1.000  O
  O6       1.0000 0.04970  0.00789  0.15503  Biso   1.000  O
  O7       1.0000 0.66290  0.25410  0.53070  Biso   1.000  O
  O8       1.0000 0.33710  0.74590  0.46930  Biso   1.000  O
  O9       1.0000 0.62590  0.11200  0.37930  Biso   1.000  O
  O10      1.0000 0.37410  0.88800  0.62070  Biso   1.000  O
  N1       1.0000 0.77510  0.93333  0.01545  Biso   1.000  N
  N2       1.0000 0.22490  0.06667  0.98455  Biso   1.000  N
  N3       1.0000 0.52070  0.65160  0.74956  Biso   1.000  N
  N4       1.0000 0.47930  0.34840  0.25044  Biso   1.000  N
  H1       1.0000 0.61990  0.65810  0.75540  Biso   1.000  H
  H2       1.0000 0.38010  0.34190  0.24460  Biso   1.000  H
  N5       1.0000 0.67290  0.14970  0.47460  Biso   1.000  N
  N6       1.0000 0.32710  0.85030  0.52540  Biso   1.000  N
  C1       1.0000 0.53840  0.80260  0.93286  Biso   1.000  C
  C2       1.0000 0.46160  0.19740  0.06714  Biso   1.000  C
  C3       1.0000 0.69240  0.85200  0.92759  Biso   1.000  C
  C4       1.0000 0.30760  0.14800  0.07241  Biso   1.000  C
  H3       1.0000 0.74010  0.82790  0.86060  Biso   1.000  H
  H4       1.0000 0.25990  0.17210  0.13940  Biso   1.000  H
  C5       1.0000 0.70500  0.96760  0.11180  Biso   1.000  C
  C6       1.0000 0.29500  0.03240  0.88820  Biso   1.000  C
  H5       1.0000 0.76170  0.02330  0.17320  Biso   1.000  H
  H6       1.0000 0.23830  0.97670  0.82680  Biso   1.000  H
  C7       1.0000 0.55120  0.92310  0.12320  Biso   1.000  C
  C8       1.0000 0.44880  0.07690  0.87680  Biso   1.000  C
  H7       1.0000 0.50550  0.94920  0.19080  Biso   1.000  H
  H8       1.0000 0.49450  0.05080  0.80920  Biso   1.000  H
  C9       1.0000 0.46730  0.84000  0.03310  Biso   1.000  C
  C10      1.0000 0.53270  0.16000  0.96690  Biso   1.000  C
  H9       1.0000 0.36410  0.80900  0.03900  Biso   1.000  H
  H10      1.0000 0.63590  0.19100  0.96100  Biso   1.000  H
  C11      1.0000 0.44540  0.71570  0.83240  Biso   1.000  C
  C12      1.0000 0.55460  0.28430  0.16760  Biso   1.000  C
  C13      1.0000 0.43770  0.56980  0.64820  Biso   1.000  C
  C14      1.0000 0.56230  0.43020  0.35180  Biso   1.000  C
  H11      1.0000 0.39280  0.49050  0.66060  Biso   1.000  H
  H12      1.0000 0.60720  0.50950  0.33940  Biso   1.000  H
  H13      1.0000 0.35380  0.61010  0.62990  Biso   1.000  H
  H14      1.0000 0.64620  0.38990  0.37010  Biso   1.000  H
  C15      1.0000 0.54200  0.54340  0.55290  Biso   1.000  C
  C16      1.0000 0.45800  0.45660  0.44710  Biso   1.000  C
  H15      1.0000 0.58560  0.62280  0.54000  Biso   1.000  H
  H16      1.0000 0.41440  0.37720  0.46000  Biso   1.000  H
  H17      1.0000 0.62690  0.50460  0.57200  Biso   1.000  H
  H18      1.0000 0.37310  0.49540  0.42800  Biso   1.000  H
  C17      1.0000 0.85480  0.02870  0.68370  Biso   1.000  C
  C18      1.0000 0.14520  0.97130  0.31630  Biso   1.000  C
  C19      1.0000 0.79250  0.10860  0.63580  Biso   1.000  C
  C20      1.0000 0.20750  0.89140  0.36420  Biso   1.000  C
  H19      1.0000 0.78580  0.19140  0.67660  Biso   1.000  H
  H20      1.0000 0.21420  0.80860  0.32340  Biso   1.000  H
  C21      1.0000 0.73990  0.06400  0.52570  Biso   1.000  C
  C22      1.0000 0.26010  0.93600  0.47430  Biso   1.000  C
  C23      1.0000 0.74900  0.94280  0.46160  Biso   1.000  C
  C24      1.0000 0.25100  0.05720  0.53840  Biso   1.000  C
  H21      1.0000 0.71430  0.91520  0.38760  Biso   1.000  H
  H22      1.0000 0.28570  0.08480  0.61240  Biso   1.000  H
  C25      1.0000 0.81100  0.86430  0.51060  Biso   1.000  C
  C26      1.0000 0.18900  0.13570  0.48940  Biso   1.000  C
  H23      1.0000 0.81800  0.78170  0.46920  Biso   1.000  H
  H24      1.0000 0.18200  0.21830  0.53080  Biso   1.000  H
  C27      1.0000 0.86330  0.90560  0.62060  Biso   1.000  C
  C28      1.0000 0.13670  0.09440  0.37940  Biso   1.000  C
  H25      1.0000 0.90450  0.85070  0.65250  Biso   1.000  H
  H26      1.0000 0.09550  0.14930  0.34750  Biso   1.000  H
  C29      1.0000 0.91160  0.07530  0.80400  Biso   1.000  C
  C30      1.0000 0.08840  0.92470  0.19600  Biso   1.000  C
  O11      1.0000 0.95500  0.22173  0.07256  Biso   1.000  O
  O12      1.0000 0.04500  0.77827  0.92744  Biso   1.000  O
  O13      1.0000 0.70950  0.70610  0.23780  Biso   1.000  O
  O14      1.0000 0.29050  0.29390  0.76220  Biso   1.000  O
  O15      1.0000 0.81770  0.63300  0.08180  Biso   1.000  O
  O16      1.0000 0.18230  0.36700  0.91820  Biso   1.000  O
  O17      1.0000 0.47380  0.67340  0.23060  Biso   1.000  O
  O18      1.0000 0.52620  0.32660  0.76940  Biso   1.000  O
  N7       1.0000 0.59690  0.65370  0.18910  Biso   1.000  N
  N8       1.0000 0.40310  0.34630  0.81090  Biso   1.000  N
  C31      1.0000 0.69590  0.64580  0.14260  Biso   1.000  C
  C32      1.0000 0.30410  0.35420  0.85740  Biso   1.000  C
  C33      1.0000 0.57120  0.56940  0.08040  Biso   1.000  C
  C34      1.0000 0.42880  0.43060  0.91960  Biso   1.000  C
  C35      1.0000 0.40450  0.58310  0.13610  Biso   1.000  C
  C36      1.0000 0.59550  0.41690  0.86390  Biso   1.000  C
  C37      1.0000 0.26900  0.52330  0.08220  Biso   1.000  C
  C38      1.0000 0.73100  0.47670  0.91780  Biso   1.000  C
  C39      1.0000 0.74090  0.55500  0.02530  Biso   1.000  C
  C40      1.0000 0.25910  0.44500  0.97470  Biso   1.000  C
  C41      1.0000 0.45410  0.50800  0.02540  Biso   1.000  C
  C42      1.0000 0.54590  0.49200  0.97460  Biso   1.000  C
