data_image0
_cell_length_a       9.0733
_cell_length_b       10.0843
_cell_length_c       12.3969
_cell_angle_alpha    66.846
_cell_angle_beta     89.438
_cell_angle_gamma    79.388

_symmetry_space_group_name_H-M    "P 1"
_symmetry_int_tables_number       1

loop_
  _symmetry_equiv_pos_as_xyz
  'x, y, z'

loop_
  _atom_site_label
  _atom_site_occupancy
  _atom_site_fract_x
  _atom_site_fract_y
  _atom_site_fract_z
  _atom_site_thermal_displace_type
  _atom_site_B_iso_or_equiv
  _atom_site_type_symbol
  Cu1      1.0000 0.66858  0.59780  0.54449  Biso   1.000  Cu
  Cu2      1.0000 0.33142  0.40220  0.45551  Biso   1.000  Cu
  O1       1.0000 0.67625  0.80000  0.53889  Biso   1.000  O
  O2       1.0000 0.32375  0.20000  0.46111  Biso   1.000  O
  O3       1.0000 0.87030  0.64868  0.65595  Biso   1.000  O
  O4       1.0000 0.12970  0.35132  0.34405  Biso   1.000  O
  O5       1.0000 0.57015  0.31392  0.54060  Biso   1.000  O
  O6       1.0000 0.42985  0.68608  0.45940  Biso   1.000  O
  O7       1.0000 0.76490  0.39611  0.58026  Biso   1.000  O
  O8       1.0000 0.23510  0.60389  0.41974  Biso   1.000  O
  N1       1.0000 0.56640  0.54490  0.69893  Biso   1.000  N
  N2       1.0000 0.43360  0.45510  0.30107  Biso   1.000  N
  N3       1.0000 0.42720  0.19450  0.05948  Biso   1.000  N
  N4       1.0000 0.57280  0.80550  0.94052  Biso   1.000  N
  N5       1.0000 0.47750  0.05270  0.14123  Biso   1.000  N
  N6       1.0000 0.52250  0.94730  0.85877  Biso   1.000  N
  N7       1.0000 0.64800  0.11251  0.01409  Biso   1.000  N
  N8       1.0000 0.35200  0.88749  0.98591  Biso   1.000  N
  N9       1.0000 0.78490  0.09920  0.96240  Biso   1.000  N
  N10      1.0000 0.21510  0.90080  0.03760  Biso   1.000  N
  H1       1.0000 0.85200  0.02010  0.99330  Biso   1.000  H
  H2       1.0000 0.14800  0.97990  0.00670  Biso   1.000  H
  H3       1.0000 0.80170  0.17000  0.89970  Biso   1.000  H
  H4       1.0000 0.19830  0.83000  0.10030  Biso   1.000  H
  N11      1.0000 0.73620  0.66582  0.37843  Biso   1.000  N
  N12      1.0000 0.26380  0.33418  0.62157  Biso   1.000  N
  C1       1.0000 0.51180  0.37560  0.88631  Biso   1.000  C
  C2       1.0000 0.48820  0.62440  0.11369  Biso   1.000  C
  C3       1.0000 0.59010  0.41000  0.78593  Biso   1.000  C
  C4       1.0000 0.40990  0.59000  0.21407  Biso   1.000  C
  H5       1.0000 0.66240  0.33640  0.77820  Biso   1.000  H
  H6       1.0000 0.33760  0.66360  0.22180  Biso   1.000  H
  C5       1.0000 0.46400  0.65070  0.71080  Biso   1.000  C
  C6       1.0000 0.53600  0.34930  0.28920  Biso   1.000  C
  H7       1.0000 0.44870  0.74470  0.65140  Biso   1.000  H
  H8       1.0000 0.55130  0.25530  0.34860  Biso   1.000  H
  C7       1.0000 0.38040  0.62640  0.80710  Biso   1.000  C
  C8       1.0000 0.61960  0.37360  0.19290  Biso   1.000  C
  H9       1.0000 0.30930  0.70230  0.81250  Biso   1.000  H
  H10      1.0000 0.69070  0.29770  0.18750  Biso   1.000  H
  C9       1.0000 0.40360  0.48790  0.89550  Biso   1.000  C
  C10      1.0000 0.59640  0.51210  0.10450  Biso   1.000  C
  H11      1.0000 0.34750  0.46910  0.96120  Biso   1.000  H
  H12      1.0000 0.65250  0.53090  0.03880  Biso   1.000  H
  C11      1.0000 0.52980  0.22920  0.98412  Biso   1.000  C
  C12      1.0000 0.47020  0.77080  0.01588  Biso   1.000  C
  C13      1.0000 0.61120  0.00600  0.11352  Biso   1.000  C
  C14      1.0000 0.38880  0.99400  0.88648  Biso   1.000  C
  C15      1.0000 0.70230  0.86060  0.18579  Biso   1.000  C
  C16      1.0000 0.29770  0.13940  0.81421  Biso   1.000  C
  C17      1.0000 0.66770  0.79920  0.30217  Biso   1.000  C
  C18      1.0000 0.33230  0.20080  0.69783  Biso   1.000  C
  H13      1.0000 0.59320  0.85350  0.32860  Biso   1.000  H
  H14      1.0000 0.40680  0.14650  0.67140  Biso   1.000  H
  C19      1.0000 0.84450  0.58870  0.34010  Biso   1.000  C
  C20      1.0000 0.15550  0.41130  0.65990  Biso   1.000  C
  H15      1.0000 0.89280  0.49580  0.39200  Biso   1.000  H
  H16      1.0000 0.10720  0.50420  0.60800  Biso   1.000  H
  C21      1.0000 0.88640  0.64290  0.22590  Biso   1.000  C
  C22      1.0000 0.11360  0.35710  0.77410  Biso   1.000  C
  H17      1.0000 0.96250  0.58710  0.20210  Biso   1.000  H
  H18      1.0000 0.03750  0.41290  0.79790  Biso   1.000  H
  C23      1.0000 0.81540  0.77990  0.14710  Biso   1.000  C
  C24      1.0000 0.18460  0.22010  0.85290  Biso   1.000  C
  H19      1.0000 0.84250  0.81750  0.06990  Biso   1.000  H
  H20      1.0000 0.15750  0.18250  0.93010  Biso   1.000  H
  C25      1.0000 0.84670  0.90090  0.61531  Biso   1.000  C
  C26      1.0000 0.15330  0.09910  0.38469  Biso   1.000  C
  C27      1.0000 0.75150  0.03660  0.58726  Biso   1.000  C
  C28      1.0000 0.24850  0.96340  0.41274  Biso   1.000  C
  H21      1.0000 0.65260  0.05140  0.55920  Biso   1.000  H
  H22      1.0000 0.34740  0.94860  0.44080  Biso   1.000  H
  C29      1.0000 0.80470  0.15020  0.60131  Biso   1.000  C
  C30      1.0000 0.19530  0.84980  0.39869  Biso   1.000  C
  C31      1.0000 0.95210  0.12720  0.64320  Biso   1.000  C
  C32      1.0000 0.04790  0.87280  0.35680  Biso   1.000  C
  H23      1.0000 0.98770  0.20300  0.65270  Biso   1.000  H
  H24      1.0000 0.01230  0.79700  0.34730  Biso   1.000  H
  C33      1.0000 0.04690  0.99180  0.67120  Biso   1.000  C
  C34      1.0000 0.95310  0.00820  0.32880  Biso   1.000  C
  H25      1.0000 0.14600  0.97710  0.69890  Biso   1.000  H
  H26      1.0000 0.85400  0.02290  0.30110  Biso   1.000  H
  C35      1.0000 0.99410  0.87940  0.65790  Biso   1.000  C
  C36      1.0000 0.00590  0.12060  0.34210  Biso   1.000  C
  H27      1.0000 0.05750  0.78840  0.67740  Biso   1.000  H
  H28      1.0000 0.94250  0.21160  0.32260  Biso   1.000  H
  C37      1.0000 0.79480  0.77520  0.60214  Biso   1.000  C
  C38      1.0000 0.20520  0.22480  0.39786  Biso   1.000  C
  C39      1.0000 0.70260  0.29740  0.57066  Biso   1.000  C
  C40      1.0000 0.29740  0.70260  0.42934  Biso   1.000  C
  O9       1.0000 0.83960  0.63600  0.89044  Biso   1.000  O
  O10      1.0000 0.16040  0.36400  0.10956  Biso   1.000  O
  H29      1.0000 0.84840  0.64410  0.81810  Biso   1.000  H
  H30      1.0000 0.15160  0.35590  0.18190  Biso   1.000  H
  H31      1.0000 0.75730  0.69850  0.89130  Biso   1.000  H
  H32      1.0000 0.24270  0.30150  0.10870  Biso   1.000  H
  O11      1.0000 0.89090  0.32510  0.01240  Biso   1.000  O
  O12      1.0000 0.10910  0.67490  0.98760  Biso   1.000  O
  H33      1.0000 0.86550  0.42060  0.97360  Biso   1.000  H
  H34      1.0000 0.13450  0.57940  0.02640  Biso   1.000  H
  H35      1.0000 0.97530  0.32430  0.05230  Biso   1.000  H
  H36      1.0000 0.02470  0.67570  0.94770  Biso   1.000  H
