data_image0
_cell_length_a       9.0805
_cell_length_b       10.0891
_cell_length_c       12.4016
_cell_angle_alpha    66.849
_cell_angle_beta     89.442
_cell_angle_gamma    79.389

_symmetry_space_group_name_H-M    "P 1"
_symmetry_int_tables_number       1

loop_
  _symmetry_equiv_pos_as_xyz
  'x, y, z'

loop_
  _atom_site_label
  _atom_site_occupancy
  _atom_site_fract_x
  _atom_site_fract_y
  _atom_site_fract_z
  _atom_site_thermal_displace_type
  _atom_site_B_iso_or_equiv
  _atom_site_type_symbol
  Cu1      1.0000 0.66859  0.59777  0.54447  Biso   1.000  Cu
  Cu2      1.0000 0.33141  0.40223  0.45553  Biso   1.000  Cu
  O1       1.0000 0.67600  0.80080  0.53870  Biso   1.000  O
  O2       1.0000 0.32400  0.19920  0.46130  Biso   1.000  O
  N1       1.0000 0.73640  0.66620  0.37840  Biso   1.000  N
  N2       1.0000 0.26360  0.33380  0.62160  Biso   1.000  N
  O3       1.0000 0.86940  0.64890  0.65580  Biso   1.000  O
  O4       1.0000 0.13060  0.35110  0.34420  Biso   1.000  O
  C1       1.0000 0.79460  0.77500  0.60230  Biso   1.000  C
  C2       1.0000 0.20540  0.22500  0.39770  Biso   1.000  C
  N3       1.0000 0.47760  0.05370  0.14050  Biso   1.000  N
  N4       1.0000 0.52240  0.94630  0.85950  Biso   1.000  N
  C3       1.0000 0.84620  0.90120  0.61520  Biso   1.000  C
  C4       1.0000 0.15380  0.09880  0.38480  Biso   1.000  C
  C5       1.0000 0.66790  0.79920  0.30200  Biso   1.000  C
  C6       1.0000 0.33210  0.20080  0.69800  Biso   1.000  C
  H1       1.0000 0.59150  0.85430  0.32900  Biso   1.000  H
  H2       1.0000 0.40850  0.14570  0.67100  Biso   1.000  H
  N5       1.0000 0.64820  0.11220  0.01480  Biso   1.000  N
  N6       1.0000 0.35180  0.88780  0.98520  Biso   1.000  N
  C7       1.0000 0.52970  0.22910  0.98370  Biso   1.000  C
  C8       1.0000 0.47030  0.77090  0.01630  Biso   1.000  C
  C9       1.0000 0.70230  0.86090  0.18580  Biso   1.000  C
  C10      1.0000 0.29770  0.13910  0.81420  Biso   1.000  C
  C11      1.0000 0.61070  0.00600  0.11340  Biso   1.000  C
  C12      1.0000 0.38930  0.99400  0.88660  Biso   1.000  C
  C13      1.0000 0.99330  0.87900  0.65840  Biso   1.000  C
  C14      1.0000 0.00670  0.12100  0.34160  Biso   1.000  C
  H3       1.0000 0.05750  0.78590  0.67810  Biso   1.000  H
  H4       1.0000 0.94250  0.21410  0.32190  Biso   1.000  H
  N7       1.0000 0.42620  0.19410  0.06000  Biso   1.000  N
  N8       1.0000 0.57380  0.80590  0.94000  Biso   1.000  N
  C15      1.0000 0.04730  0.99070  0.67290  Biso   1.000  C
  C16      1.0000 0.95270  0.00930  0.32710  Biso   1.000  C
  H5       1.0000 0.14810  0.97500  0.70230  Biso   1.000  H
  H6       1.0000 0.85190  0.02500  0.29770  Biso   1.000  H
  C17      1.0000 0.75150  0.03640  0.58740  Biso   1.000  C
  C18      1.0000 0.24850  0.96360  0.41260  Biso   1.000  C
  H7       1.0000 0.65070  0.05150  0.55830  Biso   1.000  H
  H8       1.0000 0.34930  0.94850  0.44170  Biso   1.000  H
  N9       1.0000 0.78520  0.09910  0.96220  Biso   1.000  N
  N10      1.0000 0.21480  0.90090  0.03780  Biso   1.000  N
  H9       1.0000 0.85370  0.01800  0.99320  Biso   1.000  H
  H10      1.0000 0.14630  0.98200  0.00680  Biso   1.000  H
  H11      1.0000 0.80230  0.17210  0.89840  Biso   1.000  H
  H12      1.0000 0.19770  0.82790  0.10160  Biso   1.000  H
  C19      1.0000 0.81560  0.77980  0.14730  Biso   1.000  C
  C20      1.0000 0.18440  0.22020  0.85270  Biso   1.000  C
  H13      1.0000 0.84360  0.81790  0.06850  Biso   1.000  H
  H14      1.0000 0.15640  0.18210  0.93150  Biso   1.000  H
  C21      1.0000 0.84450  0.58850  0.34010  Biso   1.000  C
  C22      1.0000 0.15550  0.41150  0.65990  Biso   1.000  C
  H15      1.0000 0.89340  0.49350  0.39310  Biso   1.000  H
  H16      1.0000 0.10660  0.50650  0.60690  Biso   1.000  H
  C23      1.0000 0.88620  0.64220  0.22690  Biso   1.000  C
  C24      1.0000 0.11380  0.35780  0.77310  Biso   1.000  C
  H17      1.0000 0.96390  0.58480  0.20290  Biso   1.000  H
  H18      1.0000 0.03610  0.41520  0.79710  Biso   1.000  H
  C25      1.0000 0.95270  0.12610  0.64420  Biso   1.000  C
  C26      1.0000 0.04730  0.87390  0.35580  Biso   1.000  C
  H19      1.0000 0.98940  0.20360  0.65340  Biso   1.000  H
  H20      1.0000 0.01060  0.79640  0.34660  Biso   1.000  H
  C27      1.0000 0.80400  0.14990  0.60180  Biso   1.000  C
  C28      1.0000 0.19600  0.85010  0.39820  Biso   1.000  C
  O5       1.0000 0.83860  0.63690  0.88860  Biso   1.000  O
  O6       1.0000 0.16140  0.36310  0.11140  Biso   1.000  O
  O7       1.0000 0.89260  0.32620  0.01260  Biso   1.000  O
  O8       1.0000 0.10740  0.67380  0.98740  Biso   1.000  O
  C29      1.0000 0.70320  0.29710  0.57080  Biso   1.000  C
  C30      1.0000 0.29680  0.70290  0.42920  Biso   1.000  C
  O9       1.0000 0.57040  0.31420  0.54100  Biso   1.000  O
  O10      1.0000 0.42960  0.68580  0.45900  Biso   1.000  O
  O11      1.0000 0.76540  0.39610  0.58020  Biso   1.000  O
  O12      1.0000 0.23460  0.60390  0.41980  Biso   1.000  O
  C31      1.0000 0.51130  0.37620  0.88640  Biso   1.000  C
  C32      1.0000 0.48870  0.62380  0.11360  Biso   1.000  C
  N11      1.0000 0.56650  0.54490  0.69910  Biso   1.000  N
  N12      1.0000 0.43350  0.45510  0.30090  Biso   1.000  N
  C33      1.0000 0.59020  0.40910  0.78600  Biso   1.000  C
  C34      1.0000 0.40980  0.59090  0.21400  Biso   1.000  C
  H21      1.0000 0.66320  0.33360  0.77800  Biso   1.000  H
  H22      1.0000 0.33680  0.66640  0.22200  Biso   1.000  H
  C35      1.0000 0.38040  0.62620  0.80750  Biso   1.000  C
  C36      1.0000 0.61960  0.37380  0.19250  Biso   1.000  C
  H23      1.0000 0.30800  0.70370  0.81320  Biso   1.000  H
  H24      1.0000 0.69200  0.29630  0.18680  Biso   1.000  H
  C37      1.0000 0.46400  0.65120  0.71000  Biso   1.000  C
  C38      1.0000 0.53600  0.34880  0.29000  Biso   1.000  C
  H25      1.0000 0.44790  0.74700  0.64910  Biso   1.000  H
  H26      1.0000 0.55210  0.25300  0.35090  Biso   1.000  H
  C39      1.0000 0.40360  0.48750  0.89620  Biso   1.000  C
  C40      1.0000 0.59640  0.51250  0.10380  Biso   1.000  C
  H27      1.0000 0.34650  0.46810  0.96350  Biso   1.000  H
  H28      1.0000 0.65350  0.53190  0.03650  Biso   1.000  H
