data_image0
_cell_length_a       15.987
_cell_length_b       16.865
_cell_length_c       18.229
_cell_angle_alpha    95.956
_cell_angle_beta     95.262
_cell_angle_gamma    110.902

_symmetry_space_group_name_H-M    "P 1"
_symmetry_int_tables_number       1

loop_
  _symmetry_equiv_pos_as_xyz
  'x, y, z'

loop_
  _atom_site_label
  _atom_site_occupancy
  _atom_site_fract_x
  _atom_site_fract_y
  _atom_site_fract_z
  _atom_site_thermal_displace_type
  _atom_site_B_iso_or_equiv
  _atom_site_type_symbol
  Cu1      1.0000 0.23566  0.61761  0.26182  Biso   1.000  Cu
  Cu2      1.0000 0.76434  0.38239  0.73818  Biso   1.000  Cu
  Cu3      1.0000 0.27423  0.12797  0.76679  Biso   1.000  Cu
  Cu4      1.0000 0.72577  0.87203  0.23321  Biso   1.000  Cu
  Cu5      1.0000 0.25070  0.12393  0.23555  Biso   1.000  Cu
  Cu6      1.0000 0.74930  0.87607  0.76445  Biso   1.000  Cu
  Cu7      1.0000 0.24845  0.61911  0.73510  Biso   1.000  Cu
  Cu8      1.0000 0.75155  0.38089  0.26490  Biso   1.000  Cu
  O1       1.0000 0.16430  0.60150  0.16433  Biso   1.000  O
  O2       1.0000 0.83570  0.39850  0.83567  Biso   1.000  O
  O3       1.0000 0.27080  0.69420  0.11080  Biso   1.000  O
  O4       1.0000 0.72920  0.30580  0.88920  Biso   1.000  O
  O5       1.0000 0.85430  0.58750  0.05580  Biso   1.000  O
  O6       1.0000 0.14570  0.41250  0.94420  Biso   1.000  O
  O7       1.0000 0.84220  0.62360  0.94780  Biso   1.000  O
  O8       1.0000 0.15780  0.37640  0.05220  Biso   1.000  O
  O9       1.0000 0.05100  0.60190  0.78060  Biso   1.000  O
  O10      1.0000 0.94900  0.39810  0.21940  Biso   1.000  O
  O11      1.0000 0.19340  0.62510  0.82693  Biso   1.000  O
  O12      1.0000 0.80660  0.37490  0.17307  Biso   1.000  O
  O13      1.0000 0.29630  0.62770  0.36277  Biso   1.000  O
  O14      1.0000 0.70370  0.37230  0.63723  Biso   1.000  O
  O15      1.0000 0.43340  0.68930  0.33190  Biso   1.000  O
  O16      1.0000 0.56660  0.31070  0.66810  Biso   1.000  O
  O17      1.0000 0.30480  0.61690  0.64470  Biso   1.000  O
  O18      1.0000 0.69520  0.38310  0.35530  Biso   1.000  O
  O19      1.0000 0.42070  0.59280  0.70170  Biso   1.000  O
  O20      1.0000 0.57930  0.40720  0.29830  Biso   1.000  O
  O21      1.0000 0.66860  0.59320  0.56990  Biso   1.000  O
  O22      1.0000 0.33140  0.40680  0.43010  Biso   1.000  O
  O23      1.0000 0.67410  0.62610  0.45980  Biso   1.000  O
  O24      1.0000 0.32590  0.37390  0.54020  Biso   1.000  O
  O25      1.0000 0.21480  0.13140  0.85610  Biso   1.000  O
  O26      1.0000 0.78520  0.86860  0.14390  Biso   1.000  O
  O27      1.0000 0.10550  0.15720  0.79150  Biso   1.000  O
  O28      1.0000 0.89450  0.84280  0.20850  Biso   1.000  O
  O29      1.0000 0.82710  0.12890  0.01170  Biso   1.000  O
  O30      1.0000 0.17290  0.87110  0.98830  Biso   1.000  O
  O31      1.0000 0.84600  0.16620  0.90450  Biso   1.000  O
  O32      1.0000 0.15400  0.83380  0.09550  Biso   1.000  O
  O33      1.0000 0.04750  0.05580  0.15670  Biso   1.000  O
  O34      1.0000 0.95250  0.94420  0.84330  Biso   1.000  O
  O35      1.0000 0.19080  0.10930  0.13247  Biso   1.000  O
  O36      1.0000 0.80920  0.89070  0.86753  Biso   1.000  O
  O37      1.0000 0.30980  0.14020  0.33788  Biso   1.000  O
  O38      1.0000 0.69020  0.85980  0.66212  Biso   1.000  O
  O39      1.0000 0.45630  0.19060  0.32300  Biso   1.000  O
  O40      1.0000 0.54370  0.80940  0.67700  Biso   1.000  O
  O41      1.0000 0.24330  0.13290  0.59760  Biso   1.000  O
  O42      1.0000 0.75670  0.86710  0.40240  Biso   1.000  O
  O43      1.0000 0.34220  0.11750  0.68450  Biso   1.000  O
  O44      1.0000 0.65780  0.88250  0.31550  Biso   1.000  O
  O45      1.0000 0.62390  0.09610  0.60540  Biso   1.000  O
  O46      1.0000 0.37610  0.90390  0.39460  Biso   1.000  O
  O47      1.0000 0.66040  0.13100  0.50150  Biso   1.000  O
  O48      1.0000 0.33960  0.86900  0.49850  Biso   1.000  O
  O49      1.0000 0.11880  0.51190  0.29470  Biso   1.000  O
  O50      1.0000 0.88120  0.48810  0.70530  Biso   1.000  O
  H1       1.0000 0.06740  0.49610  0.25700  Biso   1.000  H
  H2       1.0000 0.93260  0.50390  0.74300  Biso   1.000  H
  H3       1.0000 0.10420  0.53210  0.34120  Biso   1.000  H
  H4       1.0000 0.89580  0.46790  0.65880  Biso   1.000  H
  O51      1.0000 0.37530  0.23850  0.20860  Biso   1.000  O
  O52      1.0000 0.62470  0.76150  0.79140  Biso   1.000  O
  H5       1.0000 0.36060  0.28900  0.20990  Biso   1.000  H
  H6       1.0000 0.63940  0.71100  0.79010  Biso   1.000  H
  H7       1.0000 0.38820  0.22380  0.15970  Biso   1.000  H
  H8       1.0000 0.61180  0.77620  0.84030  Biso   1.000  H
  O53      1.0000 0.12900  0.01050  0.27450  Biso   1.000  O
  O54      1.0000 0.87100  0.98950  0.72550  Biso   1.000  O
  H9       1.0000 0.14350  0.95980  0.27320  Biso   1.000  H
  H10      1.0000 0.85650  0.04020  0.72680  Biso   1.000  H
  H11      1.0000 0.07430  0.99840  0.24130  Biso   1.000  H
  H12      1.0000 0.92570  0.00160  0.75870  Biso   1.000  H
  O55      1.0000 0.40480  0.14790  0.84160  Biso   1.000  O
  O56      1.0000 0.59520  0.85210  0.15840  Biso   1.000  O
  H13      1.0000 0.40130  0.09440  0.85750  Biso   1.000  H
  H14      1.0000 0.59870  0.90560  0.14250  Biso   1.000  H
  H15      1.0000 0.41230  0.18930  0.88440  Biso   1.000  H
  H16      1.0000 0.58770  0.81070  0.11560  Biso   1.000  H
  N1       1.0000 0.29780  0.53740  0.22300  Biso   1.000  N
  N2       1.0000 0.70220  0.46260  0.77700  Biso   1.000  N
  N3       1.0000 0.40680  0.54950  0.01710  Biso   1.000  N
  N4       1.0000 0.59320  0.45050  0.98290  Biso   1.000  N
  N5       1.0000 0.40970  0.52420  0.94310  Biso   1.000  N
  N6       1.0000 0.59030  0.47580  0.05690  Biso   1.000  N
  N7       1.0000 0.36000  0.40960  0.99720  Biso   1.000  N
  N8       1.0000 0.64000  0.59040  0.00280  Biso   1.000  N
  N9       1.0000 0.31770  0.32360  0.00340  Biso   1.000  N
  N10      1.0000 0.68230  0.67640  0.99660  Biso   1.000  N
  H17      1.0000 0.35880  0.30400  0.02190  Biso   1.000  H
  H18      1.0000 0.64120  0.69600  0.97810  Biso   1.000  H
  H19      1.0000 0.27620  0.31800  0.03390  Biso   1.000  H
  H20      1.0000 0.72380  0.68200  0.96610  Biso   1.000  H
  N11      1.0000 0.32080  0.25840  0.77530  Biso   1.000  N
  N12      1.0000 0.67920  0.74160  0.22470  Biso   1.000  N
  N13      1.0000 0.19150  0.71330  0.29860  Biso   1.000  N
  N14      1.0000 0.80850  0.28670  0.70140  Biso   1.000  N
  N15      1.0000 0.08930  0.70630  0.50600  Biso   1.000  N
  N16      1.0000 0.91070  0.29370  0.49400  Biso   1.000  N
  N17      1.0000 0.09220  0.73270  0.58070  Biso   1.000  N
  N18      1.0000 0.90780  0.26730  0.41930  Biso   1.000  N
  N19      1.0000 0.14310  0.84690  0.52670  Biso   1.000  N
  N20      1.0000 0.85690  0.15310  0.47330  Biso   1.000  N
  N21      1.0000 0.18660  0.93250  0.51860  Biso   1.000  N
  N22      1.0000 0.81340  0.06750  0.48140  Biso   1.000  N
  H21      1.0000 0.14630  0.95160  0.49770  Biso   1.000  H
  H22      1.0000 0.85370  0.04840  0.50230  Biso   1.000  H
  H23      1.0000 0.22930  0.93670  0.48950  Biso   1.000  H
  H24      1.0000 0.77070  0.06330  0.51050  Biso   1.000  H
  N23      1.0000 0.20580  0.99880  0.75070  Biso   1.000  N
  N24      1.0000 0.79420  0.00120  0.24930  Biso   1.000  N
  N25      1.0000 0.19490  0.49010  0.72300  Biso   1.000  N
  N26      1.0000 0.80510  0.50990  0.27700  Biso   1.000  N
  N27      1.0000 0.09360  0.22350  0.55550  Biso   1.000  N
  N28      1.0000 0.90640  0.77650  0.44450  Biso   1.000  N
  N29      1.0000 0.09160  0.19640  0.48110  Biso   1.000  N
  N30      1.0000 0.90840  0.80360  0.51890  Biso   1.000  N
  N31      1.0000 0.12970  0.33590  0.49850  Biso   1.000  N
  N32      1.0000 0.87030  0.66410  0.50150  Biso   1.000  N
  N33      1.0000 0.15850  0.42210  0.48840  Biso   1.000  N
  N34      1.0000 0.84150  0.57790  0.51160  Biso   1.000  N
  H25      1.0000 0.11040  0.43450  0.47410  Biso   1.000  H
  H26      1.0000 0.88960  0.56550  0.52590  Biso   1.000  H
  H27      1.0000 0.19470  0.43080  0.45330  Biso   1.000  H
  H28      1.0000 0.80530  0.56920  0.54670  Biso   1.000  H
  N35      1.0000 0.18930  0.20710  0.27130  Biso   1.000  N
  N36      1.0000 0.81070  0.79290  0.72870  Biso   1.000  N
  N37      1.0000 0.30730  0.03770  0.20050  Biso   1.000  N
  N38      1.0000 0.69270  0.96230  0.79950  Biso   1.000  N
  N39      1.0000 0.40680  0.04190  0.99260  Biso   1.000  N
  N40      1.0000 0.59320  0.95810  0.00740  Biso   1.000  N
  N41      1.0000 0.40680  0.01430  0.91910  Biso   1.000  N
  N42      1.0000 0.59320  0.98570  0.08090  Biso   1.000  N
  N43      1.0000 0.36680  0.90220  0.97550  Biso   1.000  N
  N44      1.0000 0.63320  0.09780  0.02450  Biso   1.000  N
  N45      1.0000 0.33440  0.81590  0.98620  Biso   1.000  N
  N46      1.0000 0.66560  0.18410  0.01380  Biso   1.000  N
  H29      1.0000 0.29750  0.80900  0.02070  Biso   1.000  H
  H30      1.0000 0.70250  0.19100  0.97930  Biso   1.000  H
  H31      1.0000 0.38090  0.80160  0.00160  Biso   1.000  H
  H32      1.0000 0.61910  0.19840  0.99840  Biso   1.000  H
  N47      1.0000 0.30770  0.74840  0.75110  Biso   1.000  N
  N48      1.0000 0.69230  0.25160  0.24890  Biso   1.000  N
  C1       1.0000 0.36020  0.47940  0.12610  Biso   1.000  C
  C2       1.0000 0.63980  0.52060  0.87390  Biso   1.000  C
  C3       1.0000 0.32180  0.53520  0.15500  Biso   1.000  C
  C4       1.0000 0.67820  0.46480  0.84500  Biso   1.000  C
  H33      1.0000 0.31220  0.57350  0.12520  Biso   1.000  H
  H34      1.0000 0.68780  0.42650  0.87480  Biso   1.000  H
  C5       1.0000 0.31430  0.48240  0.26500  Biso   1.000  C
  C6       1.0000 0.68570  0.51760  0.73500  Biso   1.000  C
  H35      1.0000 0.29810  0.48250  0.31270  Biso   1.000  H
  H36      1.0000 0.70190  0.51750  0.68730  Biso   1.000  H
  C7       1.0000 0.35350  0.42670  0.24130  Biso   1.000  C
  C8       1.0000 0.64650  0.57330  0.75870  Biso   1.000  C
  H37      1.0000 0.36360  0.38980  0.27250  Biso   1.000  H
  H38      1.0000 0.63640  0.61020  0.72750  Biso   1.000  H
  C9       1.0000 0.37790  0.42500  0.17120  Biso   1.000  C
  C10      1.0000 0.62210  0.57500  0.82880  Biso   1.000  C
  H39      1.0000 0.40590  0.38800  0.15450  Biso   1.000  H
  H40      1.0000 0.59410  0.61200  0.84550  Biso   1.000  H
  C11      1.0000 0.37820  0.48020  0.04810  Biso   1.000  C
  C12      1.0000 0.62180  0.51980  0.95190  Biso   1.000  C
  C13      1.0000 0.38040  0.44040  0.93150  Biso   1.000  C
  C14      1.0000 0.61960  0.55960  0.06850  Biso   1.000  C
  C15      1.0000 0.36960  0.39130  0.85800  Biso   1.000  C
  C16      1.0000 0.63040  0.60870  0.14200  Biso   1.000  C
  C17      1.0000 0.33850  0.30360  0.84400  Biso   1.000  C
  C18      1.0000 0.66150  0.69640  0.15600  Biso   1.000  C
  H41      1.0000 0.32910  0.27340  0.88440  Biso   1.000  H
  H42      1.0000 0.67090  0.72660  0.11560  Biso   1.000  H
  C19      1.0000 0.33620  0.30210  0.71740  Biso   1.000  C
  C20      1.0000 0.66380  0.69790  0.28260  Biso   1.000  C
  H43      1.0000 0.32360  0.27210  0.66940  Biso   1.000  H
  H44      1.0000 0.67640  0.72790  0.33060  Biso   1.000  H
  C21      1.0000 0.37000  0.39000  0.72750  Biso   1.000  C
  C22      1.0000 0.63000  0.61000  0.27250  Biso   1.000  C
  H45      1.0000 0.38080  0.41880  0.68650  Biso   1.000  H
  H46      1.0000 0.61920  0.58120  0.31350  Biso   1.000  H
  C23      1.0000 0.38810  0.43590  0.79730  Biso   1.000  C
  C24      1.0000 0.61190  0.56410  0.20270  Biso   1.000  C
  H47      1.0000 0.41220  0.49550  0.80430  Biso   1.000  H
  H48      1.0000 0.58780  0.50450  0.19570  Biso   1.000  H
  C25      1.0000 0.13500  0.77460  0.39720  Biso   1.000  C
  C26      1.0000 0.86500  0.22540  0.60280  Biso   1.000  C
  C27      1.0000 0.17380  0.71950  0.36850  Biso   1.000  C
  C28      1.0000 0.82620  0.28050  0.63150  Biso   1.000  C
  H49      1.0000 0.18840  0.68460  0.39960  Biso   1.000  H
  H50      1.0000 0.81160  0.31540  0.60040  Biso   1.000  H
  C29      1.0000 0.17400  0.76620  0.25440  Biso   1.000  C
  C30      1.0000 0.82600  0.23380  0.74560  Biso   1.000  C
  H51      1.0000 0.18750  0.76350  0.20590  Biso   1.000  H
  H52      1.0000 0.81250  0.23650  0.79410  Biso   1.000  H
  C31      1.0000 0.13660  0.82430  0.27920  Biso   1.000  C
  C32      1.0000 0.86340  0.17570  0.72080  Biso   1.000  C
  H53      1.0000 0.12490  0.86020  0.24770  Biso   1.000  H
  H54      1.0000 0.87510  0.13980  0.75230  Biso   1.000  H
  C33      1.0000 0.11660  0.82870  0.35130  Biso   1.000  C
  C34      1.0000 0.88340  0.17130  0.64870  Biso   1.000  C
  H55      1.0000 0.09110  0.86740  0.36880  Biso   1.000  H
  H56      1.0000 0.90890  0.13260  0.63120  Biso   1.000  H
  C35      1.0000 0.12090  0.77570  0.47510  Biso   1.000  C
  C36      1.0000 0.87910  0.22430  0.52490  Biso   1.000  C
  C37      1.0000 0.12620  0.81720  0.59290  Biso   1.000  C
  C38      1.0000 0.87380  0.18280  0.40710  Biso   1.000  C
  C39      1.0000 0.14390  0.86620  0.66770  Biso   1.000  C
  C40      1.0000 0.85610  0.13380  0.33230  Biso   1.000  C
  C41      1.0000 0.18300  0.95420  0.68230  Biso   1.000  C
  C42      1.0000 0.81700  0.04580  0.31770  Biso   1.000  C
  H57      1.0000 0.19410  0.98450  0.64210  Biso   1.000  H
  H58      1.0000 0.80590  0.01550  0.35790  Biso   1.000  H
  C43      1.0000 0.18750  0.95490  0.80810  Biso   1.000  C
  C44      1.0000 0.81250  0.04510  0.19190  Biso   1.000  C
  H59      1.0000 0.20200  0.98480  0.85620  Biso   1.000  H
  H60      1.0000 0.79800  0.01520  0.14380  Biso   1.000  H
  C45      1.0000 0.14800  0.86730  0.79800  Biso   1.000  C
  C46      1.0000 0.85200  0.13270  0.20200  Biso   1.000  C
  H61      1.0000 0.13690  0.83880  0.83920  Biso   1.000  H
  H62      1.0000 0.86310  0.16120  0.16080  Biso   1.000  H
  C47      1.0000 0.12500  0.82150  0.72880  Biso   1.000  C
  C48      1.0000 0.87500  0.17850  0.27120  Biso   1.000  C
  H63      1.0000 0.09740  0.76200  0.72190  Biso   1.000  H
  H64      1.0000 0.90260  0.23800  0.27810  Biso   1.000  H
  C49      1.0000 0.13490  0.35640  0.63930  Biso   1.000  C
  C50      1.0000 0.86510  0.64360  0.36070  Biso   1.000  C
  C51      1.0000 0.17380  0.44520  0.65400  Biso   1.000  C
  C52      1.0000 0.82620  0.55480  0.34600  Biso   1.000  C
  H65      1.0000 0.18600  0.47540  0.61390  Biso   1.000  H
  H66      1.0000 0.81400  0.52460  0.38610  Biso   1.000  H
  C53      1.0000 0.17730  0.44580  0.78020  Biso   1.000  C
  C54      1.0000 0.82270  0.55420  0.21980  Biso   1.000  C
  H67      1.0000 0.19090  0.47600  0.82820  Biso   1.000  H
  H68      1.0000 0.80910  0.52400  0.17180  Biso   1.000  H
  C55      1.0000 0.14030  0.35850  0.77130  Biso   1.000  C
  C56      1.0000 0.85970  0.64150  0.22870  Biso   1.000  C
  H69      1.0000 0.13030  0.32990  0.81250  Biso   1.000  H
  H70      1.0000 0.86970  0.67010  0.18750  Biso   1.000  H
  C57      1.0000 0.11830  0.31340  0.70100  Biso   1.000  C
  C58      1.0000 0.88170  0.68660  0.29900  Biso   1.000  C
  H71      1.0000 0.09200  0.25380  0.69420  Biso   1.000  H
  H72      1.0000 0.90800  0.74620  0.30580  Biso   1.000  H
  C59      1.0000 0.11840  0.30680  0.56510  Biso   1.000  C
  C60      1.0000 0.88160  0.69320  0.43490  Biso   1.000  C
  C61      1.0000 0.11280  0.26430  0.44710  Biso   1.000  C
  C62      1.0000 0.88720  0.73570  0.55290  Biso   1.000  C
  C63      1.0000 0.12800  0.26480  0.36990  Biso   1.000  C
  C64      1.0000 0.87200  0.73520  0.63010  Biso   1.000  C
  C65      1.0000 0.17060  0.21210  0.34110  Biso   1.000  C
  C66      1.0000 0.82940  0.78790  0.65890  Biso   1.000  C
  H73      1.0000 0.18690  0.17820  0.37220  Biso   1.000  H
  H74      1.0000 0.81310  0.82180  0.62780  Biso   1.000  H
  C67      1.0000 0.16520  0.25640  0.22710  Biso   1.000  C
  C68      1.0000 0.83480  0.74360  0.77290  Biso   1.000  C
  H75      1.0000 0.17860  0.25480  0.17850  Biso   1.000  H
  H76      1.0000 0.82140  0.74520  0.82150  Biso   1.000  H
  C69      1.0000 0.12170  0.30910  0.25070  Biso   1.000  C
  C70      1.0000 0.87830  0.69090  0.74930  Biso   1.000  C
  H77      1.0000 0.10560  0.34190  0.21820  Biso   1.000  H
  H78      1.0000 0.89440  0.65810  0.78180  Biso   1.000  H
  C71      1.0000 0.10170  0.31350  0.32260  Biso   1.000  C
  C72      1.0000 0.89830  0.68650  0.67740  Biso   1.000  C
  H79      1.0000 0.07120  0.34830  0.33910  Biso   1.000  H
  H80      1.0000 0.92880  0.65170  0.66090  Biso   1.000  H
  C73      1.0000 0.36660  0.97470  0.10370  Biso   1.000  C
  C74      1.0000 0.63340  0.02530  0.89630  Biso   1.000  C
  C75      1.0000 0.32630  0.03030  0.13120  Biso   1.000  C
  C76      1.0000 0.67370  0.96970  0.86880  Biso   1.000  C
  H81      1.0000 0.31170  0.06440  0.09920  Biso   1.000  H
  H82      1.0000 0.68830  0.93560  0.90080  Biso   1.000  H
  C77      1.0000 0.32760  0.98680  0.24500  Biso   1.000  C
  C78      1.0000 0.67240  0.01320  0.75500  Biso   1.000  C
  H83      1.0000 0.31440  0.99030  0.29360  Biso   1.000  H
  H84      1.0000 0.68560  0.00970  0.70640  Biso   1.000  H
  C79      1.0000 0.36700  0.92960  0.22250  Biso   1.000  C
  C80      1.0000 0.63300  0.07040  0.77750  Biso   1.000  C
  H85      1.0000 0.38040  0.89600  0.25550  Biso   1.000  H
  H86      1.0000 0.61960  0.10400  0.74450  Biso   1.000  H
  C81      1.0000 0.38640  0.92280  0.15070  Biso   1.000  C
  C82      1.0000 0.61360  0.07720  0.84930  Biso   1.000  C
  H87      1.0000 0.41220  0.88390  0.13420  Biso   1.000  H
  H88      1.0000 0.58780  0.11610  0.86580  Biso   1.000  H
  C83      1.0000 0.38200  0.97320  0.02580  Biso   1.000  C
  C84      1.0000 0.61800  0.02680  0.97420  Biso   1.000  C
  C85      1.0000 0.38180  0.93090  0.90870  Biso   1.000  C
  C86      1.0000 0.61820  0.06910  0.09130  Biso   1.000  C
  C87      1.0000 0.36680  0.88080  0.83450  Biso   1.000  C
  C88      1.0000 0.63320  0.11920  0.16550  Biso   1.000  C
  C89      1.0000 0.32960  0.79280  0.82040  Biso   1.000  C
  C90      1.0000 0.67040  0.20720  0.17960  Biso   1.000  C
  H89      1.0000 0.31910  0.76250  0.86050  Biso   1.000  H
  H90      1.0000 0.68090  0.23750  0.13950  Biso   1.000  H
  C91      1.0000 0.32470  0.79230  0.69340  Biso   1.000  C
  C92      1.0000 0.67530  0.20770  0.30660  Biso   1.000  C
  H91      1.0000 0.30960  0.76260  0.64510  Biso   1.000  H
  H92      1.0000 0.69040  0.23740  0.35490  Biso   1.000  H
  C93      1.0000 0.36410  0.88060  0.70420  Biso   1.000  C
  C94      1.0000 0.63590  0.11940  0.29580  Biso   1.000  C
  H93      1.0000 0.37640  0.90970  0.66340  Biso   1.000  H
  H94      1.0000 0.62360  0.09030  0.33660  Biso   1.000  H
  C95      1.0000 0.38510  0.92520  0.77370  Biso   1.000  C
  C96      1.0000 0.61490  0.07480  0.22630  Biso   1.000  C
  H95      1.0000 0.41140  0.98480  0.78100  Biso   1.000  H
  H96      1.0000 0.58860  0.01520  0.21900  Biso   1.000  H
  C97      1.0000 0.19300  0.64340  0.11120  Biso   1.000  C
  C98      1.0000 0.80700  0.35660  0.88880  Biso   1.000  C
  C99      1.0000 0.12330  0.62690  0.04380  Biso   1.000  C
  C100     1.0000 0.87670  0.37310  0.95620  Biso   1.000  C
  C101     1.0000 0.03560  0.61690  0.05320  Biso   1.000  C
  C102     1.0000 0.96440  0.38310  0.94680  Biso   1.000  C
  H97      1.0000 0.01700  0.61490  0.10000  Biso   1.000  H
  H98      1.0000 0.98300  0.38510  0.90000  Biso   1.000  H
  C103     1.0000 0.97680  0.61000  0.99070  Biso   1.000  C
  C104     1.0000 0.02320  0.39000  0.00930  Biso   1.000  C
  N49      1.0000 0.88450  0.60660  0.99950  Biso   1.000  N
  N50      1.0000 0.11550  0.39340  0.00050  Biso   1.000  N
  C105     1.0000 0.00010  0.60860  0.92020  Biso   1.000  C
  C106     1.0000 0.99990  0.39140  0.07980  Biso   1.000  C
  H99      1.0000 0.95780  0.60260  0.87940  Biso   1.000  H
  H100     1.0000 0.04220  0.39740  0.12060  Biso   1.000  H
  C107     1.0000 0.08730  0.61630  0.91020  Biso   1.000  C
  C108     1.0000 0.91270  0.38370  0.08980  Biso   1.000  C
  C109     1.0000 0.11310  0.61470  0.83340  Biso   1.000  C
  C110     1.0000 0.88690  0.38530  0.16660  Biso   1.000  C
  C111     1.0000 0.14980  0.62830  0.97330  Biso   1.000  C
  C112     1.0000 0.85020  0.37170  0.02670  Biso   1.000  C
  H101     1.0000 0.20970  0.63730  0.96790  Biso   1.000  H
  H102     1.0000 0.79030  0.36270  0.03210  Biso   1.000  H
  C113     1.0000 0.38230  0.65540  0.37490  Biso   1.000  C
  C114     1.0000 0.61770  0.34460  0.62510  Biso   1.000  C
  C115     1.0000 0.42330  0.63950  0.44750  Biso   1.000  C
  C116     1.0000 0.57670  0.36050  0.55250  Biso   1.000  C
  C117     1.0000 0.37920  0.62790  0.51010  Biso   1.000  C
  C118     1.0000 0.62080  0.37210  0.48990  Biso   1.000  C
  H103     1.0000 0.32150  0.62940  0.50830  Biso   1.000  H
  H104     1.0000 0.67850  0.37060  0.49170  Biso   1.000  H
  C119     1.0000 0.42080  0.61420  0.57520  Biso   1.000  C
  C120     1.0000 0.57920  0.38580  0.42480  Biso   1.000  C
  C121     1.0000 0.37950  0.60660  0.64750  Biso   1.000  C
  C122     1.0000 0.62050  0.39340  0.35250  Biso   1.000  C
  C123     1.0000 0.50530  0.60890  0.57640  Biso   1.000  C
  C124     1.0000 0.49470  0.39110  0.42360  Biso   1.000  C
  H105     1.0000 0.53330  0.59790  0.61910  Biso   1.000  H
  H106     1.0000 0.46670  0.40210  0.38090  Biso   1.000  H
  C125     1.0000 0.54770  0.62010  0.51340  Biso   1.000  C
  C126     1.0000 0.45230  0.37990  0.48660  Biso   1.000  C
  C127     1.0000 0.50890  0.63700  0.44910  Biso   1.000  C
  C128     1.0000 0.49110  0.36300  0.55090  Biso   1.000  C
  H107     1.0000 0.53950  0.64640  0.40800  Biso   1.000  H
  H108     1.0000 0.46050  0.35360  0.59200  Biso   1.000  H
  N51      1.0000 0.63650  0.61290  0.51440  Biso   1.000  N
  N52      1.0000 0.36350  0.38710  0.48560  Biso   1.000  N
  C129     1.0000 0.39390  0.16110  0.36010  Biso   1.000  C
  C130     1.0000 0.60610  0.83890  0.63990  Biso   1.000  C
  C131     1.0000 0.41610  0.14560  0.43790  Biso   1.000  C
  C132     1.0000 0.58390  0.85440  0.56210  Biso   1.000  C
  C133     1.0000 0.35690  0.13740  0.48990  Biso   1.000  C
  C134     1.0000 0.64310  0.86260  0.51010  Biso   1.000  C
  H109     1.0000 0.30050  0.13970  0.47590  Biso   1.000  H
  H110     1.0000 0.69950  0.86030  0.52410  Biso   1.000  H
  C135     1.0000 0.37900  0.12580  0.56160  Biso   1.000  C
  C136     1.0000 0.62100  0.87420  0.43840  Biso   1.000  C
  C137     1.0000 0.31580  0.12440  0.61920  Biso   1.000  C
  C138     1.0000 0.68420  0.87560  0.38080  Biso   1.000  C
  C139     1.0000 0.46190  0.11920  0.58180  Biso   1.000  C
  C140     1.0000 0.53810  0.88080  0.41820  Biso   1.000  C
  H111     1.0000 0.47830  0.11080  0.62980  Biso   1.000  H
  H112     1.0000 0.52170  0.88920  0.37020  Biso   1.000  H
  C141     1.0000 0.51970  0.12560  0.52860  Biso   1.000  C
  C142     1.0000 0.48030  0.87440  0.47140  Biso   1.000  C
  C143     1.0000 0.49910  0.14120  0.45740  Biso   1.000  C
  C144     1.0000 0.50090  0.85880  0.54260  Biso   1.000  C
  H113     1.0000 0.54050  0.14860  0.42370  Biso   1.000  H
  H114     1.0000 0.45950  0.85140  0.57630  Biso   1.000  H
  N53      1.0000 0.60790  0.11790  0.54710  Biso   1.000  N
  N54      1.0000 0.39210  0.88210  0.45290  Biso   1.000  N
  C145     1.0000 0.14020  0.14280  0.84970  Biso   1.000  C
  C146     1.0000 0.85980  0.85720  0.15030  Biso   1.000  C
  C147     1.0000 0.09260  0.13850  0.91650  Biso   1.000  C
  C148     1.0000 0.90740  0.86150  0.08350  Biso   1.000  C
  C149     1.0000 0.12530  0.12030  0.98410  Biso   1.000  C
  C150     1.0000 0.87470  0.87970  0.01590  Biso   1.000  C
  H115     1.0000 0.18210  0.11650  0.99010  Biso   1.000  H
  H116     1.0000 0.81790  0.88350  0.00990  Biso   1.000  H
  C151     1.0000 0.07380  0.10790  0.04250  Biso   1.000  C
  C152     1.0000 0.92620  0.89210  0.95750  Biso   1.000  C
  C153     1.0000 0.10540  0.08750  0.11690  Biso   1.000  C
  C154     1.0000 0.89460  0.91250  0.88310  Biso   1.000  C
  C155     1.0000 0.99050  0.11420  0.03490  Biso   1.000  C
  C156     1.0000 0.00950  0.88580  0.96510  Biso   1.000  C
  H117     1.0000 0.95510  0.10440  0.07320  Biso   1.000  H
  H118     1.0000 0.04490  0.89560  0.92680  Biso   1.000  H
  C157     1.0000 0.95990  0.13550  0.96900  Biso   1.000  C
  C158     1.0000 0.04010  0.86450  0.03100  Biso   1.000  C
  N55      1.0000 0.87180  0.14440  0.96090  Biso   1.000  N
  N56      1.0000 0.12820  0.85560  0.03910  Biso   1.000  N
  C159     1.0000 0.00920  0.14690  0.90920  Biso   1.000  C
  C160     1.0000 0.99080  0.85310  0.09080  Biso   1.000  C
  H119     1.0000 0.98650  0.16000  0.86520  Biso   1.000  H
  H120     1.0000 0.01350  0.84000  0.13480  Biso   1.000  H
  O57      1.0000 0.10930  0.59690  0.64870  Biso   1.000  O
  O58      1.0000 0.89070  0.40310  0.35130  Biso   1.000  O
  H121     1.0000 0.07580  0.58970  0.68300  Biso   1.000  H
  H122     1.0000 0.92420  0.41030  0.31700  Biso   1.000  H
  H123     1.0000 0.11280  0.63820  0.62450  Biso   1.000  H
  H124     1.0000 0.88720  0.36180  0.37550  Biso   1.000  H
  O59      1.0000 0.43690  0.77230  0.21270  Biso   1.000  O
  O60      1.0000 0.56310  0.22770  0.78730  Biso   1.000  O
  H125     1.0000 0.45080  0.73750  0.18370  Biso   1.000  H
  H126     1.0000 0.54920  0.26250  0.81630  Biso   1.000  H
  H127     1.0000 0.44340  0.76920  0.25900  Biso   1.000  H
  H128     1.0000 0.55660  0.23080  0.74100  Biso   1.000  H
  O61      1.0000 0.05160  0.53020  0.42910  Biso   1.000  O
  O62      1.0000 0.94840  0.46980  0.57090  Biso   1.000  O
  O63      1.0000 0.42220  0.22020  0.06620  Biso   1.000  O
  O64      1.0000 0.57780  0.77980  0.93380  Biso   1.000  O
  O65      1.0000 0.53960  0.26630  0.95980  Biso   1.000  O
  O66      1.0000 0.46040  0.73370  0.04020  Biso   1.000  O
  O67      1.0000 0.07140  0.07090  0.64670  Biso   1.000  O
  O68      1.0000 0.92860  0.92910  0.35330  Biso   1.000  O
  H129     1.0000 0.05090  0.11090  0.65570  Biso   1.000  H
  H130     1.0000 0.94910  0.88910  0.34430  Biso   1.000  H
  H131     1.0000 0.08790  0.05170  0.68480  Biso   1.000  H
  H132     1.0000 0.91210  0.94830  0.31520  Biso   1.000  H
  O69      1.0000 0.40050  0.64910  0.84400  Biso   1.000  O
  O70      1.0000 0.59950  0.35090  0.15600  Biso   1.000  O
  H133     1.0000 0.41480  0.63310  0.80280  Biso   1.000  H
  H134     1.0000 0.58520  0.36690  0.19720  Biso   1.000  H
  H135     1.0000 0.39460  0.61580  0.87680  Biso   1.000  H
  H136     1.0000 0.60540  0.38420  0.12320  Biso   1.000  H
  O71      1.0000 0.90730  0.97580  0.56850  Biso   1.000  O
  O72      1.0000 0.09270  0.02420  0.43150  Biso   1.000  O
  H137     1.0000 0.95930  0.00520  0.59280  Biso   1.000  H
  H138     1.0000 0.04070  0.99480  0.40720  Biso   1.000  H
  H139     1.0000 0.88920  0.99650  0.53230  Biso   1.000  H
  H140     1.0000 0.11080  0.00350  0.46770  Biso   1.000  H
