data_image0
_cell_length_a       7.685
_cell_length_b       14.817
_cell_length_c       18.713
_cell_angle_alpha    90
_cell_angle_beta     93.509
_cell_angle_gamma    90

_symmetry_space_group_name_H-M    "P 1"
_symmetry_int_tables_number       1

loop_
  _symmetry_equiv_pos_as_xyz
  'x, y, z'

loop_
  _atom_site_label
  _atom_site_occupancy
  _atom_site_fract_x
  _atom_site_fract_y
  _atom_site_fract_z
  _atom_site_thermal_displace_type
  _atom_site_B_iso_or_equiv
  _atom_site_type_symbol
  Cu1      1.0000 0.52812  0.24452  0.21866  Biso   1.000  Cu
  Cu2      1.0000 0.97188  0.74452  0.28134  Biso   1.000  Cu
  Cu3      1.0000 0.47188  0.75548  0.78134  Biso   1.000  Cu
  Cu4      1.0000 0.02812  0.25548  0.71866  Biso   1.000  Cu
  O1       1.0000 0.82310  0.26931  0.35756  Biso   1.000  O
  O2       1.0000 0.67690  0.76931  0.14244  Biso   1.000  O
  O3       1.0000 0.17690  0.73069  0.64244  Biso   1.000  O
  O4       1.0000 0.32310  0.23069  0.85756  Biso   1.000  O
  O5       1.0000 0.55310  0.29647  0.31375  Biso   1.000  O
  O6       1.0000 0.94690  0.79647  0.18625  Biso   1.000  O
  O7       1.0000 0.44690  0.70353  0.68625  Biso   1.000  O
  O8       1.0000 0.05310  0.20353  0.81375  Biso   1.000  O
  O9       1.0000 0.13570  0.44570  0.44268  Biso   1.000  O
  O10      1.0000 0.36430  0.94570  0.05732  Biso   1.000  O
  O11      1.0000 0.86430  0.55430  0.55732  Biso   1.000  O
  O12      1.0000 0.63570  0.05430  0.94268  Biso   1.000  O
  H1       1.0000 0.04360  0.47230  0.44750  Biso   1.000  H
  H2       1.0000 0.45640  0.97230  0.05250  Biso   1.000  H
  H3       1.0000 0.95640  0.52770  0.55250  Biso   1.000  H
  H4       1.0000 0.54360  0.02770  0.94750  Biso   1.000  H
  O13      1.0000 0.16930  0.47301  0.55925  Biso   1.000  O
  O14      1.0000 0.33070  0.97301  0.94075  Biso   1.000  O
  O15      1.0000 0.83070  0.52699  0.44075  Biso   1.000  O
  O16      1.0000 0.66930  0.02699  0.05925  Biso   1.000  O
  O17      1.0000 0.67550  0.29216  0.68773  Biso   1.000  O
  O18      1.0000 0.82450  0.79216  0.81227  Biso   1.000  O
  O19      1.0000 0.32450  0.70784  0.31227  Biso   1.000  O
  O20      1.0000 0.17550  0.20784  0.18773  Biso   1.000  O
  O21      1.0000 0.91750  0.29800  0.62830  Biso   1.000  O
  O22      1.0000 0.58250  0.79800  0.87170  Biso   1.000  O
  O23      1.0000 0.08250  0.70200  0.37170  Biso   1.000  O
  O24      1.0000 0.41750  0.20200  0.12830  Biso   1.000  O
  O25      1.0000 0.82660  0.22628  0.21335  Biso   1.000  O
  O26      1.0000 0.67340  0.72628  0.28665  Biso   1.000  O
  O27      1.0000 0.17340  0.77372  0.78665  Biso   1.000  O
  O28      1.0000 0.32660  0.27372  0.71335  Biso   1.000  O
  H5       1.0000 0.84120  0.23470  0.25820  Biso   1.000  H
  H6       1.0000 0.65880  0.73470  0.24180  Biso   1.000  H
  H7       1.0000 0.15880  0.76530  0.74180  Biso   1.000  H
  H8       1.0000 0.34120  0.26530  0.75820  Biso   1.000  H
  H9       1.0000 0.91980  0.21690  0.19220  Biso   1.000  H
  H10      1.0000 0.58020  0.71690  0.30780  Biso   1.000  H
  H11      1.0000 0.08020  0.78310  0.80780  Biso   1.000  H
  H12      1.0000 0.41980  0.28310  0.69220  Biso   1.000  H
  N1       1.0000 0.51370  0.11922  0.26247  Biso   1.000  N
  N2       1.0000 0.98630  0.61922  0.23753  Biso   1.000  N
  N3       1.0000 0.48630  0.88078  0.73753  Biso   1.000  N
  N4       1.0000 0.01370  0.38078  0.76247  Biso   1.000  N
  N5       1.0000 0.32670  0.91480  0.44344  Biso   1.000  N
  N6       1.0000 0.17330  0.41480  0.05656  Biso   1.000  N
  N7       1.0000 0.67330  0.08520  0.55656  Biso   1.000  N
  N8       1.0000 0.82670  0.58520  0.94344  Biso   1.000  N
  N9       1.0000 0.24890  0.91662  0.50760  Biso   1.000  N
  N10      1.0000 0.25110  0.41662  0.99240  Biso   1.000  N
  N11      1.0000 0.75110  0.08338  0.49240  Biso   1.000  N
  N12      1.0000 0.74890  0.58338  0.00760  Biso   1.000  N
  N13      1.0000 0.28880  0.05596  0.47330  Biso   1.000  N
  N14      1.0000 0.21120  0.55596  0.02670  Biso   1.000  N
  N15      1.0000 0.71120  0.94404  0.52670  Biso   1.000  N
  N16      1.0000 0.78880  0.44404  0.97330  Biso   1.000  N
  N17      1.0000 0.29680  0.15091  0.47817  Biso   1.000  N
  N18      1.0000 0.20320  0.65091  0.02183  Biso   1.000  N
  N19      1.0000 0.70320  0.84909  0.52183  Biso   1.000  N
  N20      1.0000 0.79680  0.34909  0.97817  Biso   1.000  N
  H13      1.0000 0.22670  0.16670  0.44080  Biso   1.000  H
  H14      1.0000 0.27330  0.66670  0.05920  Biso   1.000  H
  H15      1.0000 0.77330  0.83330  0.55920  Biso   1.000  H
  H16      1.0000 0.72670  0.33330  0.94080  Biso   1.000  H
  H17      1.0000 0.40440  0.17130  0.47280  Biso   1.000  H
  H18      1.0000 0.09560  0.67130  0.02720  Biso   1.000  H
  H19      1.0000 0.59560  0.82870  0.52720  Biso   1.000  H
  H20      1.0000 0.90440  0.32870  0.97280  Biso   1.000  H
  N21      1.0000 0.04150  0.12917  0.67786  Biso   1.000  N
  N22      1.0000 0.45850  0.62917  0.82214  Biso   1.000  N
  N23      1.0000 0.95850  0.87083  0.32214  Biso   1.000  N
  N24      1.0000 0.54150  0.37083  0.17786  Biso   1.000  N
  C1       1.0000 0.47000  0.94520  0.31160  Biso   1.000  C
  C2       1.0000 0.03000  0.44520  0.18840  Biso   1.000  C
  C3       1.0000 0.53000  0.05480  0.68840  Biso   1.000  C
  C4       1.0000 0.97000  0.55480  0.81160  Biso   1.000  C
  H21      1.0000 0.45420  0.88650  0.32760  Biso   1.000  H
  H22      1.0000 0.04580  0.38650  0.17240  Biso   1.000  H
  H23      1.0000 0.54580  0.11350  0.67240  Biso   1.000  H
  H24      1.0000 0.95420  0.61350  0.82760  Biso   1.000  H
  C5       1.0000 0.53640  0.96060  0.24646  Biso   1.000  C
  C6       1.0000 0.96360  0.46060  0.25354  Biso   1.000  C
  C7       1.0000 0.46360  0.03940  0.75354  Biso   1.000  C
  C8       1.0000 0.03640  0.53940  0.74646  Biso   1.000  C
  H25      1.0000 0.56840  0.91240  0.21830  Biso   1.000  H
  H26      1.0000 0.93160  0.41240  0.28170  Biso   1.000  H
  H27      1.0000 0.43160  0.08760  0.78170  Biso   1.000  H
  H28      1.0000 0.06840  0.58760  0.71830  Biso   1.000  H
  C9       1.0000 0.55550  0.04800  0.22304  Biso   1.000  C
  C10      1.0000 0.94450  0.54800  0.27696  Biso   1.000  C
  C11      1.0000 0.44450  0.95200  0.77696  Biso   1.000  C
  C12      1.0000 0.05550  0.45200  0.72304  Biso   1.000  C
  H29      1.0000 0.59890  0.05770  0.17840  Biso   1.000  H
  H30      1.0000 0.90110  0.55770  0.32160  Biso   1.000  H
  H31      1.0000 0.40110  0.94230  0.82160  Biso   1.000  H
  H32      1.0000 0.09890  0.44230  0.67840  Biso   1.000  H
  C13      1.0000 0.45170  0.10410  0.32710  Biso   1.000  C
  C14      1.0000 0.04830  0.60410  0.17290  Biso   1.000  C
  C15      1.0000 0.54830  0.89590  0.67290  Biso   1.000  C
  C16      1.0000 0.95170  0.39590  0.82710  Biso   1.000  C
  H33      1.0000 0.42490  0.15350  0.35500  Biso   1.000  H
  H34      1.0000 0.07510  0.65350  0.14500  Biso   1.000  H
  H35      1.0000 0.57510  0.84650  0.64500  Biso   1.000  H
  H36      1.0000 0.92490  0.34650  0.85500  Biso   1.000  H
  C17      1.0000 0.42570  0.01880  0.35411  Biso   1.000  C
  C18      1.0000 0.07430  0.51880  0.14589  Biso   1.000  C
  C19      1.0000 0.57430  0.98120  0.64589  Biso   1.000  C
  C20      1.0000 0.92570  0.48120  0.85411  Biso   1.000  C
  C21      1.0000 0.35020  0.99832  0.42275  Biso   1.000  C
  C22      1.0000 0.14980  0.49832  0.07725  Biso   1.000  C
  C23      1.0000 0.64980  0.00168  0.57725  Biso   1.000  C
  C24      1.0000 0.85020  0.50168  0.92275  Biso   1.000  C
  C25      1.0000 0.22590  0.00180  0.52480  Biso   1.000  C
  C26      1.0000 0.27410  0.50180  0.97520  Biso   1.000  C
  C27      1.0000 0.77410  0.99820  0.47520  Biso   1.000  C
  C28      1.0000 0.72590  0.49820  0.02480  Biso   1.000  C
  C29      1.0000 0.14170  0.02640  0.59072  Biso   1.000  C
  C30      1.0000 0.35830  0.52640  0.90928  Biso   1.000  C
  C31      1.0000 0.85830  0.97360  0.40928  Biso   1.000  C
  C32      1.0000 0.64170  0.47360  0.09072  Biso   1.000  C
  C33      1.0000 0.11470  0.11310  0.61578  Biso   1.000  C
  C34      1.0000 0.38530  0.61310  0.88422  Biso   1.000  C
  C35      1.0000 0.88530  0.88690  0.38422  Biso   1.000  C
  C36      1.0000 0.61470  0.38690  0.11578  Biso   1.000  C
  H37      1.0000 0.14850  0.16190  0.58860  Biso   1.000  H
  H38      1.0000 0.35150  0.66190  0.91140  Biso   1.000  H
  H39      1.0000 0.85150  0.83810  0.41140  Biso   1.000  H
  H40      1.0000 0.64850  0.33810  0.08860  Biso   1.000  H
  C37      1.0000 0.98730  0.05900  0.71603  Biso   1.000  C
  C38      1.0000 0.51270  0.55900  0.78397  Biso   1.000  C
  C39      1.0000 0.01270  0.94100  0.28397  Biso   1.000  C
  C40      1.0000 0.48730  0.44100  0.21603  Biso   1.000  C
  H41      1.0000 0.93450  0.07030  0.75850  Biso   1.000  H
  H42      1.0000 0.56550  0.57030  0.74150  Biso   1.000  H
  H43      1.0000 0.06550  0.92970  0.24150  Biso   1.000  H
  H44      1.0000 0.43450  0.42970  0.25850  Biso   1.000  H
  C41      1.0000 0.00690  0.97090  0.69454  Biso   1.000  C
  C42      1.0000 0.49310  0.47090  0.80546  Biso   1.000  C
  C43      1.0000 0.99310  0.02910  0.30546  Biso   1.000  C
  C44      1.0000 0.50690  0.52910  0.19454  Biso   1.000  C
  H45      1.0000 0.96750  0.92360  0.72200  Biso   1.000  H
  H46      1.0000 0.53250  0.42360  0.77800  Biso   1.000  H
  H47      1.0000 0.03250  0.07640  0.27800  Biso   1.000  H
  H48      1.0000 0.46750  0.57640  0.22200  Biso   1.000  H
  C45      1.0000 0.08550  0.95400  0.63214  Biso   1.000  C
  C46      1.0000 0.41450  0.45400  0.86786  Biso   1.000  C
  C47      1.0000 0.91450  0.04600  0.36786  Biso   1.000  C
  C48      1.0000 0.58550  0.54600  0.13214  Biso   1.000  C
  H49      1.0000 0.10150  0.89490  0.61720  Biso   1.000  H
  H50      1.0000 0.39850  0.39490  0.88280  Biso   1.000  H
  H51      1.0000 0.89850  0.10510  0.38280  Biso   1.000  H
  H52      1.0000 0.60150  0.60510  0.11720  Biso   1.000  H
  C49      1.0000 0.61310  0.32510  0.43540  Biso   1.000  C
  C50      1.0000 0.88690  0.82510  0.06460  Biso   1.000  C
  C51      1.0000 0.38690  0.67490  0.56460  Biso   1.000  C
  C52      1.0000 0.11310  0.17490  0.93540  Biso   1.000  C
  C53      1.0000 0.45380  0.36690  0.43799  Biso   1.000  C
  C54      1.0000 0.04620  0.86690  0.06201  Biso   1.000  C
  C55      1.0000 0.54620  0.63310  0.56201  Biso   1.000  C
  C56      1.0000 0.95380  0.13310  0.93799  Biso   1.000  C
  H53      1.0000 0.38660  0.37750  0.39580  Biso   1.000  H
  H54      1.0000 0.11340  0.87750  0.10420  Biso   1.000  H
  H55      1.0000 0.61340  0.62250  0.60420  Biso   1.000  H
  H56      1.0000 0.88660  0.12250  0.89580  Biso   1.000  H
  C57      1.0000 0.39230  0.39350  0.50304  Biso   1.000  C
  C58      1.0000 0.10770  0.89350  0.99696  Biso   1.000  C
  C59      1.0000 0.60770  0.60650  0.49696  Biso   1.000  C
  C60      1.0000 0.89230  0.10650  0.00304  Biso   1.000  C
  C61      1.0000 0.49100  0.37460  0.56603  Biso   1.000  C
  C62      1.0000 0.00900  0.87460  0.93397  Biso   1.000  C
  C63      1.0000 0.50900  0.62540  0.43397  Biso   1.000  C
  C64      1.0000 0.99100  0.12540  0.06603  Biso   1.000  C
  H57      1.0000 0.44970  0.39120  0.60980  Biso   1.000  H
  H58      1.0000 0.05030  0.89120  0.89020  Biso   1.000  H
  H59      1.0000 0.55030  0.60880  0.39020  Biso   1.000  H
  H60      1.0000 0.94970  0.10880  0.10980  Biso   1.000  H
  C65      1.0000 0.64970  0.33138  0.56409  Biso   1.000  C
  C66      1.0000 0.85030  0.83138  0.93591  Biso   1.000  C
  C67      1.0000 0.35030  0.66862  0.43591  Biso   1.000  C
  C68      1.0000 0.14970  0.16862  0.06409  Biso   1.000  C
  C69      1.0000 0.71320  0.30789  0.49823  Biso   1.000  C
  C70      1.0000 0.78680  0.80789  0.00177  Biso   1.000  C
  C71      1.0000 0.28680  0.69211  0.50177  Biso   1.000  C
  C72      1.0000 0.21320  0.19211  0.99823  Biso   1.000  C
  H61      1.0000 0.82210  0.28090  0.49650  Biso   1.000  H
  H62      1.0000 0.67790  0.78090  0.00350  Biso   1.000  H
  H63      1.0000 0.17790  0.71910  0.50350  Biso   1.000  H
  H64      1.0000 0.32210  0.21910  0.99650  Biso   1.000  H
  C73      1.0000 0.67250  0.29508  0.36385  Biso   1.000  C
  C74      1.0000 0.82750  0.79508  0.13615  Biso   1.000  C
  C75      1.0000 0.32750  0.70492  0.63615  Biso   1.000  C
  C76      1.0000 0.17250  0.20492  0.86385  Biso   1.000  C
  C77      1.0000 0.22280  0.44030  0.50436  Biso   1.000  C
  C78      1.0000 0.27720  0.94030  0.99564  Biso   1.000  C
  C79      1.0000 0.77720  0.55970  0.49564  Biso   1.000  C
  C80      1.0000 0.72280  0.05970  0.00436  Biso   1.000  C
  C81      1.0000 0.75440  0.30530  0.63219  Biso   1.000  C
  C82      1.0000 0.74560  0.80530  0.86781  Biso   1.000  C
  C83      1.0000 0.24560  0.69470  0.36781  Biso   1.000  C
  C84      1.0000 0.25440  0.19470  0.13219  Biso   1.000  C
  O29      1.0000 0.16720  0.24640  0.34566  Biso   1.000  O
  O30      1.0000 0.33280  0.74640  0.15434  Biso   1.000  O
  O31      1.0000 0.83280  0.75360  0.65434  Biso   1.000  O
  O32      1.0000 0.66720  0.25360  0.84566  Biso   1.000  O
  H65      1.0000 0.07710  0.27200  0.36040  Biso   1.000  H
  H66      1.0000 0.42290  0.77200  0.13960  Biso   1.000  H
  H67      1.0000 0.92290  0.72800  0.63960  Biso   1.000  H
  H68      1.0000 0.57710  0.22800  0.86040  Biso   1.000  H
  H69      1.0000 0.15840  0.22380  0.30380  Biso   1.000  H
  H70      1.0000 0.34160  0.72380  0.19620  Biso   1.000  H
  H71      1.0000 0.84160  0.77620  0.69620  Biso   1.000  H
  H72      1.0000 0.65840  0.27620  0.80380  Biso   1.000  H
