data_image0
_cell_length_a       22.479
_cell_length_b       9.067
_cell_length_c       17.494
_cell_angle_alpha    90
_cell_angle_beta     103.67
_cell_angle_gamma    90

_symmetry_space_group_name_H-M    "P 1"
_symmetry_int_tables_number       1

loop_
  _symmetry_equiv_pos_as_xyz
  'x, y, z'

loop_
  _atom_site_label
  _atom_site_occupancy
  _atom_site_fract_x
  _atom_site_fract_y
  _atom_site_fract_z
  _atom_site_thermal_displace_type
  _atom_site_B_iso_or_equiv
  _atom_site_type_symbol
  Cu1      1.0000 0.63855  0.67422  0.51822  Biso   1.000  Cu
  Cu2      1.0000 0.13855  0.17422  0.51822  Biso   1.000  Cu
  Cu3      1.0000 0.63855  0.32578  0.01822  Biso   1.000  Cu
  Cu4      1.0000 0.13855  0.82578  0.01822  Biso   1.000  Cu
  Cu5      1.0000 0.36145  0.32578  0.48178  Biso   1.000  Cu
  Cu6      1.0000 0.86145  0.82578  0.48178  Biso   1.000  Cu
  Cu7      1.0000 0.36145  0.67422  0.98178  Biso   1.000  Cu
  Cu8      1.0000 0.86145  0.17422  0.98178  Biso   1.000  Cu
  N1       1.0000 0.55303  0.74110  0.53025  Biso   1.000  N
  N2       1.0000 0.05303  0.24110  0.53025  Biso   1.000  N
  N3       1.0000 0.55303  0.25890  0.03025  Biso   1.000  N
  N4       1.0000 0.05303  0.75890  0.03025  Biso   1.000  N
  N5       1.0000 0.44697  0.25890  0.46975  Biso   1.000  N
  N6       1.0000 0.94697  0.75890  0.46975  Biso   1.000  N
  N7       1.0000 0.44697  0.74110  0.96975  Biso   1.000  N
  N8       1.0000 0.94697  0.24110  0.96975  Biso   1.000  N
  N9       1.0000 0.66359  0.82780  0.61090  Biso   1.000  N
  N10      1.0000 0.16359  0.32780  0.61090  Biso   1.000  N
  N11      1.0000 0.66359  0.17220  0.11090  Biso   1.000  N
  N12      1.0000 0.16359  0.67220  0.11090  Biso   1.000  N
  N13      1.0000 0.33641  0.17220  0.38910  Biso   1.000  N
  N14      1.0000 0.83641  0.67220  0.38910  Biso   1.000  N
  N15      1.0000 0.33641  0.82780  0.88910  Biso   1.000  N
  N16      1.0000 0.83641  0.32780  0.88910  Biso   1.000  N
  C1       1.0000 0.49832  0.69540  0.49000  Biso   1.000  C
  C2       1.0000 0.99832  0.19540  0.49000  Biso   1.000  C
  C3       1.0000 0.49832  0.30460  0.99000  Biso   1.000  C
  C4       1.0000 0.99832  0.80460  0.99000  Biso   1.000  C
  C5       1.0000 0.50168  0.30460  0.51000  Biso   1.000  C
  C6       1.0000 0.00168  0.80460  0.51000  Biso   1.000  C
  C7       1.0000 0.50168  0.69540  0.01000  Biso   1.000  C
  C8       1.0000 0.00168  0.19540  0.01000  Biso   1.000  C
  H1       1.0000 0.49630  0.61850  0.45430  Biso   1.000  H
  H2       1.0000 0.99630  0.11850  0.45430  Biso   1.000  H
  H3       1.0000 0.49630  0.38150  0.95430  Biso   1.000  H
  H4       1.0000 0.99630  0.88150  0.95430  Biso   1.000  H
  H5       1.0000 0.50370  0.38150  0.54570  Biso   1.000  H
  H6       1.0000 0.00370  0.88150  0.54570  Biso   1.000  H
  H7       1.0000 0.50370  0.61850  0.04570  Biso   1.000  H
  H8       1.0000 0.00370  0.11850  0.04570  Biso   1.000  H
  C9       1.0000 0.44356  0.75870  0.49930  Biso   1.000  C
  C10      1.0000 0.94356  0.25870  0.49930  Biso   1.000  C
  C11      1.0000 0.44356  0.24130  0.99930  Biso   1.000  C
  C12      1.0000 0.94356  0.74130  0.99930  Biso   1.000  C
  C13      1.0000 0.55644  0.24130  0.50070  Biso   1.000  C
  C14      1.0000 0.05644  0.74130  0.50070  Biso   1.000  C
  C15      1.0000 0.55644  0.75870  0.00070  Biso   1.000  C
  C16      1.0000 0.05644  0.25870  0.00070  Biso   1.000  C
  H9       1.0000 0.40610  0.72330  0.47060  Biso   1.000  H
  H10      1.0000 0.90610  0.22330  0.47060  Biso   1.000  H
  H11      1.0000 0.40610  0.27670  0.97060  Biso   1.000  H
  H12      1.0000 0.90610  0.77670  0.97060  Biso   1.000  H
  H13      1.0000 0.59390  0.27670  0.52940  Biso   1.000  H
  H14      1.0000 0.09390  0.77670  0.52940  Biso   1.000  H
  H15      1.0000 0.59390  0.72330  0.02940  Biso   1.000  H
  H16      1.0000 0.09390  0.22330  0.02940  Biso   1.000  H
  C17      1.0000 0.44555  0.87190  0.55050  Biso   1.000  C
  C18      1.0000 0.94555  0.37190  0.55050  Biso   1.000  C
  C19      1.0000 0.44555  0.12810  0.05050  Biso   1.000  C
  C20      1.0000 0.94555  0.62810  0.05050  Biso   1.000  C
  C21      1.0000 0.55445  0.12810  0.44950  Biso   1.000  C
  C22      1.0000 0.05445  0.62810  0.44950  Biso   1.000  C
  C23      1.0000 0.55445  0.87190  0.94950  Biso   1.000  C
  C24      1.0000 0.05445  0.37190  0.94950  Biso   1.000  C
  H17      1.0000 0.40950  0.91520  0.55670  Biso   1.000  H
  H18      1.0000 0.90950  0.41520  0.55670  Biso   1.000  H
  H19      1.0000 0.40950  0.08480  0.05670  Biso   1.000  H
  H20      1.0000 0.90950  0.58480  0.05670  Biso   1.000  H
  H21      1.0000 0.59050  0.08480  0.44330  Biso   1.000  H
  H22      1.0000 0.09050  0.58480  0.44330  Biso   1.000  H
  H23      1.0000 0.59050  0.91520  0.94330  Biso   1.000  H
  H24      1.0000 0.09050  0.41520  0.94330  Biso   1.000  H
  C25      1.0000 0.50264  0.92370  0.59440  Biso   1.000  C
  C26      1.0000 0.00264  0.42370  0.59440  Biso   1.000  C
  C27      1.0000 0.50264  0.07630  0.09440  Biso   1.000  C
  C28      1.0000 0.00264  0.57630  0.09440  Biso   1.000  C
  C29      1.0000 0.49736  0.07630  0.40560  Biso   1.000  C
  C30      1.0000 0.99736  0.57630  0.40560  Biso   1.000  C
  C31      1.0000 0.49736  0.92370  0.90560  Biso   1.000  C
  C32      1.0000 0.99736  0.42370  0.90560  Biso   1.000  C
  C33      1.0000 0.50983  0.04440  0.64860  Biso   1.000  C
  C34      1.0000 0.00983  0.54440  0.64860  Biso   1.000  C
  C35      1.0000 0.50983  0.95560  0.14860  Biso   1.000  C
  C36      1.0000 0.00983  0.45560  0.14860  Biso   1.000  C
  C37      1.0000 0.49017  0.95560  0.35140  Biso   1.000  C
  C38      1.0000 0.99017  0.45560  0.35140  Biso   1.000  C
  C39      1.0000 0.49017  0.04440  0.85140  Biso   1.000  C
  C40      1.0000 0.99017  0.54440  0.85140  Biso   1.000  C
  H25      1.0000 0.47520  0.09170  0.65710  Biso   1.000  H
  H26      1.0000 0.97520  0.59170  0.65710  Biso   1.000  H
  H27      1.0000 0.47520  0.90830  0.15710  Biso   1.000  H
  H28      1.0000 0.97520  0.40830  0.15710  Biso   1.000  H
  H29      1.0000 0.52480  0.90830  0.34290  Biso   1.000  H
  H30      1.0000 0.02480  0.40830  0.34290  Biso   1.000  H
  H31      1.0000 0.52480  0.09170  0.84290  Biso   1.000  H
  H32      1.0000 0.02480  0.59170  0.84290  Biso   1.000  H
  C41      1.0000 0.56570  0.09070  0.68770  Biso   1.000  C
  C42      1.0000 0.06570  0.59070  0.68770  Biso   1.000  C
  C43      1.0000 0.56570  0.90930  0.18770  Biso   1.000  C
  C44      1.0000 0.06570  0.40930  0.18770  Biso   1.000  C
  C45      1.0000 0.43430  0.90930  0.31230  Biso   1.000  C
  C46      1.0000 0.93430  0.40930  0.31230  Biso   1.000  C
  C47      1.0000 0.43430  0.09070  0.81230  Biso   1.000  C
  C48      1.0000 0.93430  0.59070  0.81230  Biso   1.000  C
  H33      1.0000 0.56890  0.17050  0.72190  Biso   1.000  H
  H34      1.0000 0.06890  0.67050  0.72190  Biso   1.000  H
  H35      1.0000 0.56890  0.82950  0.22190  Biso   1.000  H
  H36      1.0000 0.06890  0.32950  0.22190  Biso   1.000  H
  H37      1.0000 0.43110  0.82950  0.27810  Biso   1.000  H
  H38      1.0000 0.93110  0.32950  0.27810  Biso   1.000  H
  H39      1.0000 0.43110  0.17050  0.77810  Biso   1.000  H
  H40      1.0000 0.93110  0.67050  0.77810  Biso   1.000  H
  C49      1.0000 0.62021  0.01930  0.67755  Biso   1.000  C
  C50      1.0000 0.12021  0.51930  0.67755  Biso   1.000  C
  C51      1.0000 0.62021  0.98070  0.17755  Biso   1.000  C
  C52      1.0000 0.12021  0.48070  0.17755  Biso   1.000  C
  C53      1.0000 0.37979  0.98070  0.32245  Biso   1.000  C
  C54      1.0000 0.87979  0.48070  0.32245  Biso   1.000  C
  C55      1.0000 0.37979  0.01930  0.82245  Biso   1.000  C
  C56      1.0000 0.87979  0.51930  0.82245  Biso   1.000  C
  C57      1.0000 0.68014  0.06200  0.71640  Biso   1.000  C
  C58      1.0000 0.18014  0.56200  0.71640  Biso   1.000  C
  C59      1.0000 0.68014  0.93800  0.21640  Biso   1.000  C
  C60      1.0000 0.18014  0.43800  0.21640  Biso   1.000  C
  C61      1.0000 0.31986  0.93800  0.28360  Biso   1.000  C
  C62      1.0000 0.81986  0.43800  0.28360  Biso   1.000  C
  C63      1.0000 0.31986  0.06200  0.78360  Biso   1.000  C
  C64      1.0000 0.81986  0.56200  0.78360  Biso   1.000  C
  H41      1.0000 0.68620  0.14060  0.75150  Biso   1.000  H
  H42      1.0000 0.18620  0.64060  0.75150  Biso   1.000  H
  H43      1.0000 0.68620  0.85940  0.25150  Biso   1.000  H
  H44      1.0000 0.18620  0.35940  0.25150  Biso   1.000  H
  H45      1.0000 0.31380  0.85940  0.24850  Biso   1.000  H
  H46      1.0000 0.81380  0.35940  0.24850  Biso   1.000  H
  H47      1.0000 0.31380  0.14060  0.74850  Biso   1.000  H
  H48      1.0000 0.81380  0.64060  0.74850  Biso   1.000  H
  C65      1.0000 0.72870  0.98800  0.70210  Biso   1.000  C
  C66      1.0000 0.22870  0.48800  0.70210  Biso   1.000  C
  C67      1.0000 0.72870  0.01200  0.20210  Biso   1.000  C
  C68      1.0000 0.22870  0.51200  0.20210  Biso   1.000  C
  C69      1.0000 0.27130  0.01200  0.29790  Biso   1.000  C
  C70      1.0000 0.77130  0.51200  0.29790  Biso   1.000  C
  C71      1.0000 0.27130  0.98800  0.79790  Biso   1.000  C
  C72      1.0000 0.77130  0.48800  0.79790  Biso   1.000  C
  H49      1.0000 0.76830  0.01490  0.72780  Biso   1.000  H
  H50      1.0000 0.26830  0.51490  0.72780  Biso   1.000  H
  H51      1.0000 0.76830  0.98510  0.22780  Biso   1.000  H
  H52      1.0000 0.26830  0.48510  0.22780  Biso   1.000  H
  H53      1.0000 0.23170  0.98510  0.27220  Biso   1.000  H
  H54      1.0000 0.73170  0.48510  0.27220  Biso   1.000  H
  H55      1.0000 0.23170  0.01490  0.77220  Biso   1.000  H
  H56      1.0000 0.73170  0.51490  0.77220  Biso   1.000  H
  C73      1.0000 0.71910  0.87090  0.64860  Biso   1.000  C
  C74      1.0000 0.21910  0.37090  0.64860  Biso   1.000  C
  C75      1.0000 0.71910  0.12910  0.14860  Biso   1.000  C
  C76      1.0000 0.21910  0.62910  0.14860  Biso   1.000  C
  C77      1.0000 0.28090  0.12910  0.35140  Biso   1.000  C
  C78      1.0000 0.78090  0.62910  0.35140  Biso   1.000  C
  C79      1.0000 0.28090  0.87090  0.85140  Biso   1.000  C
  C80      1.0000 0.78090  0.37090  0.85140  Biso   1.000  C
  H57      1.0000 0.75290  0.82150  0.63910  Biso   1.000  H
  H58      1.0000 0.25290  0.32150  0.63910  Biso   1.000  H
  H59      1.0000 0.75290  0.17850  0.13910  Biso   1.000  H
  H60      1.0000 0.25290  0.67850  0.13910  Biso   1.000  H
  H61      1.0000 0.24710  0.17850  0.36090  Biso   1.000  H
  H62      1.0000 0.74710  0.67850  0.36090  Biso   1.000  H
  H63      1.0000 0.24710  0.82150  0.86090  Biso   1.000  H
  H64      1.0000 0.74710  0.32150  0.86090  Biso   1.000  H
  C81      1.0000 0.61487  0.90010  0.62517  Biso   1.000  C
  C82      1.0000 0.11487  0.40010  0.62517  Biso   1.000  C
  C83      1.0000 0.61487  0.09990  0.12517  Biso   1.000  C
  C84      1.0000 0.11487  0.59990  0.12517  Biso   1.000  C
  C85      1.0000 0.38513  0.09990  0.37483  Biso   1.000  C
  C86      1.0000 0.88513  0.59990  0.37483  Biso   1.000  C
  C87      1.0000 0.38513  0.90010  0.87483  Biso   1.000  C
  C88      1.0000 0.88513  0.40010  0.87483  Biso   1.000  C
  C89      1.0000 0.55533  0.85230  0.58260  Biso   1.000  C
  C90      1.0000 0.05533  0.35230  0.58260  Biso   1.000  C
  C91      1.0000 0.55533  0.14770  0.08260  Biso   1.000  C
  C92      1.0000 0.05533  0.64770  0.08260  Biso   1.000  C
  C93      1.0000 0.44467  0.14770  0.41740  Biso   1.000  C
  C94      1.0000 0.94467  0.64770  0.41740  Biso   1.000  C
  C95      1.0000 0.44467  0.85230  0.91740  Biso   1.000  C
  C96      1.0000 0.94467  0.35230  0.91740  Biso   1.000  C
  O1       1.0000 0.72360  0.57750  0.54047  Biso   1.000  O
  O2       1.0000 0.22360  0.07750  0.54047  Biso   1.000  O
  O3       1.0000 0.72360  0.42250  0.04047  Biso   1.000  O
  O4       1.0000 0.22360  0.92250  0.04047  Biso   1.000  O
  O5       1.0000 0.27640  0.42250  0.45953  Biso   1.000  O
  O6       1.0000 0.77640  0.92250  0.45953  Biso   1.000  O
  O7       1.0000 0.27640  0.57750  0.95953  Biso   1.000  O
  O8       1.0000 0.77640  0.07750  0.95953  Biso   1.000  O
  O9       1.0000 0.66476  0.45920  0.60239  Biso   1.000  O
  O10      1.0000 0.16476  0.95920  0.60239  Biso   1.000  O
  O11      1.0000 0.66476  0.54080  0.10239  Biso   1.000  O
  O12      1.0000 0.16476  0.04080  0.10239  Biso   1.000  O
  O13      1.0000 0.33524  0.54080  0.39761  Biso   1.000  O
  O14      1.0000 0.83524  0.04080  0.39761  Biso   1.000  O
  O15      1.0000 0.33524  0.45920  0.89761  Biso   1.000  O
  O16      1.0000 0.83524  0.95920  0.89761  Biso   1.000  O
  C97      1.0000 0.71333  0.46910  0.58107  Biso   1.000  C
  C98      1.0000 0.21333  0.96910  0.58107  Biso   1.000  C
  C99      1.0000 0.71333  0.53090  0.08107  Biso   1.000  C
  C100     1.0000 0.21333  0.03090  0.08107  Biso   1.000  C
  C101     1.0000 0.28667  0.53090  0.41893  Biso   1.000  C
  C102     1.0000 0.78667  0.03090  0.41893  Biso   1.000  C
  C103     1.0000 0.28667  0.46910  0.91893  Biso   1.000  C
  C104     1.0000 0.78667  0.96910  0.91893  Biso   1.000  C
  C105     1.0000 0.76215  0.35060  0.60060  Biso   1.000  C
  C106     1.0000 0.26215  0.85060  0.60060  Biso   1.000  C
  C107     1.0000 0.76215  0.64940  0.10060  Biso   1.000  C
  C108     1.0000 0.26215  0.14940  0.10060  Biso   1.000  C
  C109     1.0000 0.23785  0.64940  0.39940  Biso   1.000  C
  C110     1.0000 0.73785  0.14940  0.39940  Biso   1.000  C
  C111     1.0000 0.23785  0.35060  0.89940  Biso   1.000  C
  C112     1.0000 0.73785  0.85060  0.89940  Biso   1.000  C
  H65      1.0000 0.74830  0.27300  0.63050  Biso   1.000  H
  H66      1.0000 0.24830  0.77300  0.63050  Biso   1.000  H
  H67      1.0000 0.74830  0.72700  0.13050  Biso   1.000  H
  H68      1.0000 0.24830  0.22700  0.13050  Biso   1.000  H
  H69      1.0000 0.25170  0.72700  0.36950  Biso   1.000  H
  H70      1.0000 0.75170  0.22700  0.36950  Biso   1.000  H
  H71      1.0000 0.25170  0.27300  0.86950  Biso   1.000  H
  H72      1.0000 0.75170  0.77300  0.86950  Biso   1.000  H
  H73      1.0000 0.79920  0.39270  0.63340  Biso   1.000  H
  H74      1.0000 0.29920  0.89270  0.63340  Biso   1.000  H
  H75      1.0000 0.79920  0.60730  0.13340  Biso   1.000  H
  H76      1.0000 0.29920  0.10730  0.13340  Biso   1.000  H
  H77      1.0000 0.20080  0.60730  0.36660  Biso   1.000  H
  H78      1.0000 0.70080  0.10730  0.36660  Biso   1.000  H
  H79      1.0000 0.20080  0.39270  0.86660  Biso   1.000  H
  H80      1.0000 0.70080  0.89270  0.86660  Biso   1.000  H
  C113     1.0000 0.77660  0.28450  0.52700  Biso   1.000  C
  C114     1.0000 0.27660  0.78450  0.52700  Biso   1.000  C
  C115     1.0000 0.77660  0.71550  0.02700  Biso   1.000  C
  C116     1.0000 0.27660  0.21550  0.02700  Biso   1.000  C
  C117     1.0000 0.22340  0.71550  0.47300  Biso   1.000  C
  C118     1.0000 0.72340  0.21550  0.47300  Biso   1.000  C
  C119     1.0000 0.22340  0.28450  0.97300  Biso   1.000  C
  C120     1.0000 0.72340  0.78450  0.97300  Biso   1.000  C
  H81      1.0000 0.79260  0.36160  0.49890  Biso   1.000  H
  H82      1.0000 0.29260  0.86160  0.49890  Biso   1.000  H
  H83      1.0000 0.79260  0.63840  0.99890  Biso   1.000  H
  H84      1.0000 0.29260  0.13840  0.99890  Biso   1.000  H
  H85      1.0000 0.20740  0.63840  0.50110  Biso   1.000  H
  H86      1.0000 0.70740  0.13840  0.50110  Biso   1.000  H
  H87      1.0000 0.20740  0.36160  0.00110  Biso   1.000  H
  H88      1.0000 0.70740  0.86160  0.00110  Biso   1.000  H
  H89      1.0000 0.80850  0.21080  0.54270  Biso   1.000  H
  H90      1.0000 0.30850  0.71080  0.54270  Biso   1.000  H
  H91      1.0000 0.80850  0.78920  0.04270  Biso   1.000  H
  H92      1.0000 0.30850  0.28920  0.04270  Biso   1.000  H
  H93      1.0000 0.19150  0.78920  0.45730  Biso   1.000  H
  H94      1.0000 0.69150  0.28920  0.45730  Biso   1.000  H
  H95      1.0000 0.19150  0.21080  0.95730  Biso   1.000  H
  H96      1.0000 0.69150  0.71080  0.95730  Biso   1.000  H
  O17      1.0000 0.60337  0.54110  0.42730  Biso   1.000  O
  O18      1.0000 0.10337  0.04110  0.42730  Biso   1.000  O
  O19      1.0000 0.60337  0.45890  0.92730  Biso   1.000  O
  O20      1.0000 0.10337  0.95890  0.92730  Biso   1.000  O
  O21      1.0000 0.39663  0.45890  0.57270  Biso   1.000  O
  O22      1.0000 0.89663  0.95890  0.57270  Biso   1.000  O
  O23      1.0000 0.39663  0.54110  0.07270  Biso   1.000  O
  O24      1.0000 0.89663  0.04110  0.07270  Biso   1.000  O
  O25      1.0000 0.62890  0.65990  0.32823  Biso   1.000  O
  O26      1.0000 0.12890  0.15990  0.32823  Biso   1.000  O
  O27      1.0000 0.62890  0.34010  0.82823  Biso   1.000  O
  O28      1.0000 0.12890  0.84010  0.82823  Biso   1.000  O
  O29      1.0000 0.37110  0.34010  0.67177  Biso   1.000  O
  O30      1.0000 0.87110  0.84010  0.67177  Biso   1.000  O
  O31      1.0000 0.37110  0.65990  0.17177  Biso   1.000  O
  O32      1.0000 0.87110  0.15990  0.17177  Biso   1.000  O
  C121     1.0000 0.60792  0.55410  0.35640  Biso   1.000  C
  C122     1.0000 0.10792  0.05410  0.35640  Biso   1.000  C
  C123     1.0000 0.60792  0.44590  0.85640  Biso   1.000  C
  C124     1.0000 0.10792  0.94590  0.85640  Biso   1.000  C
  C125     1.0000 0.39208  0.44590  0.64360  Biso   1.000  C
  C126     1.0000 0.89208  0.94590  0.64360  Biso   1.000  C
  C127     1.0000 0.39208  0.55410  0.14360  Biso   1.000  C
  C128     1.0000 0.89208  0.05410  0.14360  Biso   1.000  C
  C129     1.0000 0.58550  0.42250  0.30350  Biso   1.000  C
  C130     1.0000 0.08550  0.92250  0.30350  Biso   1.000  C
  C131     1.0000 0.58550  0.57750  0.80350  Biso   1.000  C
  C132     1.0000 0.08550  0.07750  0.80350  Biso   1.000  C
  C133     1.0000 0.41450  0.57750  0.69650  Biso   1.000  C
  C134     1.0000 0.91450  0.07750  0.69650  Biso   1.000  C
  C135     1.0000 0.41450  0.42250  0.19650  Biso   1.000  C
  C136     1.0000 0.91450  0.92250  0.19650  Biso   1.000  C
  H97      1.0000 0.59820  0.33160  0.33200  Biso   1.000  H
  H98      1.0000 0.09820  0.83160  0.33200  Biso   1.000  H
  H99      1.0000 0.59820  0.66840  0.83200  Biso   1.000  H
  H100     1.0000 0.09820  0.16840  0.83200  Biso   1.000  H
  H101     1.0000 0.40180  0.66840  0.66800  Biso   1.000  H
  H102     1.0000 0.90180  0.16840  0.66800  Biso   1.000  H
  H103     1.0000 0.40180  0.33160  0.16800  Biso   1.000  H
  H104     1.0000 0.90180  0.83160  0.16800  Biso   1.000  H
  H105     1.0000 0.60310  0.42500  0.25800  Biso   1.000  H
  H106     1.0000 0.10310  0.92500  0.25800  Biso   1.000  H
  H107     1.0000 0.60310  0.57500  0.75800  Biso   1.000  H
  H108     1.0000 0.10310  0.07500  0.75800  Biso   1.000  H
  H109     1.0000 0.39690  0.57500  0.74200  Biso   1.000  H
  H110     1.0000 0.89690  0.07500  0.74200  Biso   1.000  H
  H111     1.0000 0.39690  0.42500  0.24200  Biso   1.000  H
  H112     1.0000 0.89690  0.92500  0.24200  Biso   1.000  H
  C137     1.0000 0.51600  0.42820  0.27730  Biso   1.000  C
  C138     1.0000 0.01600  0.92820  0.27730  Biso   1.000  C
  C139     1.0000 0.51600  0.57180  0.77730  Biso   1.000  C
  C140     1.0000 0.01600  0.07180  0.77730  Biso   1.000  C
  C141     1.0000 0.48400  0.57180  0.72270  Biso   1.000  C
  C142     1.0000 0.98400  0.07180  0.72270  Biso   1.000  C
  C143     1.0000 0.48400  0.42820  0.22270  Biso   1.000  C
  C144     1.0000 0.98400  0.92820  0.22270  Biso   1.000  C
  H113     1.0000 0.50300  0.34620  0.30500  Biso   1.000  H
  H114     1.0000 0.00300  0.84620  0.30500  Biso   1.000  H
  H115     1.0000 0.50300  0.65380  0.80500  Biso   1.000  H
  H116     1.0000 0.00300  0.15380  0.80500  Biso   1.000  H
  H117     1.0000 0.49700  0.65380  0.69500  Biso   1.000  H
  H118     1.0000 0.99700  0.15380  0.69500  Biso   1.000  H
  H119     1.0000 0.49700  0.34620  0.19500  Biso   1.000  H
  H120     1.0000 0.99700  0.84620  0.19500  Biso   1.000  H
  H121     1.0000 0.50550  0.51610  0.30290  Biso   1.000  H
  H122     1.0000 0.00550  0.01610  0.30290  Biso   1.000  H
  H123     1.0000 0.50550  0.48390  0.80290  Biso   1.000  H
  H124     1.0000 0.00550  0.98390  0.80290  Biso   1.000  H
  H125     1.0000 0.49450  0.48390  0.69710  Biso   1.000  H
  H126     1.0000 0.99450  0.98390  0.69710  Biso   1.000  H
  H127     1.0000 0.49450  0.51610  0.19710  Biso   1.000  H
  H128     1.0000 0.99450  0.01610  0.19710  Biso   1.000  H
  O33      1.0000 0.65556  0.85300  0.44200  Biso   1.000  O
  O34      1.0000 0.15556  0.35300  0.44200  Biso   1.000  O
  O35      1.0000 0.65556  0.14700  0.94200  Biso   1.000  O
  O36      1.0000 0.15556  0.64700  0.94200  Biso   1.000  O
  O37      1.0000 0.34444  0.14700  0.55800  Biso   1.000  O
  O38      1.0000 0.84444  0.64700  0.55800  Biso   1.000  O
  O39      1.0000 0.34444  0.85300  0.05800  Biso   1.000  O
  O40      1.0000 0.84444  0.35300  0.05800  Biso   1.000  O
  H129     1.0000 0.64500  0.79700  0.40100  Biso   1.000  H
  H130     1.0000 0.14500  0.29700  0.40100  Biso   1.000  H
  H131     1.0000 0.64500  0.20300  0.90100  Biso   1.000  H
  H132     1.0000 0.14500  0.70300  0.90100  Biso   1.000  H
  H133     1.0000 0.35500  0.20300  0.59900  Biso   1.000  H
  H134     1.0000 0.85500  0.70300  0.59900  Biso   1.000  H
  H135     1.0000 0.35500  0.79700  0.09900  Biso   1.000  H
  H136     1.0000 0.85500  0.29700  0.09900  Biso   1.000  H
  H137     1.0000 0.69400  0.86900  0.44800  Biso   1.000  H
  H138     1.0000 0.19400  0.36900  0.44800  Biso   1.000  H
  H139     1.0000 0.69400  0.13100  0.94800  Biso   1.000  H
  H140     1.0000 0.19400  0.63100  0.94800  Biso   1.000  H
  H141     1.0000 0.30600  0.13100  0.55200  Biso   1.000  H
  H142     1.0000 0.80600  0.63100  0.55200  Biso   1.000  H
  H143     1.0000 0.30600  0.86900  0.05200  Biso   1.000  H
  H144     1.0000 0.80600  0.36900  0.05200  Biso   1.000  H
