data_image0
_cell_length_a       12.4823
_cell_length_b       9.1699
_cell_length_c       19.5647
_cell_angle_alpha    90
_cell_angle_beta     90
_cell_angle_gamma    90

_symmetry_space_group_name_H-M    "P 1"
_symmetry_int_tables_number       1

loop_
  _symmetry_equiv_pos_as_xyz
  'x, y, z'

loop_
  _atom_site_label
  _atom_site_occupancy
  _atom_site_fract_x
  _atom_site_fract_y
  _atom_site_fract_z
  _atom_site_thermal_displace_type
  _atom_site_B_iso_or_equiv
  _atom_site_type_symbol
  Cu1      1.0000 0.82952  0.02709  0.24750  Biso   1.000  Cu
  Cu2      1.0000 0.32952  0.02709  0.25250  Biso   1.000  Cu
  Cu3      1.0000 0.82952  0.47291  0.74750  Biso   1.000  Cu
  Cu4      1.0000 0.67048  0.52709  0.24750  Biso   1.000  Cu
  Cu5      1.0000 0.17048  0.97291  0.75250  Biso   1.000  Cu
  Cu6      1.0000 0.67048  0.97291  0.74750  Biso   1.000  Cu
  Cu7      1.0000 0.17048  0.52709  0.25250  Biso   1.000  Cu
  Cu8      1.0000 0.32952  0.47291  0.75250  Biso   1.000  Cu
  Mo1      1.0000 0.09232  0.13718  0.31883  Biso   1.000  Mo
  Mo2      1.0000 0.59232  0.13718  0.18117  Biso   1.000  Mo
  Mo3      1.0000 0.09232  0.36282  0.81883  Biso   1.000  Mo
  Mo4      1.0000 0.40768  0.63718  0.31883  Biso   1.000  Mo
  Mo5      1.0000 0.90768  0.86282  0.68117  Biso   1.000  Mo
  Mo6      1.0000 0.40768  0.86282  0.81883  Biso   1.000  Mo
  Mo7      1.0000 0.90768  0.63718  0.18117  Biso   1.000  Mo
  Mo8      1.0000 0.59232  0.36282  0.68117  Biso   1.000  Mo
  O1       1.0000 0.96382  0.07560  0.29181  Biso   1.000  O
  O2       1.0000 0.46382  0.07560  0.20819  Biso   1.000  O
  O3       1.0000 0.96382  0.42440  0.79181  Biso   1.000  O
  O4       1.0000 0.53618  0.57560  0.29181  Biso   1.000  O
  O5       1.0000 0.03618  0.92440  0.70819  Biso   1.000  O
  O6       1.0000 0.53618  0.92440  0.79181  Biso   1.000  O
  O7       1.0000 0.03618  0.57560  0.20819  Biso   1.000  O
  O8       1.0000 0.46382  0.42440  0.70819  Biso   1.000  O
  O9       1.0000 0.87863  0.80250  0.22054  Biso   1.000  O
  O10      1.0000 0.37863  0.80250  0.27946  Biso   1.000  O
  O11      1.0000 0.87863  0.69750  0.72054  Biso   1.000  O
  O12      1.0000 0.62137  0.30250  0.22054  Biso   1.000  O
  O13      1.0000 0.12137  0.19750  0.77946  Biso   1.000  O
  O14      1.0000 0.62137  0.19750  0.72054  Biso   1.000  O
  O15      1.0000 0.12137  0.30250  0.27946  Biso   1.000  O
  O16      1.0000 0.37863  0.69750  0.77946  Biso   1.000  O
  O17      1.0000 0.69084  0.00460  0.20353  Biso   1.000  O
  O18      1.0000 0.19084  0.00460  0.29647  Biso   1.000  O
  O19      1.0000 0.69084  0.49540  0.70353  Biso   1.000  O
  O20      1.0000 0.80916  0.50460  0.20353  Biso   1.000  O
  O21      1.0000 0.30916  0.99540  0.79647  Biso   1.000  O
  O22      1.0000 0.80916  0.99540  0.70353  Biso   1.000  O
  O23      1.0000 0.30916  0.50460  0.29647  Biso   1.000  O
  O24      1.0000 0.19084  0.49540  0.79647  Biso   1.000  O
  O25      1.0000 0.09078  0.15950  0.40661  Biso   1.000  O
  O26      1.0000 0.59078  0.15950  0.09339  Biso   1.000  O
  O27      1.0000 0.09078  0.34050  0.90661  Biso   1.000  O
  O28      1.0000 0.40922  0.65950  0.40661  Biso   1.000  O
  O29      1.0000 0.90922  0.84050  0.59339  Biso   1.000  O
  O30      1.0000 0.40922  0.84050  0.90661  Biso   1.000  O
  O31      1.0000 0.90922  0.65950  0.09339  Biso   1.000  O
  O32      1.0000 0.59078  0.34050  0.59339  Biso   1.000  O
  C1       1.0000 0.85030  0.05470  0.09687  Biso   1.000  C
  C2       1.0000 0.35030  0.05470  0.40313  Biso   1.000  C
  C3       1.0000 0.85030  0.44530  0.59687  Biso   1.000  C
  C4       1.0000 0.64970  0.55470  0.09687  Biso   1.000  C
  C5       1.0000 0.14970  0.94530  0.90313  Biso   1.000  C
  C6       1.0000 0.64970  0.94530  0.59687  Biso   1.000  C
  C7       1.0000 0.14970  0.55470  0.40313  Biso   1.000  C
  C8       1.0000 0.35030  0.44530  0.90313  Biso   1.000  C
  C9       1.0000 0.88210  0.11270  0.03438  Biso   1.000  C
  C10      1.0000 0.38210  0.11270  0.46562  Biso   1.000  C
  C11      1.0000 0.88210  0.38730  0.53438  Biso   1.000  C
  C12      1.0000 0.61790  0.61270  0.03438  Biso   1.000  C
  C13      1.0000 0.11790  0.88730  0.96562  Biso   1.000  C
  C14      1.0000 0.61790  0.88730  0.53438  Biso   1.000  C
  C15      1.0000 0.11790  0.61270  0.46562  Biso   1.000  C
  C16      1.0000 0.38210  0.38730  0.96562  Biso   1.000  C
  C17      1.0000 0.95660  0.22700  0.03540  Biso   1.000  C
  C18      1.0000 0.45660  0.22700  0.46460  Biso   1.000  C
  C19      1.0000 0.95660  0.27300  0.53540  Biso   1.000  C
  C20      1.0000 0.54340  0.72700  0.03540  Biso   1.000  C
  C21      1.0000 0.04340  0.77300  0.96460  Biso   1.000  C
  C22      1.0000 0.54340  0.77300  0.53540  Biso   1.000  C
  C23      1.0000 0.04340  0.72700  0.46460  Biso   1.000  C
  C24      1.0000 0.45660  0.27300  0.96460  Biso   1.000  C
  C25      1.0000 0.99030  0.28130  0.09735  Biso   1.000  C
  C26      1.0000 0.49030  0.28130  0.40265  Biso   1.000  C
  C27      1.0000 0.99030  0.21870  0.59735  Biso   1.000  C
  C28      1.0000 0.50970  0.78130  0.09735  Biso   1.000  C
  C29      1.0000 0.00970  0.71870  0.90265  Biso   1.000  C
  C30      1.0000 0.50970  0.71870  0.59735  Biso   1.000  C
  C31      1.0000 0.00970  0.78130  0.40265  Biso   1.000  C
  C32      1.0000 0.49030  0.21870  0.90265  Biso   1.000  C
  C33      1.0000 0.95150  0.22150  0.15720  Biso   1.000  C
  C34      1.0000 0.45150  0.22150  0.34280  Biso   1.000  C
  C35      1.0000 0.95150  0.27850  0.65720  Biso   1.000  C
  C36      1.0000 0.54850  0.72150  0.15720  Biso   1.000  C
  C37      1.0000 0.04850  0.77850  0.84280  Biso   1.000  C
  C38      1.0000 0.54850  0.77850  0.65720  Biso   1.000  C
  C39      1.0000 0.04850  0.72150  0.34280  Biso   1.000  C
  C40      1.0000 0.45150  0.27850  0.84280  Biso   1.000  C
  C41      1.0000 0.69640  0.95870  0.90083  Biso   1.000  C
  C42      1.0000 0.19640  0.95870  0.59917  Biso   1.000  C
  C43      1.0000 0.69640  0.54130  0.40083  Biso   1.000  C
  C44      1.0000 0.80360  0.45870  0.90083  Biso   1.000  C
  C45      1.0000 0.30360  0.04130  0.09917  Biso   1.000  C
  C46      1.0000 0.80360  0.04130  0.40083  Biso   1.000  C
  C47      1.0000 0.30360  0.45870  0.59917  Biso   1.000  C
  C48      1.0000 0.19640  0.54130  0.09917  Biso   1.000  C
  C49      1.0000 0.73890  0.98950  0.96358  Biso   1.000  C
  C50      1.0000 0.23890  0.98950  0.53642  Biso   1.000  C
  C51      1.0000 0.73890  0.51050  0.46358  Biso   1.000  C
  C52      1.0000 0.76110  0.48950  0.96358  Biso   1.000  C
  C53      1.0000 0.26110  0.01050  0.03642  Biso   1.000  C
  C54      1.0000 0.76110  0.01050  0.46358  Biso   1.000  C
  C55      1.0000 0.26110  0.48950  0.53642  Biso   1.000  C
  C56      1.0000 0.23890  0.51050  0.03642  Biso   1.000  C
  C57      1.0000 0.83690  0.06160  0.96850  Biso   1.000  C
  C58      1.0000 0.33690  0.06160  0.53150  Biso   1.000  C
  C59      1.0000 0.83690  0.43840  0.46850  Biso   1.000  C
  C60      1.0000 0.66310  0.56160  0.96850  Biso   1.000  C
  C61      1.0000 0.16310  0.93840  0.03150  Biso   1.000  C
  C62      1.0000 0.66310  0.93840  0.46850  Biso   1.000  C
  C63      1.0000 0.16310  0.56160  0.53150  Biso   1.000  C
  C64      1.0000 0.33690  0.43840  0.03150  Biso   1.000  C
  C65      1.0000 0.88800  0.09330  0.90715  Biso   1.000  C
  C66      1.0000 0.38800  0.09330  0.59285  Biso   1.000  C
  C67      1.0000 0.88800  0.40670  0.40715  Biso   1.000  C
  C68      1.0000 0.61200  0.59330  0.90715  Biso   1.000  C
  C69      1.0000 0.11200  0.90670  0.09285  Biso   1.000  C
  C70      1.0000 0.61200  0.90670  0.40715  Biso   1.000  C
  C71      1.0000 0.11200  0.59330  0.59285  Biso   1.000  C
  C72      1.0000 0.38800  0.40670  0.09285  Biso   1.000  C
  C73      1.0000 0.83960  0.06360  0.84548  Biso   1.000  C
  C74      1.0000 0.33960  0.06360  0.65452  Biso   1.000  C
  C75      1.0000 0.83960  0.43640  0.34548  Biso   1.000  C
  C76      1.0000 0.66040  0.56360  0.84548  Biso   1.000  C
  C77      1.0000 0.16040  0.93640  0.15452  Biso   1.000  C
  C78      1.0000 0.66040  0.93640  0.34548  Biso   1.000  C
  C79      1.0000 0.16040  0.56360  0.65452  Biso   1.000  C
  C80      1.0000 0.33960  0.43640  0.15452  Biso   1.000  C
  N1       1.0000 0.88350  0.10800  0.15725  Biso   1.000  N
  N2       1.0000 0.38350  0.10800  0.34275  Biso   1.000  N
  N3       1.0000 0.88350  0.39200  0.65725  Biso   1.000  N
  N4       1.0000 0.61650  0.60800  0.15725  Biso   1.000  N
  N5       1.0000 0.11650  0.89200  0.84275  Biso   1.000  N
  N6       1.0000 0.61650  0.89200  0.65725  Biso   1.000  N
  N7       1.0000 0.11650  0.60800  0.34275  Biso   1.000  N
  N8       1.0000 0.38350  0.39200  0.84275  Biso   1.000  N
  N9       1.0000 0.74290  0.99710  0.84071  Biso   1.000  N
  N10      1.0000 0.24290  0.99710  0.65929  Biso   1.000  N
  N11      1.0000 0.74290  0.50290  0.34071  Biso   1.000  N
  N12      1.0000 0.75710  0.49710  0.84071  Biso   1.000  N
  N13      1.0000 0.25710  0.00290  0.15929  Biso   1.000  N
  N14      1.0000 0.75710  0.00290  0.34071  Biso   1.000  N
  N15      1.0000 0.25710  0.49710  0.65929  Biso   1.000  N
  N16      1.0000 0.24290  0.50290  0.15929  Biso   1.000  N
  H1       1.0000 0.80200  0.97300  0.10250  Biso   1.000  H
  H2       1.0000 0.30200  0.97300  0.39750  Biso   1.000  H
  H3       1.0000 0.80200  0.52700  0.60250  Biso   1.000  H
  H4       1.0000 0.69800  0.47300  0.10250  Biso   1.000  H
  H5       1.0000 0.19800  0.02700  0.89750  Biso   1.000  H
  H6       1.0000 0.69800  0.02700  0.60250  Biso   1.000  H
  H7       1.0000 0.19800  0.47300  0.39750  Biso   1.000  H
  H8       1.0000 0.30200  0.52700  0.89750  Biso   1.000  H
  H9       1.0000 0.97700  0.26800  0.99640  Biso   1.000  H
  H10      1.0000 0.47700  0.26800  0.50360  Biso   1.000  H
  H11      1.0000 0.97700  0.23200  0.49640  Biso   1.000  H
  H12      1.0000 0.52300  0.76800  0.99640  Biso   1.000  H
  H13      1.0000 0.02300  0.73200  0.00360  Biso   1.000  H
  H14      1.0000 0.52300  0.73200  0.49640  Biso   1.000  H
  H15      1.0000 0.02300  0.76800  0.50360  Biso   1.000  H
  H16      1.0000 0.47700  0.23200  0.00360  Biso   1.000  H
  H17      1.0000 0.03700  0.35600  0.10150  Biso   1.000  H
  H18      1.0000 0.53700  0.35600  0.39850  Biso   1.000  H
  H19      1.0000 0.03700  0.14400  0.60150  Biso   1.000  H
  H20      1.0000 0.46300  0.85600  0.10150  Biso   1.000  H
  H21      1.0000 0.96300  0.64400  0.89850  Biso   1.000  H
  H22      1.0000 0.46300  0.64400  0.60150  Biso   1.000  H
  H23      1.0000 0.96300  0.85600  0.39850  Biso   1.000  H
  H24      1.0000 0.53700  0.14400  0.89850  Biso   1.000  H
  H25      1.0000 0.97200  0.25600  0.19950  Biso   1.000  H
  H26      1.0000 0.47200  0.25600  0.30050  Biso   1.000  H
  H27      1.0000 0.97200  0.24400  0.69950  Biso   1.000  H
  H28      1.0000 0.52800  0.75600  0.19950  Biso   1.000  H
  H29      1.0000 0.02800  0.74400  0.80050  Biso   1.000  H
  H30      1.0000 0.52800  0.74400  0.69950  Biso   1.000  H
  H31      1.0000 0.02800  0.75600  0.30050  Biso   1.000  H
  H32      1.0000 0.47200  0.24400  0.80050  Biso   1.000  H
  H33      1.0000 0.63100  0.92100  0.89550  Biso   1.000  H
  H34      1.0000 0.13100  0.92100  0.60450  Biso   1.000  H
  H35      1.0000 0.63100  0.57900  0.39550  Biso   1.000  H
  H36      1.0000 0.86900  0.42100  0.89550  Biso   1.000  H
  H37      1.0000 0.36900  0.07900  0.10450  Biso   1.000  H
  H38      1.0000 0.86900  0.07900  0.39550  Biso   1.000  H
  H39      1.0000 0.36900  0.42100  0.60450  Biso   1.000  H
  H40      1.0000 0.13100  0.57900  0.10450  Biso   1.000  H
  H41      1.0000 0.70200  0.96600  0.99800  Biso   1.000  H
  H42      1.0000 0.20200  0.96600  0.50200  Biso   1.000  H
  H43      1.0000 0.70200  0.53400  0.49800  Biso   1.000  H
  H44      1.0000 0.79800  0.46600  0.99800  Biso   1.000  H
  H45      1.0000 0.29800  0.03400  0.00200  Biso   1.000  H
  H46      1.0000 0.79800  0.03400  0.49800  Biso   1.000  H
  H47      1.0000 0.29800  0.46600  0.50200  Biso   1.000  H
  H48      1.0000 0.20200  0.53400  0.00200  Biso   1.000  H
  H49      1.0000 0.95100  0.13500  0.90900  Biso   1.000  H
  H50      1.0000 0.45100  0.13500  0.59100  Biso   1.000  H
  H51      1.0000 0.95100  0.36500  0.40900  Biso   1.000  H
  H52      1.0000 0.54900  0.63500  0.90900  Biso   1.000  H
  H53      1.0000 0.04900  0.86500  0.09100  Biso   1.000  H
  H54      1.0000 0.54900  0.86500  0.40900  Biso   1.000  H
  H55      1.0000 0.04900  0.63500  0.59100  Biso   1.000  H
  H56      1.0000 0.45100  0.36500  0.09100  Biso   1.000  H
  H57      1.0000 0.87700  0.08700  0.80220  Biso   1.000  H
  H58      1.0000 0.37700  0.08700  0.69780  Biso   1.000  H
  H59      1.0000 0.87700  0.41300  0.30220  Biso   1.000  H
  H60      1.0000 0.62300  0.58700  0.80220  Biso   1.000  H
  H61      1.0000 0.12300  0.91300  0.19780  Biso   1.000  H
  H62      1.0000 0.62300  0.91300  0.30220  Biso   1.000  H
  H63      1.0000 0.12300  0.58700  0.69780  Biso   1.000  H
  H64      1.0000 0.37700  0.41300  0.19780  Biso   1.000  H
