data_image0
_cell_length_a       5.4397
_cell_length_b       6.813
_cell_length_c       10.727
_cell_angle_alpha    73.909
_cell_angle_beta     78.839
_cell_angle_gamma    70.389

_symmetry_space_group_name_H-M    "P 1"
_symmetry_int_tables_number       1

loop_
  _symmetry_equiv_pos_as_xyz
  'x, y, z'

loop_
  _atom_site_label
  _atom_site_occupancy
  _atom_site_fract_x
  _atom_site_fract_y
  _atom_site_fract_z
  _atom_site_thermal_displace_type
  _atom_site_B_iso_or_equiv
  _atom_site_type_symbol
  Mo1      1.0000 0.74556  0.76879  0.08791  Biso   1.000  Mo
  Mo2      1.0000 0.25444  0.23121  0.91209  Biso   1.000  Mo
  Cu1      1.0000 0.59161  0.30242  0.10223  Biso   1.000  Cu
  Cu2      1.0000 0.40839  0.69758  0.89777  Biso   1.000  Cu
  O1       1.0000 0.54850  0.02330  0.12140  Biso   1.000  O
  O2       1.0000 0.45150  0.97670  0.87860  Biso   1.000  O
  O3       1.0000 0.54240  0.61080  0.06890  Biso   1.000  O
  O4       1.0000 0.45760  0.38920  0.93110  Biso   1.000  O
  O5       1.0000 0.98840  0.78980  0.95840  Biso   1.000  O
  O6       1.0000 0.01160  0.21020  0.04160  Biso   1.000  O
  O7       1.0000 0.90170  0.62550  0.22380  Biso   1.000  O
  O8       1.0000 0.09830  0.37450  0.77620  Biso   1.000  O
  N1       1.0000 0.62920  0.24880  0.28980  Biso   1.000  N
  N2       1.0000 0.37080  0.75120  0.71020  Biso   1.000  N
  C1       1.0000 0.85090  0.12270  0.34060  Biso   1.000  C
  C2       1.0000 0.14910  0.87730  0.65940  Biso   1.000  C
  H1       1.0000 0.99520  0.06710  0.28460  Biso   1.000  H
  H2       1.0000 0.00480  0.93290  0.71540  Biso   1.000  H
  C3       1.0000 0.41860  0.33160  0.36850  Biso   1.000  C
  C4       1.0000 0.58140  0.66840  0.63150  Biso   1.000  C
  H3       1.0000 0.26450  0.41910  0.33300  Biso   1.000  H
  H4       1.0000 0.73550  0.58090  0.66700  Biso   1.000  H
  C5       1.0000 0.87570  0.07090  0.47330  Biso   1.000  C
  C6       1.0000 0.12430  0.92910  0.52670  Biso   1.000  C
  C7       1.0000 0.42720  0.28890  0.50110  Biso   1.000  C
  C8       1.0000 0.57280  0.71110  0.49890  Biso   1.000  C
  H5       1.0000 0.28030  0.34870  0.55440  Biso   1.000  H
  H6       1.0000 0.71970  0.65130  0.44560  Biso   1.000  H
  C9       1.0000 0.65220  0.15820  0.55460  Biso   1.000  C
  C10      1.0000 0.34780  0.84180  0.44540  Biso   1.000  C
  H7       1.0000 0.65740  0.12730  0.64430  Biso   1.000  H
  H8       1.0000 0.34260  0.87270  0.35570  Biso   1.000  H
