data_image0
_cell_length_a       11.5976
_cell_length_b       20.8919
_cell_length_c       12.3538
_cell_angle_alpha    90
_cell_angle_beta     107.613
_cell_angle_gamma    90

_symmetry_space_group_name_H-M    "P 1"
_symmetry_int_tables_number       1

loop_
  _symmetry_equiv_pos_as_xyz
  'x, y, z'

loop_
  _atom_site_label
  _atom_site_occupancy
  _atom_site_fract_x
  _atom_site_fract_y
  _atom_site_fract_z
  _atom_site_thermal_displace_type
  _atom_site_B_iso_or_equiv
  _atom_site_type_symbol
  Cu1      1.0000 0.66240  0.01499  0.13847  Biso   1.000  Cu
  Cu2      1.0000 0.83760  0.51499  0.36153  Biso   1.000  Cu
  Cu3      1.0000 0.33760  0.98501  0.86153  Biso   1.000  Cu
  Cu4      1.0000 0.16240  0.48501  0.63847  Biso   1.000  Cu
  Cu5      1.0000 0.01547  0.63554  0.07371  Biso   1.000  Cu
  Cu6      1.0000 0.48453  0.13554  0.42629  Biso   1.000  Cu
  Cu7      1.0000 0.98453  0.36446  0.92629  Biso   1.000  Cu
  Cu8      1.0000 0.51547  0.86446  0.57371  Biso   1.000  Cu
  Ca1      1.0000 0.53473  0.67228  0.55895  Biso   1.000  Ca
  Ca2      1.0000 0.96527  0.17228  0.94105  Biso   1.000  Ca
  Ca3      1.0000 0.46527  0.32772  0.44105  Biso   1.000  Ca
  Ca4      1.0000 0.03473  0.82772  0.05895  Biso   1.000  Ca
  S1       1.0000 0.46516  0.65596  0.25415  Biso   1.000  S
  S2       1.0000 0.03484  0.15596  0.24585  Biso   1.000  S
  S3       1.0000 0.53484  0.34404  0.74585  Biso   1.000  S
  S4       1.0000 0.96516  0.84404  0.75415  Biso   1.000  S
  S5       1.0000 0.45746  0.38118  0.15186  Biso   1.000  S
  S6       1.0000 0.04254  0.88118  0.34814  Biso   1.000  S
  S7       1.0000 0.54254  0.61882  0.84814  Biso   1.000  S
  S8       1.0000 0.95746  0.11882  0.65186  Biso   1.000  S
  C1       1.0000 0.70450  0.79724  0.14580  Biso   1.000  C
  C2       1.0000 0.79550  0.29724  0.35420  Biso   1.000  C
  C3       1.0000 0.29550  0.20276  0.85420  Biso   1.000  C
  C4       1.0000 0.20450  0.70276  0.64580  Biso   1.000  C
  H1       1.0000 0.75660  0.82700  0.12580  Biso   1.000  H
  H2       1.0000 0.74340  0.32700  0.37420  Biso   1.000  H
  H3       1.0000 0.24340  0.17300  0.87420  Biso   1.000  H
  H4       1.0000 0.25660  0.67300  0.62580  Biso   1.000  H
  C5       1.0000 0.60630  0.81984  0.17670  Biso   1.000  C
  C6       1.0000 0.89370  0.31984  0.32330  Biso   1.000  C
  C7       1.0000 0.39370  0.18016  0.82330  Biso   1.000  C
  C8       1.0000 0.10630  0.68016  0.67670  Biso   1.000  C
  C9       1.0000 0.52990  0.77631  0.20620  Biso   1.000  C
  C10      1.0000 0.97010  0.27631  0.29380  Biso   1.000  C
  C11      1.0000 0.47010  0.22369  0.79380  Biso   1.000  C
  C12      1.0000 0.02990  0.72369  0.70620  Biso   1.000  C
  H5       1.0000 0.46190  0.79110  0.22680  Biso   1.000  H
  H6       1.0000 0.03810  0.29110  0.27320  Biso   1.000  H
  H7       1.0000 0.53810  0.20890  0.77320  Biso   1.000  H
  H8       1.0000 0.96190  0.70890  0.72680  Biso   1.000  H
  C13      1.0000 0.55370  0.71133  0.20530  Biso   1.000  C
  C14      1.0000 0.94630  0.21133  0.29470  Biso   1.000  C
  C15      1.0000 0.44630  0.28867  0.79470  Biso   1.000  C
  C16      1.0000 0.05370  0.78867  0.70530  Biso   1.000  C
  C17      1.0000 0.65170  0.68834  0.17270  Biso   1.000  C
  C18      1.0000 0.84830  0.18834  0.32730  Biso   1.000  C
  C19      1.0000 0.34830  0.31166  0.82730  Biso   1.000  C
  C20      1.0000 0.15170  0.81166  0.67270  Biso   1.000  C
  H9       1.0000 0.66580  0.64360  0.17070  Biso   1.000  H
  H10      1.0000 0.83420  0.14360  0.32930  Biso   1.000  H
  H11      1.0000 0.33420  0.35640  0.82930  Biso   1.000  H
  H12      1.0000 0.16580  0.85640  0.67070  Biso   1.000  H
  C21      1.0000 0.72850  0.73187  0.14320  Biso   1.000  C
  C22      1.0000 0.77150  0.23187  0.35680  Biso   1.000  C
  C23      1.0000 0.27150  0.26813  0.85680  Biso   1.000  C
  C24      1.0000 0.22850  0.76813  0.64320  Biso   1.000  C
  C25      1.0000 0.58130  0.89061  0.17330  Biso   1.000  C
  C26      1.0000 0.91870  0.39061  0.32670  Biso   1.000  C
  C27      1.0000 0.41870  0.10939  0.82670  Biso   1.000  C
  C28      1.0000 0.08130  0.60939  0.67330  Biso   1.000  C
  C29      1.0000 0.83820  0.71190  0.11140  Biso   1.000  C
  C30      1.0000 0.66180  0.21190  0.38860  Biso   1.000  C
  C31      1.0000 0.16180  0.28810  0.88860  Biso   1.000  C
  C32      1.0000 0.33820  0.78810  0.61140  Biso   1.000  C
  C33      1.0000 0.69200  0.23096  0.05790  Biso   1.000  C
  C34      1.0000 0.80800  0.73096  0.44210  Biso   1.000  C
  C35      1.0000 0.30800  0.76904  0.94210  Biso   1.000  C
  C36      1.0000 0.19200  0.26904  0.55790  Biso   1.000  C
  H13      1.0000 0.74400  0.19940  0.04280  Biso   1.000  H
  H14      1.0000 0.75600  0.69940  0.45720  Biso   1.000  H
  H15      1.0000 0.25600  0.80060  0.95720  Biso   1.000  H
  H16      1.0000 0.24400  0.30060  0.54280  Biso   1.000  H
  C37      1.0000 0.71780  0.29520  0.04850  Biso   1.000  C
  C38      1.0000 0.78220  0.79520  0.45150  Biso   1.000  C
  C39      1.0000 0.28220  0.70480  0.95150  Biso   1.000  C
  C40      1.0000 0.21780  0.20480  0.54850  Biso   1.000  C
  C41      1.0000 0.64430  0.34158  0.07570  Biso   1.000  C
  C42      1.0000 0.85570  0.84158  0.42430  Biso   1.000  C
  C43      1.0000 0.35570  0.65842  0.92430  Biso   1.000  C
  C44      1.0000 0.14430  0.15842  0.57570  Biso   1.000  C
  H17      1.0000 0.66210  0.38580  0.07170  Biso   1.000  H
  H18      1.0000 0.83790  0.88580  0.42830  Biso   1.000  H
  H19      1.0000 0.33790  0.61420  0.92830  Biso   1.000  H
  H20      1.0000 0.16210  0.11420  0.57170  Biso   1.000  H
  C45      1.0000 0.54550  0.32267  0.10850  Biso   1.000  C
  C46      1.0000 0.95450  0.82267  0.39150  Biso   1.000  C
  C47      1.0000 0.45450  0.67733  0.89150  Biso   1.000  C
  C48      1.0000 0.04550  0.17733  0.60850  Biso   1.000  C
  C49      1.0000 0.51660  0.25805  0.11280  Biso   1.000  C
  C50      1.0000 0.98340  0.75805  0.38720  Biso   1.000  C
  C51      1.0000 0.48340  0.74195  0.88720  Biso   1.000  C
  C52      1.0000 0.01660  0.24195  0.61280  Biso   1.000  C
  H21      1.0000 0.44620  0.24580  0.13180  Biso   1.000  H
  H22      1.0000 0.05380  0.74580  0.36820  Biso   1.000  H
  H23      1.0000 0.55380  0.75420  0.86820  Biso   1.000  H
  H24      1.0000 0.94620  0.25420  0.63180  Biso   1.000  H
  C53      1.0000 0.59130  0.21183  0.08900  Biso   1.000  C
  C54      1.0000 0.90870  0.71183  0.41100  Biso   1.000  C
  C55      1.0000 0.40870  0.78817  0.91100  Biso   1.000  C
  C56      1.0000 0.09130  0.28817  0.58900  Biso   1.000  C
  C57      1.0000 0.82490  0.31167  0.00980  Biso   1.000  C
  C58      1.0000 0.67510  0.81167  0.49020  Biso   1.000  C
  C59      1.0000 0.17510  0.68833  0.99020  Biso   1.000  C
  C60      1.0000 0.32490  0.18833  0.50980  Biso   1.000  C
  C61      1.0000 0.56830  0.14138  0.09970  Biso   1.000  C
  C62      1.0000 0.93170  0.64138  0.40030  Biso   1.000  C
  C63      1.0000 0.43170  0.85862  0.90030  Biso   1.000  C
  C64      1.0000 0.06830  0.35862  0.59970  Biso   1.000  C
  O1       1.0000 0.35240  0.68814  0.24870  Biso   1.000  O
  O2       1.0000 0.14760  0.18814  0.25130  Biso   1.000  O
  O3       1.0000 0.64760  0.31186  0.75130  Biso   1.000  O
  O4       1.0000 0.85240  0.81186  0.74870  Biso   1.000  O
  O5       1.0000 0.86560  0.00975  0.17070  Biso   1.000  O
  O6       1.0000 0.63440  0.50975  0.32930  Biso   1.000  O
  O7       1.0000 0.13440  0.99025  0.82930  Biso   1.000  O
  O8       1.0000 0.36560  0.49025  0.67070  Biso   1.000  O
  O9       1.0000 0.66210  0.03627  0.29410  Biso   1.000  O
  O10      1.0000 0.83790  0.53627  0.20590  Biso   1.000  O
  O11      1.0000 0.33790  0.96373  0.70590  Biso   1.000  O
  O12      1.0000 0.16210  0.46373  0.79410  Biso   1.000  O
  O13      1.0000 0.44950  0.59909  0.18400  Biso   1.000  O
  O14      1.0000 0.05050  0.09909  0.31600  Biso   1.000  O
  O15      1.0000 0.55050  0.40091  0.81600  Biso   1.000  O
  O16      1.0000 0.94950  0.90091  0.68400  Biso   1.000  O
  O17      1.0000 0.62750  0.99448  0.97400  Biso   1.000  O
  O18      1.0000 0.87250  0.49448  0.52600  Biso   1.000  O
  O19      1.0000 0.37250  0.00552  0.02600  Biso   1.000  O
  O20      1.0000 0.12750  0.50552  0.47400  Biso   1.000  O
  O21      1.0000 0.53520  0.64160  0.37110  Biso   1.000  O
  O22      1.0000 0.96480  0.14160  0.12890  Biso   1.000  O
  O23      1.0000 0.46480  0.35840  0.62890  Biso   1.000  O
  O24      1.0000 0.03520  0.85840  0.87110  Biso   1.000  O
  O25      1.0000 0.12140  0.65604  0.22500  Biso   1.000  O
  O26      1.0000 0.37860  0.15604  0.27500  Biso   1.000  O
  O27      1.0000 0.87860  0.34396  0.77500  Biso   1.000  O
  O28      1.0000 0.62140  0.84396  0.72500  Biso   1.000  O
  O29      1.0000 0.49120  0.37577  0.27530  Biso   1.000  O
  O30      1.0000 0.00880  0.87577  0.22470  Biso   1.000  O
  O31      1.0000 0.50880  0.62423  0.72470  Biso   1.000  O
  O32      1.0000 0.99120  0.12423  0.77530  Biso   1.000  O
  O33      1.0000 0.90590  0.60490  0.93100  Biso   1.000  O
  O34      1.0000 0.59410  0.10490  0.56900  Biso   1.000  O
  O35      1.0000 0.09410  0.39510  0.06900  Biso   1.000  O
  O36      1.0000 0.40590  0.89510  0.43100  Biso   1.000  O
  O37      1.0000 0.48980  0.44336  0.11710  Biso   1.000  O
  O38      1.0000 0.01020  0.94336  0.38290  Biso   1.000  O
  O39      1.0000 0.51020  0.55664  0.88290  Biso   1.000  O
  O40      1.0000 0.98980  0.05664  0.61710  Biso   1.000  O
  O41      1.0000 0.05780  0.51944  0.14070  Biso   1.000  O
  O42      1.0000 0.44220  0.01944  0.35930  Biso   1.000  O
  O43      1.0000 0.94220  0.48056  0.85930  Biso   1.000  O
  O44      1.0000 0.55780  0.98056  0.64070  Biso   1.000  O
  O45      1.0000 0.33190  0.36301  0.09790  Biso   1.000  O
  O46      1.0000 0.16810  0.86301  0.40210  Biso   1.000  O
  O47      1.0000 0.66810  0.63699  0.90210  Biso   1.000  O
  O48      1.0000 0.83190  0.13699  0.59790  Biso   1.000  O
  O49      1.0000 0.66980  0.92540  0.17080  Biso   1.000  O
  O50      1.0000 0.83020  0.42540  0.32920  Biso   1.000  O
  O51      1.0000 0.33020  0.07460  0.82920  Biso   1.000  O
  O52      1.0000 0.16980  0.57460  0.67080  Biso   1.000  O
  O53      1.0000 0.76550  0.98952  0.49630  Biso   1.000  O
  O54      1.0000 0.73450  0.48952  0.00370  Biso   1.000  O
  O55      1.0000 0.23450  0.01048  0.50370  Biso   1.000  O
  O56      1.0000 0.26550  0.51048  0.99630  Biso   1.000  O
  O57      1.0000 0.47960  0.91060  0.17000  Biso   1.000  O
  O58      1.0000 0.02040  0.41060  0.33000  Biso   1.000  O
  O59      1.0000 0.52040  0.08940  0.83000  Biso   1.000  O
  O60      1.0000 0.97960  0.58940  0.67000  Biso   1.000  O
  O61      1.0000 0.29930  0.52130  0.28740  Biso   1.000  O
  O62      1.0000 0.20070  0.02130  0.21260  Biso   1.000  O
  O63      1.0000 0.70070  0.47870  0.71260  Biso   1.000  O
  O64      1.0000 0.79930  0.97870  0.78740  Biso   1.000  O
  O65      1.0000 0.89140  0.75233  0.07070  Biso   1.000  O
  O66      1.0000 0.60860  0.25233  0.42930  Biso   1.000  O
  O67      1.0000 0.10860  0.24767  0.92930  Biso   1.000  O
  O68      1.0000 0.39140  0.74767  0.57070  Biso   1.000  O
  O69      1.0000 0.87400  0.65346  0.12850  Biso   1.000  O
  O70      1.0000 0.62600  0.15346  0.37150  Biso   1.000  O
  O71      1.0000 0.12600  0.34654  0.87150  Biso   1.000  O
  O72      1.0000 0.37400  0.84654  0.62850  Biso   1.000  O
  O73      1.0000 0.84480  0.36946  0.98850  Biso   1.000  O
  O74      1.0000 0.65520  0.86946  0.51150  Biso   1.000  O
  O75      1.0000 0.15520  0.63054  0.01150  Biso   1.000  O
  O76      1.0000 0.34480  0.13054  0.48850  Biso   1.000  O
  O77      1.0000 0.89220  0.26750  0.99740  Biso   1.000  O
  O78      1.0000 0.60780  0.76750  0.50260  Biso   1.000  O
  O79      1.0000 0.10780  0.73250  0.00260  Biso   1.000  O
  O80      1.0000 0.39220  0.23250  0.49740  Biso   1.000  O
  O81      1.0000 0.65670  0.10457  0.10080  Biso   1.000  O
  O82      1.0000 0.84330  0.60457  0.39920  Biso   1.000  O
  O83      1.0000 0.34330  0.89543  0.89920  Biso   1.000  O
  O84      1.0000 0.15670  0.39543  0.60080  Biso   1.000  O
  O85      1.0000 0.46880  0.12239  0.10670  Biso   1.000  O
  O86      1.0000 0.03120  0.62239  0.39330  Biso   1.000  O
  O87      1.0000 0.53120  0.87761  0.89330  Biso   1.000  O
  O88      1.0000 0.96880  0.37761  0.60670  Biso   1.000  O
  O89      1.0000 0.38090  0.59210  0.50060  Biso   1.000  O
  O90      1.0000 0.11910  0.09210  0.99940  Biso   1.000  O
  O91      1.0000 0.61910  0.40790  0.49940  Biso   1.000  O
  O92      1.0000 0.88090  0.90790  0.00060  Biso   1.000  O
  O93      1.0000 0.70080  0.59430  0.58080  Biso   1.000  O
  O94      1.0000 0.79920  0.09430  0.91920  Biso   1.000  O
  O95      1.0000 0.29920  0.40570  0.41920  Biso   1.000  O
  O96      1.0000 0.20080  0.90570  0.08080  Biso   1.000  O
  O97      1.0000 0.71570  0.69960  0.71620  Biso   1.000  O
  O98      1.0000 0.78430  0.19960  0.78380  Biso   1.000  O
  O99      1.0000 0.28430  0.30040  0.28380  Biso   1.000  O
  O100     1.0000 0.21570  0.80040  0.21620  Biso   1.000  O
  H25      1.0000 0.83200  0.60800  0.92600  Biso   1.000  H
  H26      1.0000 0.66800  0.10800  0.57400  Biso   1.000  H
  H27      1.0000 0.16800  0.39200  0.07400  Biso   1.000  H
  H28      1.0000 0.33200  0.89200  0.42600  Biso   1.000  H
  H29      1.0000 0.00600  0.51500  0.17600  Biso   1.000  H
  H30      1.0000 0.49400  0.01500  0.32400  Biso   1.000  H
  H31      1.0000 0.99400  0.48500  0.82400  Biso   1.000  H
  H32      1.0000 0.50600  0.98500  0.67600  Biso   1.000  H
  H33      1.0000 0.63800  0.57100  0.56200  Biso   1.000  H
  H34      1.0000 0.86200  0.07100  0.93800  Biso   1.000  H
  H35      1.0000 0.36200  0.42900  0.43800  Biso   1.000  H
  H36      1.0000 0.13800  0.92900  0.06200  Biso   1.000  H
  H37      1.0000 0.19500  0.65900  0.23100  Biso   1.000  H
  H38      1.0000 0.30500  0.15900  0.26900  Biso   1.000  H
  H39      1.0000 0.80500  0.34100  0.76900  Biso   1.000  H
  H40      1.0000 0.69500  0.84100  0.73100  Biso   1.000  H
  H41      1.0000 0.59200  0.02200  0.92500  Biso   1.000  H
  H42      1.0000 0.90800  0.52200  0.57500  Biso   1.000  H
  H43      1.0000 0.40800  0.97800  0.07500  Biso   1.000  H
  H44      1.0000 0.09200  0.47800  0.42500  Biso   1.000  H
  H45      1.0000 0.75700  0.73340  0.72200  Biso   1.000  H
  H46      1.0000 0.74300  0.23340  0.77800  Biso   1.000  H
  H47      1.0000 0.24300  0.26660  0.27800  Biso   1.000  H
  H48      1.0000 0.25700  0.76660  0.22200  Biso   1.000  H
  H49      1.0000 0.66600  0.07510  0.31300  Biso   1.000  H
  H50      1.0000 0.83400  0.57510  0.18700  Biso   1.000  H
  H51      1.0000 0.33400  0.92490  0.68700  Biso   1.000  H
  H52      1.0000 0.16600  0.42490  0.81300  Biso   1.000  H
  H53      1.0000 0.70400  0.01600  0.35200  Biso   1.000  H
  H54      1.0000 0.79600  0.51600  0.14800  Biso   1.000  H
  H55      1.0000 0.29600  0.98400  0.64800  Biso   1.000  H
  H56      1.0000 0.20400  0.48400  0.85200  Biso   1.000  H
  H57      1.0000 0.35800  0.56900  0.54700  Biso   1.000  H
  H58      1.0000 0.14200  0.06900  0.95300  Biso   1.000  H
  H59      1.0000 0.64200  0.43100  0.45300  Biso   1.000  H
  H60      1.0000 0.85800  0.93100  0.04700  Biso   1.000  H
  H61      1.0000 0.90300  0.04440  0.17800  Biso   1.000  H
  H62      1.0000 0.59700  0.54440  0.32200  Biso   1.000  H
  H63      1.0000 0.09700  0.95560  0.82200  Biso   1.000  H
  H64      1.0000 0.40300  0.45560  0.67800  Biso   1.000  H
  H65      1.0000 0.60200  0.95740  0.95400  Biso   1.000  H
  H66      1.0000 0.89800  0.45740  0.54600  Biso   1.000  H
  H67      1.0000 0.39800  0.04260  0.04600  Biso   1.000  H
  H68      1.0000 0.10200  0.54260  0.45400  Biso   1.000  H
  H69      1.0000 0.89300  0.99000  0.23200  Biso   1.000  H
  H70      1.0000 0.60700  0.49000  0.26800  Biso   1.000  H
  H71      1.0000 0.10700  0.01000  0.76800  Biso   1.000  H
  H72      1.0000 0.39300  0.51000  0.73200  Biso   1.000  H
  H73      1.0000 0.10100  0.64500  0.28300  Biso   1.000  H
  H74      1.0000 0.39900  0.14500  0.21700  Biso   1.000  H
  H75      1.0000 0.89900  0.35500  0.71700  Biso   1.000  H
  H76      1.0000 0.60100  0.85500  0.78300  Biso   1.000  H
  H77      1.0000 0.34600  0.57300  0.43900  Biso   1.000  H
  H78      1.0000 0.15400  0.07300  0.06100  Biso   1.000  H
  H79      1.0000 0.65400  0.42700  0.56100  Biso   1.000  H
  H80      1.0000 0.84600  0.92700  0.93900  Biso   1.000  H
  H81      1.0000 0.71700  0.68400  0.78100  Biso   1.000  H
  H82      1.0000 0.78300  0.18400  0.71900  Biso   1.000  H
  H83      1.0000 0.28300  0.31600  0.21900  Biso   1.000  H
  H84      1.0000 0.21700  0.81600  0.28100  Biso   1.000  H
  H85      1.0000 0.12800  0.52300  0.18800  Biso   1.000  H
  H86      1.0000 0.37200  0.02300  0.31200  Biso   1.000  H
  H87      1.0000 0.87200  0.47700  0.81200  Biso   1.000  H
  H88      1.0000 0.62800  0.97700  0.68800  Biso   1.000  H
  H89      1.0000 0.91600  0.56800  0.90800  Biso   1.000  H
  H90      1.0000 0.58400  0.06800  0.59200  Biso   1.000  H
  H91      1.0000 0.08400  0.43200  0.09200  Biso   1.000  H
  H92      1.0000 0.41600  0.93200  0.40800  Biso   1.000  H
  H93      1.0000 0.73700  0.58500  0.53200  Biso   1.000  H
  H94      1.0000 0.76300  0.08500  0.96800  Biso   1.000  H
  H95      1.0000 0.26300  0.41500  0.46800  Biso   1.000  H
  H96      1.0000 0.23700  0.91500  0.03200  Biso   1.000  H
  H97      1.0000 0.83900  0.00000  0.52400  Biso   1.000  H
  H98      1.0000 0.66100  0.50000  0.97600  Biso   1.000  H
  H99      1.0000 0.16100  0.00000  0.47600  Biso   1.000  H
  H100     1.0000 0.33900  0.50000  0.02400  Biso   1.000  H
  H101     1.0000 0.34200  0.52900  0.24500  Biso   1.000  H
  H102     1.0000 0.15800  0.02900  0.25500  Biso   1.000  H
  H103     1.0000 0.65800  0.47100  0.75500  Biso   1.000  H
  H104     1.0000 0.84200  0.97100  0.74500  Biso   1.000  H
  H105     1.0000 0.75600  0.95220  0.51900  Biso   1.000  H
  H106     1.0000 0.74400  0.45220  0.98100  Biso   1.000  H
  H107     1.0000 0.24400  0.04780  0.48100  Biso   1.000  H
  H108     1.0000 0.25600  0.54780  0.01900  Biso   1.000  H
  H109     1.0000 0.33300  0.48800  0.31900  Biso   1.000  H
  H110     1.0000 0.16700  0.98800  0.18100  Biso   1.000  H
  H111     1.0000 0.66700  0.51200  0.68100  Biso   1.000  H
  H112     1.0000 0.83300  0.01200  0.81900  Biso   1.000  H
