data_image0
_cell_length_a       7.1599
_cell_length_b       19.4285
_cell_length_c       21.3245
_cell_angle_alpha    90
_cell_angle_beta     98.42
_cell_angle_gamma    90

_symmetry_space_group_name_H-M    "P 1"
_symmetry_int_tables_number       1

loop_
  _symmetry_equiv_pos_as_xyz
  'x, y, z'

loop_
  _atom_site_label
  _atom_site_occupancy
  _atom_site_fract_x
  _atom_site_fract_y
  _atom_site_fract_z
  _atom_site_thermal_displace_type
  _atom_site_B_iso_or_equiv
  _atom_site_type_symbol
  Sr1      1.0000 0.11144  0.00897  0.36684  Biso   1.000  Sr
  Sr2      1.0000 0.38856  0.50897  0.13316  Biso   1.000  Sr
  Sr3      1.0000 0.88856  0.99103  0.63316  Biso   1.000  Sr
  Sr4      1.0000 0.61144  0.49103  0.86684  Biso   1.000  Sr
  Cu1      1.0000 0.94709  0.00060  0.17446  Biso   1.000  Cu
  Cu2      1.0000 0.55291  0.50060  0.32554  Biso   1.000  Cu
  Cu3      1.0000 0.05291  0.99940  0.82554  Biso   1.000  Cu
  Cu4      1.0000 0.44709  0.49940  0.67446  Biso   1.000  Cu
  S1       1.0000 0.05900  0.64429  0.12738  Biso   1.000  S
  S2       1.0000 0.44100  0.14429  0.37262  Biso   1.000  S
  S3       1.0000 0.94100  0.35571  0.87262  Biso   1.000  S
  S4       1.0000 0.55900  0.85571  0.62738  Biso   1.000  S
  S5       1.0000 0.03680  0.35649  0.11585  Biso   1.000  S
  S6       1.0000 0.46320  0.85649  0.38415  Biso   1.000  S
  S7       1.0000 0.96320  0.64351  0.88415  Biso   1.000  S
  S8       1.0000 0.53680  0.14351  0.61585  Biso   1.000  S
  O1       1.0000 0.94340  0.09930  0.17310  Biso   1.000  O
  O2       1.0000 0.55660  0.59930  0.32690  Biso   1.000  O
  O3       1.0000 0.05660  0.90070  0.82690  Biso   1.000  O
  O4       1.0000 0.44340  0.40070  0.67310  Biso   1.000  O
  O5       1.0000 0.99860  0.08980  0.27780  Biso   1.000  O
  O6       1.0000 0.50140  0.58980  0.22220  Biso   1.000  O
  O7       1.0000 0.00140  0.91020  0.72220  Biso   1.000  O
  O8       1.0000 0.49860  0.41020  0.77780  Biso   1.000  O
  O9       1.0000 0.09850  0.42550  0.13300  Biso   1.000  O
  O10      1.0000 0.40150  0.92550  0.36700  Biso   1.000  O
  O11      1.0000 0.90150  0.57450  0.86700  Biso   1.000  O
  O12      1.0000 0.59850  0.07450  0.63300  Biso   1.000  O
  O13      1.0000 0.95560  0.90220  0.18020  Biso   1.000  O
  O14      1.0000 0.54440  0.40220  0.31980  Biso   1.000  O
  O15      1.0000 0.04440  0.09780  0.81980  Biso   1.000  O
  O16      1.0000 0.45560  0.59780  0.68020  Biso   1.000  O
  O17      1.0000 0.02020  0.90160  0.43130  Biso   1.000  O
  O18      1.0000 0.47980  0.40160  0.06870  Biso   1.000  O
  O19      1.0000 0.97980  0.09840  0.56870  Biso   1.000  O
  O20      1.0000 0.52020  0.59840  0.93130  Biso   1.000  O
  O21      1.0000 0.84270  0.99140  0.06430  Biso   1.000  O
  O22      1.0000 0.65730  0.49140  0.43570  Biso   1.000  O
  O23      1.0000 0.15730  0.00860  0.93570  Biso   1.000  O
  O24      1.0000 0.34270  0.50860  0.56430  Biso   1.000  O
  O25      1.0000 0.67990  0.00020  0.19080  Biso   1.000  O
  O26      1.0000 0.82010  0.50020  0.30920  Biso   1.000  O
  O27      1.0000 0.32010  0.99980  0.80920  Biso   1.000  O
  O28      1.0000 0.17990  0.49980  0.69080  Biso   1.000  O
  O29      1.0000 0.22090  0.00180  0.16870  Biso   1.000  O
  O30      1.0000 0.27910  0.50180  0.33130  Biso   1.000  O
  O31      1.0000 0.77910  0.99820  0.83130  Biso   1.000  O
  O32      1.0000 0.72090  0.49820  0.66870  Biso   1.000  O
  O33      1.0000 0.90780  0.10250  0.97770  Biso   1.000  O
  O34      1.0000 0.59220  0.60250  0.52230  Biso   1.000  O
  O35      1.0000 0.09220  0.89750  0.02230  Biso   1.000  O
  O36      1.0000 0.40780  0.39750  0.47770  Biso   1.000  O
  C1       1.0000 0.01750  0.76260  0.18990  Biso   1.000  C
  C2       1.0000 0.48250  0.26260  0.31010  Biso   1.000  C
  C3       1.0000 0.98250  0.23740  0.81010  Biso   1.000  C
  C4       1.0000 0.51750  0.73740  0.68990  Biso   1.000  C
  H1       1.0000 0.01770  0.78330  0.15060  Biso   1.000  H
  H2       1.0000 0.48230  0.28330  0.34940  Biso   1.000  H
  H3       1.0000 0.98230  0.21670  0.84940  Biso   1.000  H
  H4       1.0000 0.51770  0.71670  0.65060  Biso   1.000  H
  O37      1.0000 0.91700  0.07320  0.43930  Biso   1.000  O
  O38      1.0000 0.58300  0.57320  0.06070  Biso   1.000  O
  O39      1.0000 0.08300  0.92680  0.56070  Biso   1.000  O
  O40      1.0000 0.41700  0.42680  0.93930  Biso   1.000  O
  C5       1.0000 0.97430  0.20160  0.23400  Biso   1.000  C
  C6       1.0000 0.52570  0.70160  0.26600  Biso   1.000  C
  C7       1.0000 0.02570  0.79840  0.76600  Biso   1.000  C
  C8       1.0000 0.47430  0.29840  0.73400  Biso   1.000  C
  C9       1.0000 0.99520  0.30520  0.29700  Biso   1.000  C
  C10      1.0000 0.50480  0.80520  0.20300  Biso   1.000  C
  C11      1.0000 0.00480  0.69480  0.70300  Biso   1.000  C
  C12      1.0000 0.49520  0.19480  0.79700  Biso   1.000  C
  C13      1.0000 0.99040  0.87900  0.23660  Biso   1.000  C
  C14      1.0000 0.50960  0.37900  0.26340  Biso   1.000  C
  C15      1.0000 0.00960  0.12100  0.76340  Biso   1.000  C
  C16      1.0000 0.49040  0.62100  0.73660  Biso   1.000  C
  C17      1.0000 0.01120  0.69890  0.30730  Biso   1.000  C
  C18      1.0000 0.48880  0.19890  0.19270  Biso   1.000  C
  C19      1.0000 0.98880  0.30110  0.69270  Biso   1.000  C
  C20      1.0000 0.51120  0.80110  0.80730  Biso   1.000  C
  O41      1.0000 0.74140  0.99240  0.33120  Biso   1.000  O
  O42      1.0000 0.75860  0.49240  0.16880  Biso   1.000  O
  O43      1.0000 0.25860  0.00760  0.66880  Biso   1.000  O
  O44      1.0000 0.24140  0.50760  0.83120  Biso   1.000  O
  C21      1.0000 0.97080  0.23460  0.29140  Biso   1.000  C
  C22      1.0000 0.52920  0.73460  0.20860  Biso   1.000  C
  C23      1.0000 0.02920  0.76540  0.70860  Biso   1.000  C
  C24      1.0000 0.47080  0.26540  0.79140  Biso   1.000  C
  H5       1.0000 0.95170  0.20900  0.32680  Biso   1.000  H
  H6       1.0000 0.54830  0.70900  0.17320  Biso   1.000  H
  H7       1.0000 0.04830  0.79100  0.67320  Biso   1.000  H
  H8       1.0000 0.45170  0.29100  0.82680  Biso   1.000  H
  C25      1.0000 0.00010  0.80240  0.24280  Biso   1.000  C
  C26      1.0000 0.49990  0.30240  0.25720  Biso   1.000  C
  C27      1.0000 0.99990  0.19760  0.75720  Biso   1.000  C
  C28      1.0000 0.50010  0.69760  0.74280  Biso   1.000  C
  C29      1.0000 0.01060  0.33810  0.36140  Biso   1.000  C
  C30      1.0000 0.48940  0.83810  0.13860  Biso   1.000  C
  C31      1.0000 0.98940  0.66190  0.63860  Biso   1.000  C
  C32      1.0000 0.51060  0.16190  0.86140  Biso   1.000  C
  C33      1.0000 0.03520  0.65900  0.25420  Biso   1.000  C
  C34      1.0000 0.46480  0.15900  0.24580  Biso   1.000  C
  C35      1.0000 0.96480  0.34100  0.74580  Biso   1.000  C
  C36      1.0000 0.53520  0.84100  0.75420  Biso   1.000  C
  H9       1.0000 0.05120  0.61160  0.25780  Biso   1.000  H
  H10      1.0000 0.44880  0.11160  0.24220  Biso   1.000  H
  H11      1.0000 0.94880  0.38840  0.74220  Biso   1.000  H
  H12      1.0000 0.55120  0.88840  0.75780  Biso   1.000  H
  O45      1.0000 0.07740  0.39760  0.36920  Biso   1.000  O
  O46      1.0000 0.42260  0.89760  0.13080  Biso   1.000  O
  O47      1.0000 0.92260  0.60240  0.63080  Biso   1.000  O
  O48      1.0000 0.57740  0.10240  0.86920  Biso   1.000  O
  C37      1.0000 0.97160  0.12420  0.22900  Biso   1.000  C
  C38      1.0000 0.52840  0.62420  0.27100  Biso   1.000  C
  C39      1.0000 0.02840  0.87580  0.77100  Biso   1.000  C
  C40      1.0000 0.47160  0.37580  0.72900  Biso   1.000  C
  C41      1.0000 0.03460  0.69160  0.19610  Biso   1.000  C
  C42      1.0000 0.46540  0.19160  0.30390  Biso   1.000  C
  C43      1.0000 0.96540  0.30840  0.80390  Biso   1.000  C
  C44      1.0000 0.53460  0.80840  0.69610  Biso   1.000  C
  C45      1.0000 0.01220  0.31040  0.18680  Biso   1.000  C
  C46      1.0000 0.48780  0.81040  0.31320  Biso   1.000  C
  C47      1.0000 0.98780  0.68960  0.81320  Biso   1.000  C
  C48      1.0000 0.51220  0.18960  0.68680  Biso   1.000  C
  C49      1.0000 0.99170  0.24090  0.18050  Biso   1.000  C
  C50      1.0000 0.50830  0.74090  0.31950  Biso   1.000  C
  C51      1.0000 0.00830  0.75910  0.81950  Biso   1.000  C
  C52      1.0000 0.49170  0.25910  0.68050  Biso   1.000  C
  H13      1.0000 0.98930  0.22000  0.14120  Biso   1.000  H
  H14      1.0000 0.51070  0.72000  0.35880  Biso   1.000  H
  H15      1.0000 0.01070  0.78000  0.85880  Biso   1.000  H
  H16      1.0000 0.48930  0.28000  0.64120  Biso   1.000  H
  C53      1.0000 0.99620  0.76970  0.30120  Biso   1.000  C
  C54      1.0000 0.50380  0.26970  0.19880  Biso   1.000  C
  C55      1.0000 0.00380  0.23030  0.69880  Biso   1.000  C
  C56      1.0000 0.49620  0.73030  0.80120  Biso   1.000  C
  H17      1.0000 0.98330  0.79620  0.33670  Biso   1.000  H
  H18      1.0000 0.51670  0.29620  0.16330  Biso   1.000  H
  H19      1.0000 0.01670  0.20380  0.66330  Biso   1.000  H
  H20      1.0000 0.48330  0.70380  0.83670  Biso   1.000  H
  C57      1.0000 0.01570  0.34350  0.24310  Biso   1.000  C
  C58      1.0000 0.48430  0.84350  0.25690  Biso   1.000  C
  C59      1.0000 0.98430  0.65650  0.75690  Biso   1.000  C
  C60      1.0000 0.51570  0.15650  0.74310  Biso   1.000  C
  H21      1.0000 0.03150  0.39100  0.24560  Biso   1.000  H
  H22      1.0000 0.46850  0.89100  0.25440  Biso   1.000  H
  H23      1.0000 0.96850  0.60900  0.75440  Biso   1.000  H
  H24      1.0000 0.53150  0.10900  0.74560  Biso   1.000  H
  O49      1.0000 0.02120  0.91590  0.28300  Biso   1.000  O
  O50      1.0000 0.47880  0.41590  0.21700  Biso   1.000  O
  O51      1.0000 0.97880  0.08410  0.71700  Biso   1.000  O
  O52      1.0000 0.52120  0.58410  0.78300  Biso   1.000  O
  O53      1.0000 0.17210  0.31750  0.08540  Biso   1.000  O
  O54      1.0000 0.32790  0.81750  0.41460  Biso   1.000  O
  O55      1.0000 0.82790  0.68250  0.91460  Biso   1.000  O
  O56      1.0000 0.67210  0.18250  0.58540  Biso   1.000  O
  O57      1.0000 0.30070  0.02080  0.48490  Biso   1.000  O
  O58      1.0000 0.19930  0.52080  0.01510  Biso   1.000  O
  O59      1.0000 0.69930  0.97920  0.51510  Biso   1.000  O
  O60      1.0000 0.80070  0.47920  0.98490  Biso   1.000  O
  O61      1.0000 0.95310  0.30310  0.40430  Biso   1.000  O
  O62      1.0000 0.54690  0.80310  0.09570  Biso   1.000  O
  O63      1.0000 0.04690  0.69690  0.59570  Biso   1.000  O
  O64      1.0000 0.45310  0.19690  0.90430  Biso   1.000  O
  O65      1.0000 0.84860  0.35520  0.07780  Biso   1.000  O
  O66      1.0000 0.65140  0.85520  0.42220  Biso   1.000  O
  O67      1.0000 0.15140  0.64480  0.92220  Biso   1.000  O
  O68      1.0000 0.34860  0.14480  0.57780  Biso   1.000  O
  C61      1.0000 0.01590  0.66460  0.36990  Biso   1.000  C
  C62      1.0000 0.48410  0.16460  0.13010  Biso   1.000  C
  C63      1.0000 0.98410  0.33540  0.63010  Biso   1.000  C
  C64      1.0000 0.51590  0.83540  0.86990  Biso   1.000  C
  O69      1.0000 0.97870  0.70240  0.41480  Biso   1.000  O
  O70      1.0000 0.52130  0.20240  0.08520  Biso   1.000  O
  O71      1.0000 0.02130  0.29760  0.58520  Biso   1.000  O
  O72      1.0000 0.47870  0.79760  0.91480  Biso   1.000  O
  O73      1.0000 0.05120  0.60240  0.37560  Biso   1.000  O
  O74      1.0000 0.44880  0.10240  0.12440  Biso   1.000  O
  O75      1.0000 0.94880  0.39760  0.62440  Biso   1.000  O
  O76      1.0000 0.55120  0.89760  0.87560  Biso   1.000  O
  O77      1.0000 0.88670  0.65930  0.08320  Biso   1.000  O
  O78      1.0000 0.61330  0.15930  0.41680  Biso   1.000  O
  O79      1.0000 0.11330  0.34070  0.91680  Biso   1.000  O
  O80      1.0000 0.38670  0.84070  0.58320  Biso   1.000  O
  O81      1.0000 0.07490  0.57260  0.14620  Biso   1.000  O
  O82      1.0000 0.42510  0.07260  0.35380  Biso   1.000  O
  O83      1.0000 0.92510  0.42740  0.85380  Biso   1.000  O
  O84      1.0000 0.57490  0.92740  0.64620  Biso   1.000  O
  O85      1.0000 0.22560  0.66880  0.10380  Biso   1.000  O
  O86      1.0000 0.27440  0.16880  0.39620  Biso   1.000  O
  O87      1.0000 0.77440  0.33120  0.89620  Biso   1.000  O
  O88      1.0000 0.72560  0.83120  0.60380  Biso   1.000  O
  Cu5      1.0000 0.99109  0.31171  0.49423  Biso   1.000  Cu
  Cu6      1.0000 0.50891  0.81171  0.00577  Biso   1.000  Cu
  Cu7      1.0000 0.00891  0.68829  0.50577  Biso   1.000  Cu
  Cu8      1.0000 0.49109  0.18829  0.99423  Biso   1.000  Cu
  O89      1.0000 0.95900  0.41330  0.50200  Biso   1.000  O
  O90      1.0000 0.54100  0.91330  0.99800  Biso   1.000  O
  O91      1.0000 0.04100  0.58670  0.49800  Biso   1.000  O
  O92      1.0000 0.45900  0.08670  0.00200  Biso   1.000  O
  O93      1.0000 0.68820  0.27660  0.49030  Biso   1.000  O
  O94      1.0000 0.81180  0.77660  0.00970  Biso   1.000  O
  O95      1.0000 0.31180  0.72340  0.50970  Biso   1.000  O
  O96      1.0000 0.18820  0.22340  0.99030  Biso   1.000  O
  O97      1.0000 0.18630  0.24040  0.49360  Biso   1.000  O
  O98      1.0000 0.31370  0.74040  0.00640  Biso   1.000  O
  O99      1.0000 0.81370  0.75960  0.50640  Biso   1.000  O
  O100     1.0000 0.68630  0.25960  0.99360  Biso   1.000  O
