data_image0
_cell_length_a       9.1056
_cell_length_b       9.1056
_cell_length_c       15.955
_cell_angle_alpha    90
_cell_angle_beta     90
_cell_angle_gamma    120

_symmetry_space_group_name_H-M    "P 1"
_symmetry_int_tables_number       1

loop_
  _symmetry_equiv_pos_as_xyz
  'x, y, z'

loop_
  _atom_site_label
  _atom_site_occupancy
  _atom_site_fract_x
  _atom_site_fract_y
  _atom_site_fract_z
  _atom_site_thermal_displace_type
  _atom_site_B_iso_or_equiv
  _atom_site_type_symbol
  Cu1      1.0000 0.50000  0.50000  0.00000  Biso   1.000  Cu
  Cu2      1.0000 0.50000  0.00000  0.00000  Biso   1.000  Cu
  Cu3      1.0000 0.00000  0.50000  0.00000  Biso   1.000  Cu
  Cu4      1.0000 0.50000  0.00000  0.50000  Biso   1.000  Cu
  Cu5      1.0000 0.00000  0.50000  0.50000  Biso   1.000  Cu
  Cu6      1.0000 0.50000  0.50000  0.50000  Biso   1.000  Cu
  O1       1.0000 0.63608  0.57899  0.10016  Biso   1.000  O
  O2       1.0000 0.42101  0.05709  0.10016  Biso   1.000  O
  O3       1.0000 0.94291  0.36392  0.10016  Biso   1.000  O
  O4       1.0000 0.57899  0.94291  0.60016  Biso   1.000  O
  O5       1.0000 0.05709  0.63608  0.60016  Biso   1.000  O
  O6       1.0000 0.36392  0.42101  0.60016  Biso   1.000  O
  O7       1.0000 0.36392  0.42101  0.89984  Biso   1.000  O
  O8       1.0000 0.57899  0.94291  0.89984  Biso   1.000  O
  O9       1.0000 0.05709  0.63608  0.89984  Biso   1.000  O
  O10      1.0000 0.42101  0.05709  0.39984  Biso   1.000  O
  O11      1.0000 0.94291  0.36392  0.39984  Biso   1.000  O
  O12      1.0000 0.63608  0.57899  0.39984  Biso   1.000  O
  O13      1.0000 0.83870  0.57413  0.02613  Biso   1.000  O
  O14      1.0000 0.42587  0.26457  0.02613  Biso   1.000  O
  O15      1.0000 0.73543  0.16130  0.02613  Biso   1.000  O
  O16      1.0000 0.57413  0.73543  0.52613  Biso   1.000  O
  O17      1.0000 0.26457  0.83870  0.52613  Biso   1.000  O
  O18      1.0000 0.16130  0.42587  0.52613  Biso   1.000  O
  O19      1.0000 0.16130  0.42587  0.97387  Biso   1.000  O
  O20      1.0000 0.57413  0.73543  0.97387  Biso   1.000  O
  O21      1.0000 0.26457  0.83870  0.97387  Biso   1.000  O
  O22      1.0000 0.42587  0.26457  0.47387  Biso   1.000  O
  O23      1.0000 0.73543  0.16130  0.47387  Biso   1.000  O
  O24      1.0000 0.83870  0.57413  0.47387  Biso   1.000  O
  C1       1.0000 0.78264  0.59610  0.09502  Biso   1.000  C
  C2       1.0000 0.40390  0.18654  0.09502  Biso   1.000  C
  C3       1.0000 0.81346  0.21736  0.09502  Biso   1.000  C
  C4       1.0000 0.59610  0.81346  0.59502  Biso   1.000  C
  C5       1.0000 0.18654  0.78264  0.59502  Biso   1.000  C
  C6       1.0000 0.21736  0.40390  0.59502  Biso   1.000  C
  C7       1.0000 0.21736  0.40390  0.90498  Biso   1.000  C
  C8       1.0000 0.59610  0.81346  0.90498  Biso   1.000  C
  C9       1.0000 0.18654  0.78264  0.90498  Biso   1.000  C
  C10      1.0000 0.40390  0.18654  0.40498  Biso   1.000  C
  C11      1.0000 0.81346  0.21736  0.40498  Biso   1.000  C
  C12      1.0000 0.78264  0.59610  0.40498  Biso   1.000  C
  C13      1.0000 0.88376  0.64352  0.17413  Biso   1.000  C
  C14      1.0000 0.35648  0.24024  0.17413  Biso   1.000  C
  C15      1.0000 0.75976  0.11624  0.17413  Biso   1.000  C
  C16      1.0000 0.64352  0.75976  0.67413  Biso   1.000  C
  C17      1.0000 0.24024  0.88376  0.67413  Biso   1.000  C
  C18      1.0000 0.11624  0.35648  0.67413  Biso   1.000  C
  C19      1.0000 0.11624  0.35648  0.82587  Biso   1.000  C
  C20      1.0000 0.64352  0.75976  0.82587  Biso   1.000  C
  C21      1.0000 0.24024  0.88376  0.82587  Biso   1.000  C
  C22      1.0000 0.35648  0.24024  0.32587  Biso   1.000  C
  C23      1.0000 0.75976  0.11624  0.32587  Biso   1.000  C
  C24      1.0000 0.88376  0.64352  0.32587  Biso   1.000  C
  C25      1.0000 0.06117  0.72496  0.17406  Biso   1.000  C
  C26      1.0000 0.27504  0.33621  0.17406  Biso   1.000  C
  C27      1.0000 0.66379  0.93883  0.17406  Biso   1.000  C
  C28      1.0000 0.72496  0.66379  0.67406  Biso   1.000  C
  C29      1.0000 0.33621  0.06117  0.67406  Biso   1.000  C
  C30      1.0000 0.93883  0.27504  0.67406  Biso   1.000  C
  C31      1.0000 0.93883  0.27504  0.82594  Biso   1.000  C
  C32      1.0000 0.72496  0.66379  0.82594  Biso   1.000  C
  C33      1.0000 0.33621  0.06117  0.82594  Biso   1.000  C
  C34      1.0000 0.27504  0.33621  0.32594  Biso   1.000  C
  C35      1.0000 0.66379  0.93883  0.32594  Biso   1.000  C
  C36      1.0000 0.06117  0.72496  0.32594  Biso   1.000  C
  H1       1.0000 0.12160  0.75230  0.12260  Biso   1.000  H
  H2       1.0000 0.24770  0.36930  0.12260  Biso   1.000  H
  H3       1.0000 0.63070  0.87840  0.12260  Biso   1.000  H
  H4       1.0000 0.75230  0.63070  0.62260  Biso   1.000  H
  H5       1.0000 0.36930  0.12160  0.62260  Biso   1.000  H
  H6       1.0000 0.87840  0.24770  0.62260  Biso   1.000  H
  H7       1.0000 0.87840  0.24770  0.87740  Biso   1.000  H
  H8       1.0000 0.75230  0.63070  0.87740  Biso   1.000  H
  H9       1.0000 0.36930  0.12160  0.87740  Biso   1.000  H
  H10      1.0000 0.24770  0.36930  0.37740  Biso   1.000  H
  H11      1.0000 0.63070  0.87840  0.37740  Biso   1.000  H
  H12      1.0000 0.12160  0.75230  0.37740  Biso   1.000  H
  C37      1.0000 0.14840  0.76560  0.25000  Biso   1.000  C
  C38      1.0000 0.23440  0.38280  0.25000  Biso   1.000  C
  C39      1.0000 0.61720  0.85160  0.25000  Biso   1.000  C
  C40      1.0000 0.76560  0.61720  0.75000  Biso   1.000  C
  C41      1.0000 0.38280  0.14840  0.75000  Biso   1.000  C
  C42      1.0000 0.85160  0.23440  0.75000  Biso   1.000  C
  H13      1.0000 0.26870  0.82160  0.25000  Biso   1.000  H
  H14      1.0000 0.17840  0.44710  0.25000  Biso   1.000  H
  H15      1.0000 0.55290  0.73130  0.25000  Biso   1.000  H
  H16      1.0000 0.82160  0.55290  0.75000  Biso   1.000  H
  H17      1.0000 0.44710  0.26870  0.75000  Biso   1.000  H
  H18      1.0000 0.73130  0.17840  0.75000  Biso   1.000  H
  C43      1.0000 0.79630  0.60490  0.25000  Biso   1.000  C
  C44      1.0000 0.39510  0.19140  0.25000  Biso   1.000  C
  C45      1.0000 0.80860  0.20370  0.25000  Biso   1.000  C
  C46      1.0000 0.60490  0.80860  0.75000  Biso   1.000  C
  C47      1.0000 0.19140  0.79630  0.75000  Biso   1.000  C
  C48      1.0000 0.20370  0.39510  0.75000  Biso   1.000  C
  H19      1.0000 0.67610  0.55190  0.25000  Biso   1.000  H
  H20      1.0000 0.44810  0.12420  0.25000  Biso   1.000  H
  H21      1.0000 0.87580  0.32390  0.25000  Biso   1.000  H
  H22      1.0000 0.55190  0.87580  0.75000  Biso   1.000  H
  H23      1.0000 0.12420  0.67610  0.75000  Biso   1.000  H
  H24      1.0000 0.32390  0.44810  0.75000  Biso   1.000  H
  O25      1.0000 0.00000  0.00000  0.00000  Biso   1.000  O
  O26      1.0000 0.00000  0.00000  0.50000  Biso   1.000  O
