data_image0
_cell_length_a       6.1066
_cell_length_b       17.7753
_cell_length_c       16.1658
_cell_angle_alpha    90
_cell_angle_beta     99.813
_cell_angle_gamma    90

_symmetry_space_group_name_H-M    "P 1"
_symmetry_int_tables_number       1

loop_
  _symmetry_equiv_pos_as_xyz
  'x, y, z'

loop_
  _atom_site_label
  _atom_site_occupancy
  _atom_site_fract_x
  _atom_site_fract_y
  _atom_site_fract_z
  _atom_site_thermal_displace_type
  _atom_site_B_iso_or_equiv
  _atom_site_type_symbol
  Gd1      1.0000 0.81058  0.08172  0.33857  Biso   1.000  Gd
  Gd2      1.0000 0.81058  0.41828  0.83857  Biso   1.000  Gd
  Gd3      1.0000 0.18942  0.91828  0.66143  Biso   1.000  Gd
  Gd4      1.0000 0.18942  0.58172  0.16143  Biso   1.000  Gd
  Cu1      1.0000 0.50000  0.50000  0.50000  Biso   1.000  Cu
  Cu2      1.0000 0.50000  0.00000  0.00000  Biso   1.000  Cu
  O1       1.0000 0.71470  0.98060  0.43490  Biso   1.000  O
  O2       1.0000 0.71470  0.51940  0.93490  Biso   1.000  O
  O3       1.0000 0.28530  0.01940  0.56510  Biso   1.000  O
  O4       1.0000 0.28530  0.48060  0.06510  Biso   1.000  O
  H1       1.0000 0.73000  0.98100  0.49470  Biso   1.000  H
  H2       1.0000 0.73000  0.51900  0.99470  Biso   1.000  H
  H3       1.0000 0.27000  0.01900  0.50530  Biso   1.000  H
  H4       1.0000 0.27000  0.48100  0.00530  Biso   1.000  H
  H5       1.0000 0.68000  0.93800  0.39900  Biso   1.000  H
  H6       1.0000 0.68000  0.56200  0.89900  Biso   1.000  H
  H7       1.0000 0.32000  0.06200  0.60100  Biso   1.000  H
  H8       1.0000 0.32000  0.43800  0.10100  Biso   1.000  H
  O5       1.0000 0.13250  0.00470  0.37950  Biso   1.000  O
  O6       1.0000 0.13250  0.49530  0.87950  Biso   1.000  O
  O7       1.0000 0.86750  0.99530  0.62050  Biso   1.000  O
  O8       1.0000 0.86750  0.50470  0.12050  Biso   1.000  O
  H9       1.0000 0.25300  0.03600  0.36900  Biso   1.000  H
  H10      1.0000 0.25300  0.46400  0.86900  Biso   1.000  H
  H11      1.0000 0.74700  0.96400  0.63100  Biso   1.000  H
  H12      1.0000 0.74700  0.53600  0.13100  Biso   1.000  H
  H13      1.0000 0.15000  0.95180  0.39000  Biso   1.000  H
  H14      1.0000 0.15000  0.54820  0.89000  Biso   1.000  H
  H15      1.0000 0.85000  0.04820  0.61000  Biso   1.000  H
  H16      1.0000 0.85000  0.45180  0.11000  Biso   1.000  H
  O9       1.0000 0.90770  0.08400  0.20380  Biso   1.000  O
  O10      1.0000 0.90770  0.41600  0.70380  Biso   1.000  O
  O11      1.0000 0.09230  0.91600  0.79620  Biso   1.000  O
  O12      1.0000 0.09230  0.58400  0.29620  Biso   1.000  O
  H17      1.0000 0.03000  0.11100  0.18900  Biso   1.000  H
  H18      1.0000 0.03000  0.38900  0.68900  Biso   1.000  H
  H19      1.0000 0.97000  0.88900  0.81100  Biso   1.000  H
  H20      1.0000 0.97000  0.61100  0.31100  Biso   1.000  H
  H21      1.0000 0.81000  0.06400  0.15600  Biso   1.000  H
  H22      1.0000 0.81000  0.43600  0.65600  Biso   1.000  H
  H23      1.0000 0.19000  0.93600  0.84400  Biso   1.000  H
  H24      1.0000 0.19000  0.56400  0.34400  Biso   1.000  H
  O13      1.0000 0.29870  0.45830  0.57030  Biso   1.000  O
  O14      1.0000 0.29870  0.04170  0.07030  Biso   1.000  O
  O15      1.0000 0.70130  0.54170  0.42970  Biso   1.000  O
  O16      1.0000 0.70130  0.95830  0.92970  Biso   1.000  O
  O17      1.0000 0.24280  0.35300  0.63850  Biso   1.000  O
  O18      1.0000 0.24280  0.14700  0.13850  Biso   1.000  O
  O19      1.0000 0.75720  0.64700  0.36150  Biso   1.000  O
  O20      1.0000 0.75720  0.85300  0.86150  Biso   1.000  O
  O21      1.0000 0.71800  0.12900  0.58370  Biso   1.000  O
  O22      1.0000 0.71800  0.37100  0.08370  Biso   1.000  O
  O23      1.0000 0.28200  0.87100  0.41630  Biso   1.000  O
  O24      1.0000 0.28200  0.62900  0.91630  Biso   1.000  O
  O25      1.0000 0.86830  0.13580  0.47100  Biso   1.000  O
  O26      1.0000 0.86830  0.36420  0.97100  Biso   1.000  O
  O27      1.0000 0.13170  0.86420  0.52900  Biso   1.000  O
  O28      1.0000 0.13170  0.63580  0.02900  Biso   1.000  O
  O29      1.0000 0.43460  0.10000  0.34890  Biso   1.000  O
  O30      1.0000 0.43460  0.40000  0.84890  Biso   1.000  O
  O31      1.0000 0.56540  0.90000  0.65110  Biso   1.000  O
  O32      1.0000 0.56540  0.60000  0.15110  Biso   1.000  O
  O33      1.0000 0.12400  0.16570  0.34510  Biso   1.000  O
  O34      1.0000 0.12400  0.33430  0.84510  Biso   1.000  O
  O35      1.0000 0.87600  0.83430  0.65490  Biso   1.000  O
  O36      1.0000 0.87600  0.66570  0.15490  Biso   1.000  O
  O37      1.0000 0.26180  0.45300  0.35770  Biso   1.000  O
  O38      1.0000 0.26180  0.04700  0.85770  Biso   1.000  O
  O39      1.0000 0.73820  0.54700  0.64230  Biso   1.000  O
  O40      1.0000 0.73820  0.95300  0.14230  Biso   1.000  O
  O41      1.0000 0.38050  0.48210  0.23740  Biso   1.000  O
  O42      1.0000 0.38050  0.01790  0.73740  Biso   1.000  O
  O43      1.0000 0.61950  0.51790  0.76260  Biso   1.000  O
  O44      1.0000 0.61950  0.98210  0.26260  Biso   1.000  O
  N1       1.0000 0.63320  0.39940  0.51080  Biso   1.000  N
  N2       1.0000 0.63320  0.10060  0.01080  Biso   1.000  N
  N3       1.0000 0.36680  0.60060  0.48920  Biso   1.000  N
  N4       1.0000 0.36680  0.89940  0.98920  Biso   1.000  N
  N5       1.0000 0.64370  0.21660  0.29350  Biso   1.000  N
  N6       1.0000 0.64370  0.28340  0.79350  Biso   1.000  N
  N7       1.0000 0.35630  0.78340  0.70650  Biso   1.000  N
  N8       1.0000 0.35630  0.71660  0.20650  Biso   1.000  N
  C1       1.0000 0.33300  0.39220  0.59250  Biso   1.000  C
  C2       1.0000 0.33300  0.10780  0.09250  Biso   1.000  C
  C3       1.0000 0.66700  0.60780  0.40750  Biso   1.000  C
  C4       1.0000 0.66700  0.89220  0.90750  Biso   1.000  C
  C5       1.0000 0.51900  0.35040  0.55300  Biso   1.000  C
  C6       1.0000 0.51900  0.14960  0.05300  Biso   1.000  C
  C7       1.0000 0.48100  0.64960  0.44700  Biso   1.000  C
  C8       1.0000 0.48100  0.85040  0.94700  Biso   1.000  C
  C9       1.0000 0.56200  0.27720  0.56180  Biso   1.000  C
  C10      1.0000 0.56200  0.22280  0.06180  Biso   1.000  C
  C11      1.0000 0.43800  0.72280  0.43820  Biso   1.000  C
  C12      1.0000 0.43800  0.77720  0.93820  Biso   1.000  C
  H25      1.0000 0.48130  0.24660  0.59220  Biso   1.000  H
  H26      1.0000 0.48130  0.25340  0.09220  Biso   1.000  H
  H27      1.0000 0.51870  0.75340  0.40780  Biso   1.000  H
  H28      1.0000 0.51870  0.74660  0.90780  Biso   1.000  H
  C13      1.0000 0.73200  0.24780  0.52430  Biso   1.000  C
  C14      1.0000 0.73200  0.25220  0.02430  Biso   1.000  C
  C15      1.0000 0.26800  0.75220  0.47570  Biso   1.000  C
  C16      1.0000 0.26800  0.74780  0.97570  Biso   1.000  C
  C17      1.0000 0.85300  0.29640  0.48280  Biso   1.000  C
  C18      1.0000 0.85300  0.20360  0.98280  Biso   1.000  C
  C19      1.0000 0.14700  0.70360  0.51720  Biso   1.000  C
  C20      1.0000 0.14700  0.79640  0.01720  Biso   1.000  C
  H29      1.0000 0.97020  0.27790  0.45910  Biso   1.000  H
  H30      1.0000 0.97020  0.22210  0.95910  Biso   1.000  H
  H31      1.0000 0.02980  0.72210  0.54090  Biso   1.000  H
  H32      1.0000 0.02980  0.77790  0.04090  Biso   1.000  H
  C21      1.0000 0.80100  0.37250  0.47600  Biso   1.000  C
  C22      1.0000 0.80100  0.12750  0.97600  Biso   1.000  C
  C23      1.0000 0.19900  0.62750  0.52400  Biso   1.000  C
  C24      1.0000 0.19900  0.87250  0.02400  Biso   1.000  C
  H33      1.0000 0.88320  0.40450  0.44750  Biso   1.000  H
  H34      1.0000 0.88320  0.09550  0.94750  Biso   1.000  H
  H35      1.0000 0.11680  0.59550  0.55250  Biso   1.000  H
  H36      1.0000 0.11680  0.90450  0.05250  Biso   1.000  H
  C25      1.0000 0.77900  0.16410  0.52710  Biso   1.000  C
  C26      1.0000 0.77900  0.33590  0.02710  Biso   1.000  C
  C27      1.0000 0.22100  0.83590  0.47290  Biso   1.000  C
  C28      1.0000 0.22100  0.66410  0.97290  Biso   1.000  C
  C29      1.0000 0.32600  0.15990  0.33990  Biso   1.000  C
  C30      1.0000 0.32600  0.34010  0.83990  Biso   1.000  C
  C31      1.0000 0.67400  0.84010  0.66010  Biso   1.000  C
  C32      1.0000 0.67400  0.65990  0.16010  Biso   1.000  C
  C33      1.0000 0.44300  0.22960  0.31820  Biso   1.000  C
  C34      1.0000 0.44300  0.27040  0.81820  Biso   1.000  C
  C35      1.0000 0.55700  0.77040  0.68180  Biso   1.000  C
  C36      1.0000 0.55700  0.72960  0.18180  Biso   1.000  C
  C37      1.0000 0.35600  0.30090  0.32130  Biso   1.000  C
  C38      1.0000 0.35600  0.19910  0.82130  Biso   1.000  C
  C39      1.0000 0.64400  0.69910  0.67870  Biso   1.000  C
  C40      1.0000 0.64400  0.80090  0.17870  Biso   1.000  C
  H37      1.0000 0.22410  0.30770  0.34150  Biso   1.000  H
  H38      1.0000 0.22410  0.19230  0.84150  Biso   1.000  H
  H39      1.0000 0.77590  0.69230  0.65850  Biso   1.000  H
  H40      1.0000 0.77590  0.80770  0.15850  Biso   1.000  H
  C41      1.0000 0.46300  0.36150  0.29500  Biso   1.000  C
  C42      1.0000 0.46300  0.13850  0.79500  Biso   1.000  C
  C43      1.0000 0.53700  0.63850  0.70500  Biso   1.000  C
  C44      1.0000 0.53700  0.86150  0.20500  Biso   1.000  C
  C45      1.0000 0.66000  0.34900  0.26590  Biso   1.000  C
  C46      1.0000 0.66000  0.15100  0.76590  Biso   1.000  C
  C47      1.0000 0.34000  0.65100  0.73410  Biso   1.000  C
  C48      1.0000 0.34000  0.84900  0.23410  Biso   1.000  C
  H41      1.0000 0.73400  0.38890  0.24560  Biso   1.000  H
  H42      1.0000 0.73400  0.11110  0.74560  Biso   1.000  H
  H43      1.0000 0.26600  0.61110  0.75440  Biso   1.000  H
  H44      1.0000 0.26600  0.88890  0.25440  Biso   1.000  H
  C49      1.0000 0.74600  0.27760  0.26680  Biso   1.000  C
  C50      1.0000 0.74600  0.22240  0.76680  Biso   1.000  C
  C51      1.0000 0.25400  0.72240  0.73320  Biso   1.000  C
  C52      1.0000 0.25400  0.77760  0.23320  Biso   1.000  C
  H45      1.0000 0.88100  0.27070  0.24830  Biso   1.000  H
  H46      1.0000 0.88100  0.22930  0.74830  Biso   1.000  H
  H47      1.0000 0.11900  0.72930  0.75170  Biso   1.000  H
  H48      1.0000 0.11900  0.77070  0.25170  Biso   1.000  H
  C53      1.0000 0.36000  0.44030  0.29660  Biso   1.000  C
  C54      1.0000 0.36000  0.05970  0.79660  Biso   1.000  C
  C55      1.0000 0.64000  0.55970  0.70340  Biso   1.000  C
  C56      1.0000 0.64000  0.94030  0.20340  Biso   1.000  C
