data_image0
_cell_length_a       9.4352
_cell_length_b       10.7205
_cell_length_c       12.3008
_cell_angle_alpha    86.223
_cell_angle_beta     81.595
_cell_angle_gamma    86.59

_symmetry_space_group_name_H-M    "P 1"
_symmetry_int_tables_number       1

loop_
  _symmetry_equiv_pos_as_xyz
  'x, y, z'

loop_
  _atom_site_label
  _atom_site_occupancy
  _atom_site_fract_x
  _atom_site_fract_y
  _atom_site_fract_z
  _atom_site_thermal_displace_type
  _atom_site_B_iso_or_equiv
  _atom_site_type_symbol
  Sm1      1.0000 0.92939  0.15177  0.35144  Biso   1.000  Sm
  Sm2      1.0000 0.07061  0.84823  0.64856  Biso   1.000  Sm
  Cu1      1.0000 0.00000  0.50000  0.00000  Biso   1.000  Cu
  Cu2      1.0000 0.45684  0.31436  0.11965  Biso   1.000  Cu
  Cu3      1.0000 0.54316  0.68564  0.88035  Biso   1.000  Cu
  O1       1.0000 0.70820  0.28670  0.36180  Biso   1.000  O
  O2       1.0000 0.29180  0.71330  0.63820  Biso   1.000  O
  O3       1.0000 0.72730  0.02190  0.44810  Biso   1.000  O
  O4       1.0000 0.27270  0.97810  0.55190  Biso   1.000  O
  O5       1.0000 0.16880  0.17040  0.40940  Biso   1.000  O
  O6       1.0000 0.83120  0.82960  0.59060  Biso   1.000  O
  O7       1.0000 0.96700  0.38280  0.12910  Biso   1.000  O
  O8       1.0000 0.03300  0.61720  0.87090  Biso   1.000  O
  O9       1.0000 0.99600  0.36480  0.30660  Biso   1.000  O
  O10      1.0000 0.00400  0.63520  0.69340  Biso   1.000  O
  O11      1.0000 0.10950  0.77820  0.46480  Biso   1.000  O
  O12      1.0000 0.89050  0.22180  0.53520  Biso   1.000  O
  O13      1.0000 0.02150  0.94600  0.37710  Biso   1.000  O
  O14      1.0000 0.97850  0.05400  0.62290  Biso   1.000  O
  O15      1.0000 0.27920  0.25200  0.19790  Biso   1.000  O
  O16      1.0000 0.72080  0.74800  0.80210  Biso   1.000  O
  O17      1.0000 0.10390  0.12550  0.18030  Biso   1.000  O
  O18      1.0000 0.89610  0.87450  0.81970  Biso   1.000  O
  O19      1.0000 0.18630  0.91360  0.79460  Biso   1.000  O
  O20      1.0000 0.81370  0.08640  0.20540  Biso   1.000  O
  O21      1.0000 0.41290  0.83680  0.78150  Biso   1.000  O
  O22      1.0000 0.58710  0.16320  0.21850  Biso   1.000  O
  O23      1.0000 0.61940  0.38740  0.02930  Biso   1.000  O
  O24      1.0000 0.38060  0.61260  0.97070  Biso   1.000  O
  O25      1.0000 0.74870  0.55860  0.01470  Biso   1.000  O
  O26      1.0000 0.25130  0.44140  0.98530  Biso   1.000  O
  O27      1.0000 0.67030  0.82560  0.34640  Biso   1.000  O
  O28      1.0000 0.32970  0.17440  0.65360  Biso   1.000  O
  O29      1.0000 0.47740  0.79780  0.46930  Biso   1.000  O
  O30      1.0000 0.52260  0.20220  0.53070  Biso   1.000  O
  N1       1.0000 0.02580  0.61920  0.10900  Biso   1.000  N
  N2       1.0000 0.97420  0.38080  0.89100  Biso   1.000  N
  N3       1.0000 0.42660  0.19570  0.01150  Biso   1.000  N
  N4       1.0000 0.57340  0.80430  0.98850  Biso   1.000  N
  N5       1.0000 0.47320  0.44870  0.21840  Biso   1.000  N
  N6       1.0000 0.52680  0.55130  0.78160  Biso   1.000  N
  C1       1.0000 0.99260  0.42610  0.21700  Biso   1.000  C
  C2       1.0000 0.00740  0.57390  0.78300  Biso   1.000  C
  C3       1.0000 0.02080  0.56380  0.21200  Biso   1.000  C
  C4       1.0000 0.97920  0.43620  0.78800  Biso   1.000  C
  C5       1.0000 0.03830  0.62850  0.30210  Biso   1.000  C
  C6       1.0000 0.96170  0.37150  0.69790  Biso   1.000  C
  C7       1.0000 0.05410  0.75810  0.28680  Biso   1.000  C
  C8       1.0000 0.94590  0.24190  0.71320  Biso   1.000  C
  C9       1.0000 0.05520  0.81460  0.18080  Biso   1.000  C
  C10      1.0000 0.94480  0.18540  0.81920  Biso   1.000  C
  C11      1.0000 0.04180  0.74330  0.09410  Biso   1.000  C
  C12      1.0000 0.95820  0.25670  0.90590  Biso   1.000  C
  C13      1.0000 0.06230  0.83360  0.38450  Biso   1.000  C
  C14      1.0000 0.93770  0.16640  0.61550  Biso   1.000  C
  C15      1.0000 0.21900  0.17620  0.14560  Biso   1.000  C
  C16      1.0000 0.78100  0.82380  0.85440  Biso   1.000  C
  C17      1.0000 0.29860  0.14180  0.03650  Biso   1.000  C
  C18      1.0000 0.70140  0.85820  0.96350  Biso   1.000  C
  C19      1.0000 0.25450  0.05520  0.97120  Biso   1.000  C
  C20      1.0000 0.74550  0.94480  0.02880  Biso   1.000  C
  C21      1.0000 0.34870  0.01740  0.88020  Biso   1.000  C
  C22      1.0000 0.65130  0.98260  0.11980  Biso   1.000  C
  C23      1.0000 0.48300  0.07100  0.85480  Biso   1.000  C
  C24      1.0000 0.51700  0.92900  0.14520  Biso   1.000  C
  C25      1.0000 0.51550  0.16150  0.92040  Biso   1.000  C
  C26      1.0000 0.48450  0.83850  0.07960  Biso   1.000  C
  C27      1.0000 0.31300  0.91500  0.81300  Biso   1.000  C
  C28      1.0000 0.68700  0.08500  0.18700  Biso   1.000  C
  C29      1.0000 0.65900  0.48810  0.06540  Biso   1.000  C
  C30      1.0000 0.34100  0.51190  0.93460  Biso   1.000  C
  C31      1.0000 0.58390  0.52230  0.17700  Biso   1.000  C
  C32      1.0000 0.41610  0.47770  0.82300  Biso   1.000  C
  C33      1.0000 0.61830  0.62170  0.23180  Biso   1.000  C
  C34      1.0000 0.38170  0.37830  0.76820  Biso   1.000  C
  C35      1.0000 0.53520  0.65150  0.33070  Biso   1.000  C
  C36      1.0000 0.46480  0.34850  0.66930  Biso   1.000  C
  C37      1.0000 0.41880  0.57750  0.37140  Biso   1.000  C
  C38      1.0000 0.58120  0.42250  0.62860  Biso   1.000  C
  C39      1.0000 0.39320  0.47680  0.31360  Biso   1.000  C
  C40      1.0000 0.60680  0.52320  0.68640  Biso   1.000  C
  C41      1.0000 0.56350  0.76790  0.38920  Biso   1.000  C
  C42      1.0000 0.43650  0.23210  0.61080  Biso   1.000  C
