data_image0
_cell_length_a       12.571
_cell_length_b       14.698
_cell_length_c       12.636
_cell_angle_alpha    90
_cell_angle_beta     119.011
_cell_angle_gamma    90

_symmetry_space_group_name_H-M    "P 1"
_symmetry_int_tables_number       1

loop_
  _symmetry_equiv_pos_as_xyz
  'x, y, z'

loop_
  _atom_site_label
  _atom_site_occupancy
  _atom_site_fract_x
  _atom_site_fract_y
  _atom_site_fract_z
  _atom_site_thermal_displace_type
  _atom_site_B_iso_or_equiv
  _atom_site_type_symbol
  Cu1      1.0000 0.61473  0.26395  0.57692  Biso   1.000  Cu
  Cu2      1.0000 0.88527  0.76395  0.92308  Biso   1.000  Cu
  Cu3      1.0000 0.38527  0.73605  0.42308  Biso   1.000  Cu
  Cu4      1.0000 0.11473  0.23605  0.07692  Biso   1.000  Cu
  N1       1.0000 0.60619  0.13328  0.61410  Biso   1.000  N
  N2       1.0000 0.89381  0.63328  0.88590  Biso   1.000  N
  N3       1.0000 0.39381  0.86672  0.38590  Biso   1.000  N
  N4       1.0000 0.10619  0.36672  0.11410  Biso   1.000  N
  N5       1.0000 0.55810  0.00805  0.67570  Biso   1.000  N
  N6       1.0000 0.94190  0.50805  0.82430  Biso   1.000  N
  N7       1.0000 0.44190  0.99195  0.32430  Biso   1.000  N
  N8       1.0000 0.05810  0.49195  0.17570  Biso   1.000  N
  H1       1.0000 0.52520  0.97240  0.70560  Biso   1.000  H
  H2       1.0000 0.97480  0.47240  0.79440  Biso   1.000  H
  H3       1.0000 0.47480  0.02760  0.29440  Biso   1.000  H
  H4       1.0000 0.02520  0.52760  0.20560  Biso   1.000  H
  N9       1.0000 0.64575  0.39456  0.56052  Biso   1.000  N
  N10      1.0000 0.85425  0.89456  0.93948  Biso   1.000  N
  N11      1.0000 0.35425  0.60544  0.43948  Biso   1.000  N
  N12      1.0000 0.14575  0.10544  0.06052  Biso   1.000  N
  N13      1.0000 0.64810  0.54324  0.57650  Biso   1.000  N
  N14      1.0000 0.85190  0.04324  0.92350  Biso   1.000  N
  N15      1.0000 0.35190  0.45676  0.42350  Biso   1.000  N
  N16      1.0000 0.14810  0.95676  0.07650  Biso   1.000  N
  H5       1.0000 0.64010  0.59660  0.59970  Biso   1.000  H
  H6       1.0000 0.85990  0.09660  0.90030  Biso   1.000  H
  H7       1.0000 0.35990  0.40340  0.40030  Biso   1.000  H
  H8       1.0000 0.14010  0.90340  0.09970  Biso   1.000  H
  O1       1.0000 0.52250  0.29662  0.66172  Biso   1.000  O
  O2       1.0000 0.97750  0.79662  0.83828  Biso   1.000  O
  O3       1.0000 0.47750  0.70338  0.33828  Biso   1.000  O
  O4       1.0000 0.02250  0.20338  0.16172  Biso   1.000  O
  O5       1.0000 0.69612  0.29561  0.83530  Biso   1.000  O
  O6       1.0000 0.80388  0.79561  0.66470  Biso   1.000  O
  O7       1.0000 0.30388  0.70439  0.16470  Biso   1.000  O
  O8       1.0000 0.19612  0.20439  0.33530  Biso   1.000  O
  O9       1.0000 0.19639  0.27227  0.98022  Biso   1.000  O
  O10      1.0000 0.30361  0.77227  0.51978  Biso   1.000  O
  O11      1.0000 0.80361  0.72773  0.01978  Biso   1.000  O
  O12      1.0000 0.69639  0.22773  0.48022  Biso   1.000  O
  O13      1.0000 0.37130  0.25600  0.14909  Biso   1.000  O
  O14      1.0000 0.12870  0.75600  0.35091  Biso   1.000  O
  O15      1.0000 0.62870  0.74400  0.85091  Biso   1.000  O
  O16      1.0000 0.87130  0.24400  0.64909  Biso   1.000  O
  O17      1.0000 0.41477  0.27662  0.38636  Biso   1.000  O
  O18      1.0000 0.08523  0.77662  0.11364  Biso   1.000  O
  O19      1.0000 0.58523  0.72338  0.61364  Biso   1.000  O
  O20      1.0000 0.91477  0.22338  0.88636  Biso   1.000  O
  H9       1.0000 0.35100  0.25800  0.38610  Biso   1.000  H
  H10      1.0000 0.14900  0.75800  0.11390  Biso   1.000  H
  H11      1.0000 0.64900  0.74200  0.61390  Biso   1.000  H
  H12      1.0000 0.85100  0.24200  0.88610  Biso   1.000  H
  H13      1.0000 0.40820  0.27210  0.31660  Biso   1.000  H
  H14      1.0000 0.09180  0.77210  0.18340  Biso   1.000  H
  H15      1.0000 0.59180  0.72790  0.68340  Biso   1.000  H
  H16      1.0000 0.90820  0.22790  0.81660  Biso   1.000  H
  O21      1.0000 0.05710  0.37164  0.76240  Biso   1.000  O
  O22      1.0000 0.44290  0.87164  0.73760  Biso   1.000  O
  O23      1.0000 0.94290  0.62836  0.23760  Biso   1.000  O
  O24      1.0000 0.55710  0.12836  0.26240  Biso   1.000  O
  H17      1.0000 0.10720  0.34260  0.82740  Biso   1.000  H
  H18      1.0000 0.39280  0.84260  0.67260  Biso   1.000  H
  H19      1.0000 0.89280  0.65740  0.17260  Biso   1.000  H
  H20      1.0000 0.60720  0.15740  0.32740  Biso   1.000  H
  H21      1.0000 0.00110  0.33280  0.71290  Biso   1.000  H
  H22      1.0000 0.49890  0.83280  0.78710  Biso   1.000  H
  H23      1.0000 0.99890  0.66720  0.28710  Biso   1.000  H
  H24      1.0000 0.50110  0.16720  0.21290  Biso   1.000  H
  O25      1.0000 0.11050  0.41870  0.57620  Biso   1.000  O
  O26      1.0000 0.38950  0.91870  0.92380  Biso   1.000  O
  O27      1.0000 0.88950  0.58130  0.42380  Biso   1.000  O
  O28      1.0000 0.61050  0.08130  0.07620  Biso   1.000  O
  H25      1.0000 0.07100  0.40020  0.61690  Biso   1.000  H
  H26      1.0000 0.42900  0.90020  0.88310  Biso   1.000  H
  H27      1.0000 0.92900  0.59980  0.38310  Biso   1.000  H
  H28      1.0000 0.57100  0.09980  0.11690  Biso   1.000  H
  H29      1.0000 0.17940  0.38680  0.61440  Biso   1.000  H
  H30      1.0000 0.32060  0.88680  0.88560  Biso   1.000  H
  H31      1.0000 0.82060  0.61320  0.38560  Biso   1.000  H
  H32      1.0000 0.67940  0.11320  0.11440  Biso   1.000  H
  O29      1.0000 0.99900  0.53940  0.52430  Biso   1.000  O
  O30      1.0000 0.50100  0.03940  0.97570  Biso   1.000  O
  O31      1.0000 0.00100  0.46060  0.47570  Biso   1.000  O
  O32      1.0000 0.49900  0.96060  0.02430  Biso   1.000  O
  H33      1.0000 0.06930  0.51880  0.57110  Biso   1.000  H
  H34      1.0000 0.43070  0.01880  0.92890  Biso   1.000  H
  H35      1.0000 0.93070  0.48120  0.42890  Biso   1.000  H
  H36      1.0000 0.56930  0.98120  0.07110  Biso   1.000  H
  H37      1.0000 0.96190  0.55790  0.56500  Biso   1.000  H
  H38      1.0000 0.53810  0.05790  0.93500  Biso   1.000  H
  H39      1.0000 0.03810  0.44210  0.43500  Biso   1.000  H
  H40      1.0000 0.46190  0.94210  0.06500  Biso   1.000  H
  C1       1.0000 0.51110  0.30793  0.84300  Biso   1.000  C
  C2       1.0000 0.98890  0.80793  0.65700  Biso   1.000  C
  C3       1.0000 0.48890  0.69207  0.15700  Biso   1.000  C
  C4       1.0000 0.01110  0.19207  0.34300  Biso   1.000  C
  C5       1.0000 0.39780  0.26894  0.79130  Biso   1.000  C
  C6       1.0000 0.10220  0.76894  0.70870  Biso   1.000  C
  C7       1.0000 0.60220  0.73106  0.20870  Biso   1.000  C
  C8       1.0000 0.89780  0.23106  0.29130  Biso   1.000  C
  H41      1.0000 0.36380  0.24660  0.71270  Biso   1.000  H
  H42      1.0000 0.13620  0.74660  0.78730  Biso   1.000  H
  H43      1.0000 0.63620  0.75340  0.28730  Biso   1.000  H
  H44      1.0000 0.86380  0.25340  0.21270  Biso   1.000  H
  C9       1.0000 0.33240  0.26212  0.85470  Biso   1.000  C
  C10      1.0000 0.16760  0.76212  0.64530  Biso   1.000  C
  C11      1.0000 0.66760  0.73788  0.14530  Biso   1.000  C
  C12      1.0000 0.83240  0.23788  0.35470  Biso   1.000  C
  H45      1.0000 0.25640  0.23430  0.81810  Biso   1.000  H
  H46      1.0000 0.24360  0.73430  0.68190  Biso   1.000  H
  H47      1.0000 0.74360  0.76570  0.18190  Biso   1.000  H
  H48      1.0000 0.75640  0.26570  0.31810  Biso   1.000  H
  C13      1.0000 0.37870  0.29591  0.96990  Biso   1.000  C
  C14      1.0000 0.12130  0.79591  0.53010  Biso   1.000  C
  C15      1.0000 0.62130  0.70409  0.03010  Biso   1.000  C
  C16      1.0000 0.87870  0.20409  0.46990  Biso   1.000  C
  C17      1.0000 0.53310  0.39540  0.13230  Biso   1.000  C
  C18      1.0000 0.96690  0.89540  0.36770  Biso   1.000  C
  C19      1.0000 0.46690  0.60460  0.86770  Biso   1.000  C
  C20      1.0000 0.03310  0.10460  0.63230  Biso   1.000  C
  H49      1.0000 0.49030  0.39230  0.17500  Biso   1.000  H
  H50      1.0000 0.00970  0.89230  0.32500  Biso   1.000  H
  H51      1.0000 0.50970  0.60770  0.82500  Biso   1.000  H
  H52      1.0000 0.99030  0.10770  0.67500  Biso   1.000  H
  C21      1.0000 0.63570  0.44760  0.17620  Biso   1.000  C
  C22      1.0000 0.86430  0.94760  0.32380  Biso   1.000  C
  C23      1.0000 0.36430  0.55240  0.82380  Biso   1.000  C
  C24      1.0000 0.13570  0.05240  0.67620  Biso   1.000  C
  H53      1.0000 0.66050  0.48100  0.24680  Biso   1.000  H
  H54      1.0000 0.83950  0.98100  0.25320  Biso   1.000  H
  H55      1.0000 0.33950  0.51900  0.75320  Biso   1.000  H
  H56      1.0000 0.16050  0.01900  0.74680  Biso   1.000  H
  C25      1.0000 0.70350  0.45080  0.11520  Biso   1.000  C
  C26      1.0000 0.79650  0.95080  0.38480  Biso   1.000  C
  C27      1.0000 0.29650  0.54920  0.88480  Biso   1.000  C
  C28      1.0000 0.20350  0.04920  0.61520  Biso   1.000  C
  H57      1.0000 0.77400  0.48560  0.14630  Biso   1.000  H
  H58      1.0000 0.72600  0.98560  0.35370  Biso   1.000  H
  H59      1.0000 0.22600  0.51440  0.85370  Biso   1.000  H
  H60      1.0000 0.27400  0.01440  0.64630  Biso   1.000  H
  C29      1.0000 0.66710  0.40350  0.01150  Biso   1.000  C
  C30      1.0000 0.83290  0.90350  0.48850  Biso   1.000  C
  C31      1.0000 0.33290  0.59650  0.98850  Biso   1.000  C
  C32      1.0000 0.16710  0.09650  0.51150  Biso   1.000  C
  H61      1.0000 0.71440  0.40530  0.97330  Biso   1.000  H
  H62      1.0000 0.78560  0.90530  0.52670  Biso   1.000  H
  H63      1.0000 0.28560  0.59470  0.02670  Biso   1.000  H
  H64      1.0000 0.21440  0.09470  0.47330  Biso   1.000  H
  C33      1.0000 0.55810  0.35118  0.95930  Biso   1.000  C
  C34      1.0000 0.94190  0.85118  0.54070  Biso   1.000  C
  C35      1.0000 0.44190  0.64882  0.04070  Biso   1.000  C
  C36      1.0000 0.05810  0.14882  0.45930  Biso   1.000  C
  C37      1.0000 0.49030  0.34582  0.02260  Biso   1.000  C
  C38      1.0000 0.00970  0.84582  0.47740  Biso   1.000  C
  C39      1.0000 0.50970  0.65418  0.97740  Biso   1.000  C
  C40      1.0000 0.99030  0.15418  0.52260  Biso   1.000  C
  C41      1.0000 0.58420  0.30043  0.77710  Biso   1.000  C
  C42      1.0000 0.91580  0.80043  0.72290  Biso   1.000  C
  C43      1.0000 0.41580  0.69957  0.22290  Biso   1.000  C
  C44      1.0000 0.08420  0.19957  0.27710  Biso   1.000  C
  C45      1.0000 0.31250  0.27394  0.03990  Biso   1.000  C
  C46      1.0000 0.18750  0.77394  0.46010  Biso   1.000  C
  C47      1.0000 0.68750  0.72606  0.96010  Biso   1.000  C
  C48      1.0000 0.81250  0.22606  0.53990  Biso   1.000  C
  C49      1.0000 0.62350  0.46473  0.61250  Biso   1.000  C
  C50      1.0000 0.87650  0.96473  0.88750  Biso   1.000  C
  C51      1.0000 0.37650  0.53527  0.38750  Biso   1.000  C
  C52      1.0000 0.12350  0.03527  0.11250  Biso   1.000  C
  H65      1.0000 0.59450  0.45980  0.66740  Biso   1.000  H
  H66      1.0000 0.90550  0.95980  0.83260  Biso   1.000  H
  H67      1.0000 0.40550  0.54020  0.33260  Biso   1.000  H
  H68      1.0000 0.09450  0.04020  0.16740  Biso   1.000  H
  C53      1.0000 0.68770  0.52440  0.49740  Biso   1.000  C
  C54      1.0000 0.81230  0.02440  0.00260  Biso   1.000  C
  C55      1.0000 0.31230  0.47560  0.50260  Biso   1.000  C
  C56      1.0000 0.18770  0.97560  0.99740  Biso   1.000  C
  H69      1.0000 0.71120  0.56610  0.45720  Biso   1.000  H
  H70      1.0000 0.78880  0.06610  0.04280  Biso   1.000  H
  H71      1.0000 0.28880  0.43390  0.54280  Biso   1.000  H
  H72      1.0000 0.21120  0.93390  0.95720  Biso   1.000  H
  C57      1.0000 0.68650  0.43290  0.48780  Biso   1.000  C
  C58      1.0000 0.81350  0.93290  0.01220  Biso   1.000  C
  C59      1.0000 0.31350  0.56710  0.51220  Biso   1.000  C
  C60      1.0000 0.18650  0.06710  0.98780  Biso   1.000  C
  H73      1.0000 0.70990  0.40060  0.43910  Biso   1.000  H
  H74      1.0000 0.79010  0.90060  0.06090  Biso   1.000  H
  H75      1.0000 0.29010  0.59940  0.56090  Biso   1.000  H
  H76      1.0000 0.20990  0.09940  0.93910  Biso   1.000  H
  C61      1.0000 0.54310  0.09790  0.66210  Biso   1.000  C
  C62      1.0000 0.95690  0.59790  0.83790  Biso   1.000  C
  C63      1.0000 0.45690  0.90210  0.33790  Biso   1.000  C
  C64      1.0000 0.04310  0.40210  0.16210  Biso   1.000  C
  H77      1.0000 0.49400  0.13150  0.68380  Biso   1.000  H
  H78      1.0000 0.00600  0.63150  0.81620  Biso   1.000  H
  H79      1.0000 0.50600  0.86850  0.31620  Biso   1.000  H
  H80      1.0000 0.99400  0.36850  0.18380  Biso   1.000  H
  C65      1.0000 0.63450  0.98320  0.63390  Biso   1.000  C
  C66      1.0000 0.86550  0.48320  0.86610  Biso   1.000  C
  C67      1.0000 0.36550  0.01680  0.36610  Biso   1.000  C
  C68      1.0000 0.13450  0.51680  0.13390  Biso   1.000  C
  H81      1.0000 0.66120  0.92460  0.63160  Biso   1.000  H
  H82      1.0000 0.83880  0.42460  0.86840  Biso   1.000  H
  H83      1.0000 0.33880  0.07540  0.36840  Biso   1.000  H
  H84      1.0000 0.16120  0.57540  0.13160  Biso   1.000  H
  C69      1.0000 0.66420  0.05965  0.59640  Biso   1.000  C
  C70      1.0000 0.83580  0.55965  0.90360  Biso   1.000  C
  C71      1.0000 0.33580  0.94035  0.40360  Biso   1.000  C
  C72      1.0000 0.16420  0.44035  0.09640  Biso   1.000  C
  H85      1.0000 0.71610  0.06270  0.56350  Biso   1.000  H
  H86      1.0000 0.78390  0.56270  0.93650  Biso   1.000  H
  H87      1.0000 0.28390  0.93730  0.43650  Biso   1.000  H
  H88      1.0000 0.21610  0.43730  0.06350  Biso   1.000  H
