data_image0
_cell_length_a       7.5946
_cell_length_b       8.4284
_cell_length_c       14.1106
_cell_angle_alpha    96.668
_cell_angle_beta     101.019
_cell_angle_gamma    102.962

_symmetry_space_group_name_H-M    "P 1"
_symmetry_int_tables_number       1

loop_
  _symmetry_equiv_pos_as_xyz
  'x, y, z'

loop_
  _atom_site_label
  _atom_site_occupancy
  _atom_site_fract_x
  _atom_site_fract_y
  _atom_site_fract_z
  _atom_site_thermal_displace_type
  _atom_site_B_iso_or_equiv
  _atom_site_type_symbol
  Cu1      1.0000 0.75026  0.22702  0.60178  Biso   1.000  Cu
  Cu2      1.0000 0.24974  0.77298  0.39822  Biso   1.000  Cu
  N1       1.0000 0.77360  0.28750  0.74376  Biso   1.000  N
  N2       1.0000 0.22640  0.71250  0.25624  Biso   1.000  N
  N3       1.0000 0.74630  0.41780  0.80088  Biso   1.000  N
  N4       1.0000 0.25370  0.58220  0.19912  Biso   1.000  N
  C1       1.0000 0.76180  0.38020  0.88962  Biso   1.000  C
  C2       1.0000 0.23820  0.61980  0.11038  Biso   1.000  C
  N5       1.0000 0.79790  0.22740  0.89006  Biso   1.000  N
  N6       1.0000 0.20210  0.77260  0.10994  Biso   1.000  N
  C3       1.0000 0.80720  0.17570  0.79761  Biso   1.000  C
  C4       1.0000 0.19280  0.82430  0.20239  Biso   1.000  C
  N7       1.0000 0.35370  0.50460  0.63214  Biso   1.000  N
  N8       1.0000 0.64630  0.49540  0.36786  Biso   1.000  N
  C5       1.0000 0.46910  0.42910  0.60224  Biso   1.000  C
  C6       1.0000 0.53090  0.57090  0.39776  Biso   1.000  C
  N9       1.0000 0.58090  0.37180  0.57711  Biso   1.000  N
  N10      1.0000 0.41910  0.62820  0.42289  Biso   1.000  N
  C7       1.0000 0.17790  0.43030  0.61239  Biso   1.000  C
  C8       1.0000 0.82210  0.56970  0.38761  Biso   1.000  C
  N11      1.0000 0.02020  0.37590  0.60091  Biso   1.000  N
  N12      1.0000 0.97980  0.62410  0.39909  Biso   1.000  N
  N13      1.0000 0.63980  0.99370  0.29552  Biso   1.000  N
  N14      1.0000 0.36020  0.00630  0.70448  Biso   1.000  N
  C9       1.0000 0.66670  0.07040  0.38353  Biso   1.000  C
  C10      1.0000 0.33330  0.92960  0.61647  Biso   1.000  C
  N15      1.0000 0.69420  0.12090  0.46577  Biso   1.000  N
  N16      1.0000 0.30580  0.87910  0.53423  Biso   1.000  N
  C11      1.0000 0.59930  0.05880  0.21636  Biso   1.000  C
  C12      1.0000 0.40070  0.94120  0.78364  Biso   1.000  C
  N17      1.0000 0.56230  0.09580  0.14076  Biso   1.000  N
  N18      1.0000 0.43770  0.90420  0.85924  Biso   1.000  N
  N19      1.0000 0.80010  0.44460  0.06232  Biso   1.000  N
  N20      1.0000 0.19990  0.55540  0.93768  Biso   1.000  N
  C13      1.0000 0.74920  0.48970  0.97524  Biso   1.000  C
  C14      1.0000 0.25080  0.51030  0.02476  Biso   1.000  C
  C15      1.0000 0.68680  0.63020  0.96337  Biso   1.000  C
  C16      1.0000 0.31320  0.36980  0.03663  Biso   1.000  C
  H1       1.0000 0.65220  0.65760  0.90020  Biso   1.000  H
  H2       1.0000 0.34780  0.34240  0.09980  Biso   1.000  H
  C17      1.0000 0.67670  0.72940  0.04667  Biso   1.000  C
  C18      1.0000 0.32330  0.27060  0.95333  Biso   1.000  C
  H3       1.0000 0.63620  0.82750  0.04180  Biso   1.000  H
  H4       1.0000 0.36380  0.17250  0.95820  Biso   1.000  H
  C19      1.0000 0.72630  0.68350  0.13709  Biso   1.000  C
  C20      1.0000 0.27370  0.31650  0.86291  Biso   1.000  C
  H5       1.0000 0.71990  0.74900  0.19530  Biso   1.000  H
  H6       1.0000 0.28010  0.25100  0.80470  Biso   1.000  H
  C21      1.0000 0.78500  0.54100  0.14086  Biso   1.000  C
  C22      1.0000 0.21500  0.45900  0.85914  Biso   1.000  C
  H7       1.0000 0.81680  0.50930  0.20300  Biso   1.000  H
  H8       1.0000 0.18320  0.49070  0.79700  Biso   1.000  H
  N21      1.0000 0.81400  0.13380  0.96739  Biso   1.000  N
  N22      1.0000 0.18600  0.86620  0.03261  Biso   1.000  N
  H9       1.0000 0.70580  0.05920  0.95800  Biso   1.000  H
  H10      1.0000 0.29420  0.94080  0.04200  Biso   1.000  H
  H11      1.0000 0.82170  0.20510  0.02240  Biso   1.000  H
  H12      1.0000 0.17830  0.79490  0.97760  Biso   1.000  H
  N23      1.0000 0.82000  0.02120  0.65314  Biso   1.000  N
  N24      1.0000 0.18000  0.97880  0.34686  Biso   1.000  N
  C23      1.0000 0.84300  0.02520  0.75076  Biso   1.000  C
  C24      1.0000 0.15700  0.97480  0.24924  Biso   1.000  C
  C25      1.0000 0.89770  0.90460  0.79808  Biso   1.000  C
  C26      1.0000 0.10230  0.09540  0.20192  Biso   1.000  C
  H13      1.0000 0.91440  0.91250  0.86710  Biso   1.000  H
  H14      1.0000 0.08560  0.08750  0.13290  Biso   1.000  H
  C27      1.0000 0.92770  0.77100  0.74188  Biso   1.000  C
  C28      1.0000 0.07230  0.22900  0.25812  Biso   1.000  C
  H15      1.0000 0.96570  0.68530  0.77200  Biso   1.000  H
  H16      1.0000 0.03430  0.31470  0.22800  Biso   1.000  H
  C29      1.0000 0.90190  0.76390  0.64206  Biso   1.000  C
  C30      1.0000 0.09810  0.23610  0.35794  Biso   1.000  C
  H17      1.0000 0.92010  0.67260  0.60240  Biso   1.000  H
  H18      1.0000 0.07990  0.32740  0.39760  Biso   1.000  H
  C31      1.0000 0.84930  0.89130  0.60037  Biso   1.000  C
  C32      1.0000 0.15070  0.10870  0.39963  Biso   1.000  C
  H19      1.0000 0.83320  0.88630  0.53160  Biso   1.000  H
  H20      1.0000 0.16680  0.11370  0.46840  Biso   1.000  H
