data_image0
_cell_length_a       15.3579
_cell_length_b       8.7652
_cell_length_c       16.605
_cell_angle_alpha    90
_cell_angle_beta     100.241
_cell_angle_gamma    90

_symmetry_space_group_name_H-M    "P 1"
_symmetry_int_tables_number       1

loop_
  _symmetry_equiv_pos_as_xyz
  'x, y, z'

loop_
  _atom_site_label
  _atom_site_occupancy
  _atom_site_fract_x
  _atom_site_fract_y
  _atom_site_fract_z
  _atom_site_thermal_displace_type
  _atom_site_B_iso_or_equiv
  _atom_site_type_symbol
  Cu1      1.0000 0.00000  0.48258  0.25000  Biso   1.000  Cu
  Cu2      1.0000 0.50000  0.98258  0.25000  Biso   1.000  Cu
  Cu3      1.0000 0.00000  0.51742  0.75000  Biso   1.000  Cu
  Cu4      1.0000 0.50000  0.01742  0.75000  Biso   1.000  Cu
  F1       1.0000 0.92606  0.77593  0.00333  Biso   1.000  F
  F2       1.0000 0.42606  0.27593  0.00333  Biso   1.000  F
  F3       1.0000 0.07394  0.77593  0.49667  Biso   1.000  F
  F4       1.0000 0.57394  0.27593  0.49667  Biso   1.000  F
  F5       1.0000 0.07394  0.22407  0.99667  Biso   1.000  F
  F6       1.0000 0.57394  0.72407  0.99667  Biso   1.000  F
  F7       1.0000 0.92606  0.22407  0.50333  Biso   1.000  F
  F8       1.0000 0.42606  0.72407  0.50333  Biso   1.000  F
  F9       1.0000 0.81562  0.95998  0.90736  Biso   1.000  F
  F10      1.0000 0.31562  0.45998  0.90736  Biso   1.000  F
  F11      1.0000 0.18438  0.95998  0.59264  Biso   1.000  F
  F12      1.0000 0.68438  0.45998  0.59264  Biso   1.000  F
  F13      1.0000 0.18438  0.04002  0.09264  Biso   1.000  F
  F14      1.0000 0.68438  0.54002  0.09264  Biso   1.000  F
  F15      1.0000 0.81562  0.04002  0.40736  Biso   1.000  F
  F16      1.0000 0.31562  0.54002  0.40736  Biso   1.000  F
  O1       1.0000 0.92455  0.61557  0.16170  Biso   1.000  O
  O2       1.0000 0.42455  0.11557  0.16170  Biso   1.000  O
  O3       1.0000 0.07545  0.61557  0.33830  Biso   1.000  O
  O4       1.0000 0.57545  0.11557  0.33830  Biso   1.000  O
  O5       1.0000 0.07545  0.38443  0.83830  Biso   1.000  O
  O6       1.0000 0.57545  0.88443  0.83830  Biso   1.000  O
  O7       1.0000 0.92455  0.38443  0.66170  Biso   1.000  O
  O8       1.0000 0.42455  0.88443  0.66170  Biso   1.000  O
  O9       1.0000 0.86509  0.40923  0.09534  Biso   1.000  O
  O10      1.0000 0.36509  0.90923  0.09534  Biso   1.000  O
  O11      1.0000 0.13491  0.40923  0.40466  Biso   1.000  O
  O12      1.0000 0.63491  0.90923  0.40466  Biso   1.000  O
  O13      1.0000 0.13491  0.59077  0.90466  Biso   1.000  O
  O14      1.0000 0.63491  0.09077  0.90466  Biso   1.000  O
  O15      1.0000 0.86509  0.59077  0.59534  Biso   1.000  O
  O16      1.0000 0.36509  0.09077  0.59534  Biso   1.000  O
  N1       1.0000 0.10527  0.49323  0.19221  Biso   1.000  N
  N2       1.0000 0.60527  0.99323  0.19221  Biso   1.000  N
  N3       1.0000 0.89473  0.49323  0.30779  Biso   1.000  N
  N4       1.0000 0.39473  0.99323  0.30779  Biso   1.000  N
  N5       1.0000 0.89473  0.50677  0.80779  Biso   1.000  N
  N6       1.0000 0.39473  0.00677  0.80779  Biso   1.000  N
  N7       1.0000 0.10527  0.50677  0.69221  Biso   1.000  N
  N8       1.0000 0.60527  0.00677  0.69221  Biso   1.000  N
  N9       1.0000 0.00000  0.24600  0.25000  Biso   1.000  N
  N10      1.0000 0.50000  0.74600  0.25000  Biso   1.000  N
  N11      1.0000 0.00000  0.75400  0.75000  Biso   1.000  N
  N12      1.0000 0.50000  0.25400  0.75000  Biso   1.000  N
  C1       1.0000 0.87159  0.54620  0.10665  Biso   1.000  C
  C2       1.0000 0.37159  0.04620  0.10665  Biso   1.000  C
  C3       1.0000 0.12841  0.54620  0.39335  Biso   1.000  C
  C4       1.0000 0.62841  0.04620  0.39335  Biso   1.000  C
  C5       1.0000 0.12841  0.45380  0.89335  Biso   1.000  C
  C6       1.0000 0.62841  0.95380  0.89335  Biso   1.000  C
  C7       1.0000 0.87159  0.45380  0.60665  Biso   1.000  C
  C8       1.0000 0.37159  0.95380  0.60665  Biso   1.000  C
  C9       1.0000 0.80884  0.65170  0.05110  Biso   1.000  C
  C10      1.0000 0.30884  0.15170  0.05110  Biso   1.000  C
  C11      1.0000 0.19116  0.65170  0.44890  Biso   1.000  C
  C12      1.0000 0.69116  0.15170  0.44890  Biso   1.000  C
  C13      1.0000 0.19116  0.34830  0.94890  Biso   1.000  C
  C14      1.0000 0.69116  0.84830  0.94890  Biso   1.000  C
  C15      1.0000 0.80884  0.34830  0.55110  Biso   1.000  C
  C16      1.0000 0.30884  0.84830  0.55110  Biso   1.000  C
  C17      1.0000 0.83842  0.76170  0.00333  Biso   1.000  C
  C18      1.0000 0.33842  0.26170  0.00333  Biso   1.000  C
  C19      1.0000 0.16158  0.76170  0.49667  Biso   1.000  C
  C20      1.0000 0.66158  0.26170  0.49667  Biso   1.000  C
  C21      1.0000 0.16158  0.23830  0.99667  Biso   1.000  C
  C22      1.0000 0.66158  0.73830  0.99667  Biso   1.000  C
  C23      1.0000 0.83842  0.23830  0.50333  Biso   1.000  C
  C24      1.0000 0.33842  0.73830  0.50333  Biso   1.000  C
  C25      1.0000 0.78132  0.85720  0.95356  Biso   1.000  C
  C26      1.0000 0.28132  0.35720  0.95356  Biso   1.000  C
  C27      1.0000 0.21868  0.85720  0.54644  Biso   1.000  C
  C28      1.0000 0.71868  0.35720  0.54644  Biso   1.000  C
  C29      1.0000 0.21868  0.14280  0.04644  Biso   1.000  C
  C30      1.0000 0.71868  0.64280  0.04644  Biso   1.000  C
  C31      1.0000 0.78132  0.14280  0.45356  Biso   1.000  C
  C32      1.0000 0.28132  0.64280  0.45356  Biso   1.000  C
  C33      1.0000 0.11090  0.60020  0.13562  Biso   1.000  C
  C34      1.0000 0.61090  0.10020  0.13562  Biso   1.000  C
  C35      1.0000 0.88910  0.60020  0.36438  Biso   1.000  C
  C36      1.0000 0.38910  0.10020  0.36438  Biso   1.000  C
  C37      1.0000 0.88910  0.39980  0.86438  Biso   1.000  C
  C38      1.0000 0.38910  0.89980  0.86438  Biso   1.000  C
  C39      1.0000 0.11090  0.39980  0.63562  Biso   1.000  C
  C40      1.0000 0.61090  0.89980  0.63562  Biso   1.000  C
  H1       1.0000 0.06060  0.65620  0.11450  Biso   1.000  H
  H2       1.0000 0.56060  0.15620  0.11450  Biso   1.000  H
  H3       1.0000 0.93940  0.65620  0.38550  Biso   1.000  H
  H4       1.0000 0.43940  0.15620  0.38550  Biso   1.000  H
  H5       1.0000 0.93940  0.34380  0.88550  Biso   1.000  H
  H6       1.0000 0.43940  0.84380  0.88550  Biso   1.000  H
  H7       1.0000 0.06060  0.34380  0.61450  Biso   1.000  H
  H8       1.0000 0.56060  0.84380  0.61450  Biso   1.000  H
  C41      1.0000 0.18819  0.63030  0.10757  Biso   1.000  C
  C42      1.0000 0.68819  0.13030  0.10757  Biso   1.000  C
  C43      1.0000 0.81181  0.63030  0.39243  Biso   1.000  C
  C44      1.0000 0.31181  0.13030  0.39243  Biso   1.000  C
  C45      1.0000 0.81181  0.36970  0.89243  Biso   1.000  C
  C46      1.0000 0.31181  0.86970  0.89243  Biso   1.000  C
  C47      1.0000 0.18819  0.36970  0.60757  Biso   1.000  C
  C48      1.0000 0.68819  0.86970  0.60757  Biso   1.000  C
  H9       1.0000 0.18990  0.70580  0.06850  Biso   1.000  H
  H10      1.0000 0.68990  0.20580  0.06850  Biso   1.000  H
  H11      1.0000 0.81010  0.70580  0.43150  Biso   1.000  H
  H12      1.0000 0.31010  0.20580  0.43150  Biso   1.000  H
  H13      1.0000 0.81010  0.29420  0.93150  Biso   1.000  H
  H14      1.0000 0.31010  0.79420  0.93150  Biso   1.000  H
  H15      1.0000 0.18990  0.29420  0.56850  Biso   1.000  H
  H16      1.0000 0.68990  0.79420  0.56850  Biso   1.000  H
  C49      1.0000 0.26229  0.54810  0.13773  Biso   1.000  C
  C50      1.0000 0.76229  0.04810  0.13773  Biso   1.000  C
  C51      1.0000 0.73771  0.54810  0.36227  Biso   1.000  C
  C52      1.0000 0.23771  0.04810  0.36227  Biso   1.000  C
  C53      1.0000 0.73771  0.45190  0.86227  Biso   1.000  C
  C54      1.0000 0.23771  0.95190  0.86227  Biso   1.000  C
  C55      1.0000 0.26229  0.45190  0.63773  Biso   1.000  C
  C56      1.0000 0.76229  0.95190  0.63773  Biso   1.000  C
  H17      1.0000 0.31540  0.56780  0.12020  Biso   1.000  H
  H18      1.0000 0.81540  0.06780  0.12020  Biso   1.000  H
  H19      1.0000 0.68460  0.56780  0.37980  Biso   1.000  H
  H20      1.0000 0.18460  0.06780  0.37980  Biso   1.000  H
  H21      1.0000 0.68460  0.43220  0.87980  Biso   1.000  H
  H22      1.0000 0.18460  0.93220  0.87980  Biso   1.000  H
  H23      1.0000 0.31540  0.43220  0.62020  Biso   1.000  H
  H24      1.0000 0.81540  0.93220  0.62020  Biso   1.000  H
  C57      1.0000 0.25719  0.43620  0.19412  Biso   1.000  C
  C58      1.0000 0.75719  0.93620  0.19412  Biso   1.000  C
  C59      1.0000 0.74281  0.43620  0.30588  Biso   1.000  C
  C60      1.0000 0.24281  0.93620  0.30588  Biso   1.000  C
  C61      1.0000 0.74281  0.56380  0.80588  Biso   1.000  C
  C62      1.0000 0.24281  0.06380  0.80588  Biso   1.000  C
  C63      1.0000 0.25719  0.56380  0.69412  Biso   1.000  C
  C64      1.0000 0.75719  0.06380  0.69412  Biso   1.000  C
  H25      1.0000 0.30650  0.37700  0.21440  Biso   1.000  H
  H26      1.0000 0.80650  0.87700  0.21440  Biso   1.000  H
  H27      1.0000 0.69350  0.37700  0.28560  Biso   1.000  H
  H28      1.0000 0.19350  0.87700  0.28560  Biso   1.000  H
  H29      1.0000 0.69350  0.62300  0.78560  Biso   1.000  H
  H30      1.0000 0.19350  0.12300  0.78560  Biso   1.000  H
  H31      1.0000 0.30650  0.62300  0.71440  Biso   1.000  H
  H32      1.0000 0.80650  0.12300  0.71440  Biso   1.000  H
  C65      1.0000 0.17809  0.41230  0.22054  Biso   1.000  C
  C66      1.0000 0.67809  0.91230  0.22054  Biso   1.000  C
  C67      1.0000 0.82191  0.41230  0.27946  Biso   1.000  C
  C68      1.0000 0.32191  0.91230  0.27946  Biso   1.000  C
  C69      1.0000 0.82191  0.58770  0.77946  Biso   1.000  C
  C70      1.0000 0.32191  0.08770  0.77946  Biso   1.000  C
  C71      1.0000 0.17809  0.58770  0.72054  Biso   1.000  C
  C72      1.0000 0.67809  0.08770  0.72054  Biso   1.000  C
  H33      1.0000 0.17530  0.33710  0.25950  Biso   1.000  H
  H34      1.0000 0.67530  0.83710  0.25950  Biso   1.000  H
  H35      1.0000 0.82470  0.33710  0.24050  Biso   1.000  H
  H36      1.0000 0.32470  0.83710  0.24050  Biso   1.000  H
  H37      1.0000 0.82470  0.66290  0.74050  Biso   1.000  H
  H38      1.0000 0.32470  0.16290  0.74050  Biso   1.000  H
  H39      1.0000 0.17530  0.66290  0.75950  Biso   1.000  H
  H40      1.0000 0.67530  0.16290  0.75950  Biso   1.000  H
  C73      1.0000 0.00346  0.16810  0.18168  Biso   1.000  C
  C74      1.0000 0.50346  0.66810  0.18168  Biso   1.000  C
  C75      1.0000 0.99654  0.16810  0.31832  Biso   1.000  C
  C76      1.0000 0.49654  0.66810  0.31832  Biso   1.000  C
  C77      1.0000 0.99654  0.83190  0.81832  Biso   1.000  C
  C78      1.0000 0.49654  0.33190  0.81832  Biso   1.000  C
  C79      1.0000 0.00346  0.83190  0.68168  Biso   1.000  C
  C80      1.0000 0.50346  0.33190  0.68168  Biso   1.000  C
  H41      1.0000 0.00560  0.22180  0.13370  Biso   1.000  H
  H42      1.0000 0.50560  0.72180  0.13370  Biso   1.000  H
  H43      1.0000 0.99440  0.22180  0.36630  Biso   1.000  H
  H44      1.0000 0.49440  0.72180  0.36630  Biso   1.000  H
  H45      1.0000 0.99440  0.77820  0.86630  Biso   1.000  H
  H46      1.0000 0.49440  0.27820  0.86630  Biso   1.000  H
  H47      1.0000 0.00560  0.77820  0.63370  Biso   1.000  H
  H48      1.0000 0.50560  0.27820  0.63370  Biso   1.000  H
  C81      1.0000 0.00405  0.01100  0.17960  Biso   1.000  C
  C82      1.0000 0.50405  0.51100  0.17960  Biso   1.000  C
  C83      1.0000 0.99595  0.01100  0.32040  Biso   1.000  C
  C84      1.0000 0.49595  0.51100  0.32040  Biso   1.000  C
  C85      1.0000 0.99595  0.98900  0.82040  Biso   1.000  C
  C86      1.0000 0.49595  0.48900  0.82040  Biso   1.000  C
  C87      1.0000 0.00405  0.98900  0.67960  Biso   1.000  C
  C88      1.0000 0.50405  0.48900  0.67960  Biso   1.000  C
  H49      1.0000 0.00710  0.95950  0.13120  Biso   1.000  H
  H50      1.0000 0.50710  0.45950  0.13120  Biso   1.000  H
  H51      1.0000 0.99290  0.95950  0.36880  Biso   1.000  H
  H52      1.0000 0.49290  0.45950  0.36880  Biso   1.000  H
  H53      1.0000 0.99290  0.04050  0.86880  Biso   1.000  H
  H54      1.0000 0.49290  0.54050  0.86880  Biso   1.000  H
  H55      1.0000 0.00710  0.04050  0.63120  Biso   1.000  H
  H56      1.0000 0.50710  0.54050  0.63120  Biso   1.000  H
  C89      1.0000 0.00000  0.93200  0.25000  Biso   1.000  C
  C90      1.0000 0.50000  0.43200  0.25000  Biso   1.000  C
  C91      1.0000 0.00000  0.06800  0.75000  Biso   1.000  C
  C92      1.0000 0.50000  0.56800  0.75000  Biso   1.000  C
  H57      1.0000 0.00000  0.82590  0.25000  Biso   1.000  H
  H58      1.0000 0.50000  0.32590  0.25000  Biso   1.000  H
  H59      1.0000 0.00000  0.17410  0.75000  Biso   1.000  H
  H60      1.0000 0.50000  0.67410  0.75000  Biso   1.000  H
