data_image0
_cell_length_a       13.3349
_cell_length_b       6.7406
_cell_length_c       7.3419
_cell_angle_alpha    90
_cell_angle_beta     105.45
_cell_angle_gamma    90

_symmetry_space_group_name_H-M    "P 1"
_symmetry_int_tables_number       1

loop_
  _symmetry_equiv_pos_as_xyz
  'x, y, z'

loop_
  _atom_site_label
  _atom_site_occupancy
  _atom_site_fract_x
  _atom_site_fract_y
  _atom_site_fract_z
  _atom_site_thermal_displace_type
  _atom_site_B_iso_or_equiv
  _atom_site_type_symbol
  Cu1      1.0000 0.00000  0.00000  0.50000  Biso   1.000  Cu
  Cu2      1.0000 0.00000  0.50000  0.00000  Biso   1.000  Cu
  Cl1      1.0000 0.93760  0.20480  0.25690  Biso   1.000  Cl
  Cl2      1.0000 0.06240  0.70480  0.24310  Biso   1.000  Cl
  Cl3      1.0000 0.06240  0.79520  0.74310  Biso   1.000  Cl
  Cl4      1.0000 0.93760  0.29520  0.75690  Biso   1.000  Cl
  N1       1.0000 0.24708  0.37060  0.58300  Biso   1.000  N
  N2       1.0000 0.75292  0.87060  0.91700  Biso   1.000  N
  N3       1.0000 0.75292  0.62940  0.41700  Biso   1.000  N
  N4       1.0000 0.24708  0.12940  0.08300  Biso   1.000  N
  N5       1.0000 0.29820  0.19676  0.59500  Biso   1.000  N
  N6       1.0000 0.70180  0.69676  0.90500  Biso   1.000  N
  N7       1.0000 0.70180  0.80324  0.40500  Biso   1.000  N
  N8       1.0000 0.29820  0.30324  0.09500  Biso   1.000  N
  N9       1.0000 0.23080  0.05581  0.57700  Biso   1.000  N
  N10      1.0000 0.76920  0.55581  0.92300  Biso   1.000  N
  N11      1.0000 0.76920  0.94419  0.42300  Biso   1.000  N
  N12      1.0000 0.23080  0.44419  0.07700  Biso   1.000  N
  N13      1.0000 0.13580  0.13770  0.55300  Biso   1.000  N
  N14      1.0000 0.86420  0.63770  0.94700  Biso   1.000  N
  N15      1.0000 0.86420  0.86230  0.44700  Biso   1.000  N
  N16      1.0000 0.13580  0.36230  0.05300  Biso   1.000  N
  C1       1.0000 0.14654  0.33140  0.54500  Biso   1.000  C
  C2       1.0000 0.85346  0.83140  0.95500  Biso   1.000  C
  C3       1.0000 0.85346  0.66860  0.45500  Biso   1.000  C
  C4       1.0000 0.14654  0.16860  0.04500  Biso   1.000  C
  H1       1.0000 0.09292  0.42403  0.51621  Biso   1.000  H
  H2       1.0000 0.90708  0.92403  0.98379  Biso   1.000  H
  H3       1.0000 0.90708  0.57597  0.48379  Biso   1.000  H
  H4       1.0000 0.09292  0.07597  0.01621  Biso   1.000  H
  C5       1.0000 0.30060  0.56430  0.59730  Biso   1.000  C
  C6       1.0000 0.69940  0.06430  0.90270  Biso   1.000  C
  C7       1.0000 0.69940  0.43570  0.40270  Biso   1.000  C
  C8       1.0000 0.30060  0.93570  0.09730  Biso   1.000  C
  H5       1.0000 0.24602  0.66346  0.56434  Biso   1.000  H
  H6       1.0000 0.75398  0.16346  0.93566  Biso   1.000  H
  H7       1.0000 0.75398  0.33654  0.43566  Biso   1.000  H
  H8       1.0000 0.24602  0.83654  0.06434  Biso   1.000  H
  H9       1.0000 0.33551  0.56618  0.49731  Biso   1.000  H
  H10      1.0000 0.66449  0.06618  0.00269  Biso   1.000  H
  H11      1.0000 0.66449  0.43382  0.50269  Biso   1.000  H
  H12      1.0000 0.33551  0.93382  0.99731  Biso   1.000  H
  C9       1.0000 0.37780  0.64100  0.76800  Biso   1.000  C
  C10      1.0000 0.62220  0.14100  0.73200  Biso   1.000  C
  C11      1.0000 0.62220  0.35900  0.23200  Biso   1.000  C
  C12      1.0000 0.37780  0.85900  0.26800  Biso   1.000  C
  H13      1.0000 0.41791  0.74586  0.73283  Biso   1.000  H
  H14      1.0000 0.58209  0.24586  0.76717  Biso   1.000  H
  H15      1.0000 0.58209  0.25414  0.26717  Biso   1.000  H
  H16      1.0000 0.41791  0.75414  0.23283  Biso   1.000  H
  H17      1.0000 0.34071  0.69633  0.85467  Biso   1.000  H
  H18      1.0000 0.65929  0.19633  0.64533  Biso   1.000  H
  H19      1.0000 0.65929  0.30367  0.14533  Biso   1.000  H
  H20      1.0000 0.34071  0.80367  0.35467  Biso   1.000  H
  O1       1.0000 0.44510  0.48900  0.86200  Biso   1.000  O
  O2       1.0000 0.55490  0.98900  0.63800  Biso   1.000  O
  O3       1.0000 0.55490  0.51100  0.13800  Biso   1.000  O
  O4       1.0000 0.44510  0.01100  0.36200  Biso   1.000  O
  H21      1.0000 0.42627  0.38207  0.81168  Biso   1.000  H
  H22      1.0000 0.57373  0.88207  0.68832  Biso   1.000  H
  H23      1.0000 0.57373  0.61793  0.18832  Biso   1.000  H
  H24      1.0000 0.42627  0.11793  0.31168  Biso   1.000  H
  H25      1.0000 0.31564  0.60902  0.72756  Biso   1.000  H
  H26      1.0000 0.68436  0.10902  0.77244  Biso   1.000  H
  H27      1.0000 0.68436  0.39098  0.27244  Biso   1.000  H
  H28      1.0000 0.31564  0.89098  0.22756  Biso   1.000  H
  H29      1.0000 0.25331  0.65967  0.52039  Biso   1.000  H
  H30      1.0000 0.74669  0.15967  0.97961  Biso   1.000  H
  H31      1.0000 0.74669  0.34033  0.47961  Biso   1.000  H
  H32      1.0000 0.25331  0.84033  0.02039  Biso   1.000  H
  C13      1.0000 0.39870  0.56500  0.53900  Biso   1.000  C
  C14      1.0000 0.60130  0.06500  0.96100  Biso   1.000  C
  C15      1.0000 0.60130  0.43500  0.46100  Biso   1.000  C
  C16      1.0000 0.39870  0.93500  0.03900  Biso   1.000  C
  H33      1.0000 0.38957  0.48960  0.42321  Biso   1.000  H
  H34      1.0000 0.61043  0.98960  0.07679  Biso   1.000  H
  H35      1.0000 0.61043  0.51040  0.57679  Biso   1.000  H
  H36      1.0000 0.38957  0.01040  0.92321  Biso   1.000  H
  H37      1.0000 0.41727  0.69967  0.51599  Biso   1.000  H
  H38      1.0000 0.58273  0.19967  0.98401  Biso   1.000  H
  H39      1.0000 0.58273  0.30033  0.48401  Biso   1.000  H
  H40      1.0000 0.41727  0.80033  0.01599  Biso   1.000  H
  O5       1.0000 0.47900  0.48000  0.68400  Biso   1.000  O
  O6       1.0000 0.52100  0.98000  0.81600  Biso   1.000  O
  O7       1.0000 0.52100  0.52000  0.31600  Biso   1.000  O
  O8       1.0000 0.47900  0.02000  0.18400  Biso   1.000  O
  H41      1.0000 0.46854  0.35907  0.68929  Biso   1.000  H
  H42      1.0000 0.53146  0.85907  0.81071  Biso   1.000  H
  H43      1.0000 0.53146  0.64093  0.31071  Biso   1.000  H
  H44      1.0000 0.46854  0.14093  0.18929  Biso   1.000  H
