data_image0
_cell_length_a       11.1059
_cell_length_b       9.8725
_cell_length_c       13.0827
_cell_angle_alpha    90
_cell_angle_beta     101.191
_cell_angle_gamma    90

_symmetry_space_group_name_H-M    "P 1"
_symmetry_int_tables_number       1

loop_
  _symmetry_equiv_pos_as_xyz
  'x, y, z'

loop_
  _atom_site_label
  _atom_site_occupancy
  _atom_site_fract_x
  _atom_site_fract_y
  _atom_site_fract_z
  _atom_site_thermal_displace_type
  _atom_site_B_iso_or_equiv
  _atom_site_type_symbol
  Se1      1.0000 0.09580  0.02462  0.67732  Biso   1.000  Se
  Se2      1.0000 0.59580  0.97538  0.17732  Biso   1.000  Se
  Se3      1.0000 0.90420  0.97538  0.32268  Biso   1.000  Se
  Se4      1.0000 0.40420  0.02462  0.82268  Biso   1.000  Se
  Cu1      1.0000 0.19193  0.84070  0.87058  Biso   1.000  Cu
  Cu2      1.0000 0.69193  0.15930  0.37058  Biso   1.000  Cu
  Cu3      1.0000 0.80807  0.15930  0.12942  Biso   1.000  Cu
  Cu4      1.0000 0.30807  0.84070  0.62942  Biso   1.000  Cu
  V1       1.0000 0.82073  0.13024  0.63853  Biso   1.000  V
  V2       1.0000 0.32073  0.86976  0.13853  Biso   1.000  V
  V3       1.0000 0.17927  0.86976  0.36147  Biso   1.000  V
  V4       1.0000 0.67927  0.13024  0.86147  Biso   1.000  V
  O1       1.0000 0.13570  0.02170  0.80820  Biso   1.000  O
  O2       1.0000 0.63570  0.97830  0.30820  Biso   1.000  O
  O3       1.0000 0.86430  0.97830  0.19180  Biso   1.000  O
  O4       1.0000 0.36430  0.02170  0.69180  Biso   1.000  O
  O5       1.0000 0.13860  0.87080  0.64420  Biso   1.000  O
  O6       1.0000 0.63860  0.12920  0.14420  Biso   1.000  O
  O7       1.0000 0.86140  0.12920  0.35580  Biso   1.000  O
  O8       1.0000 0.36140  0.87080  0.85580  Biso   1.000  O
  O9       1.0000 0.93930  0.99400  0.65670  Biso   1.000  O
  O10      1.0000 0.43930  0.00600  0.15670  Biso   1.000  O
  O11      1.0000 0.06070  0.00600  0.34330  Biso   1.000  O
  O12      1.0000 0.56070  0.99400  0.84330  Biso   1.000  O
  O13      1.0000 0.21830  0.90430  0.03327  Biso   1.000  O
  O14      1.0000 0.71830  0.09570  0.53327  Biso   1.000  O
  O15      1.0000 0.78170  0.09570  0.96673  Biso   1.000  O
  O16      1.0000 0.28170  0.90430  0.46673  Biso   1.000  O
  O17      1.0000 0.75000  0.13350  0.75000  Biso   1.000  O
  O18      1.0000 0.25000  0.86650  0.25000  Biso   1.000  O
  O19      1.0000 0.88770  0.27140  0.62380  Biso   1.000  O
  O20      1.0000 0.38770  0.72860  0.12380  Biso   1.000  O
  O21      1.0000 0.11230  0.72860  0.37620  Biso   1.000  O
  O22      1.0000 0.61230  0.27140  0.87620  Biso   1.000  O
  N1       1.0000 0.23160  0.63920  0.88030  Biso   1.000  N
  N2       1.0000 0.73160  0.36080  0.38030  Biso   1.000  N
  N3       1.0000 0.76840  0.36080  0.11970  Biso   1.000  N
  N4       1.0000 0.26840  0.63920  0.61970  Biso   1.000  N
  N5       1.0000 0.02270  0.77090  0.87260  Biso   1.000  N
  N6       1.0000 0.52270  0.22910  0.37260  Biso   1.000  N
  N7       1.0000 0.97730  0.22910  0.12740  Biso   1.000  N
  N8       1.0000 0.47730  0.77090  0.62740  Biso   1.000  N
  C1       1.0000 0.33870  0.57710  0.88870  Biso   1.000  C
  C2       1.0000 0.83870  0.42290  0.38870  Biso   1.000  C
  C3       1.0000 0.66130  0.42290  0.11130  Biso   1.000  C
  C4       1.0000 0.16130  0.57710  0.61130  Biso   1.000  C
  C5       1.0000 0.34760  0.43490  0.88960  Biso   1.000  C
  C6       1.0000 0.84760  0.56510  0.38960  Biso   1.000  C
  C7       1.0000 0.65240  0.56510  0.11040  Biso   1.000  C
  C8       1.0000 0.15240  0.43490  0.61040  Biso   1.000  C
  C9       1.0000 0.24490  0.35650  0.88210  Biso   1.000  C
  C10      1.0000 0.74490  0.64350  0.38210  Biso   1.000  C
  C11      1.0000 0.75510  0.64350  0.11790  Biso   1.000  C
  C12      1.0000 0.25510  0.35650  0.61790  Biso   1.000  C
  C13      1.0000 0.13030  0.41970  0.87430  Biso   1.000  C
  C14      1.0000 0.63030  0.58030  0.37430  Biso   1.000  C
  C15      1.0000 0.86970  0.58030  0.12570  Biso   1.000  C
  C16      1.0000 0.36970  0.41970  0.62570  Biso   1.000  C
  C17      1.0000 0.12920  0.56170  0.87400  Biso   1.000  C
  C18      1.0000 0.62920  0.43830  0.37400  Biso   1.000  C
  C19      1.0000 0.87080  0.43830  0.12600  Biso   1.000  C
  C20      1.0000 0.37080  0.56170  0.62600  Biso   1.000  C
  C21      1.0000 0.01680  0.63330  0.87050  Biso   1.000  C
  C22      1.0000 0.51680  0.36670  0.37050  Biso   1.000  C
  C23      1.0000 0.98320  0.36670  0.12950  Biso   1.000  C
  C24      1.0000 0.48320  0.63330  0.62950  Biso   1.000  C
  C25      1.0000 0.90760  0.56110  0.86910  Biso   1.000  C
  C26      1.0000 0.40760  0.43890  0.36910  Biso   1.000  C
  C27      1.0000 0.09240  0.43890  0.13090  Biso   1.000  C
  C28      1.0000 0.59240  0.56110  0.63090  Biso   1.000  C
  C29      1.0000 0.80160  0.63820  0.87420  Biso   1.000  C
  C30      1.0000 0.30160  0.36180  0.37420  Biso   1.000  C
  C31      1.0000 0.19840  0.36180  0.12580  Biso   1.000  C
  C32      1.0000 0.69840  0.63820  0.62580  Biso   1.000  C
  C33      1.0000 0.81080  0.77520  0.88020  Biso   1.000  C
  C34      1.0000 0.31080  0.22480  0.38020  Biso   1.000  C
  C35      1.0000 0.18920  0.22480  0.11980  Biso   1.000  C
  C36      1.0000 0.68920  0.77520  0.61980  Biso   1.000  C
  C37      1.0000 0.92080  0.83940  0.87790  Biso   1.000  C
  C38      1.0000 0.42080  0.16060  0.37790  Biso   1.000  C
  C39      1.0000 0.07920  0.16060  0.12210  Biso   1.000  C
  C40      1.0000 0.57920  0.83940  0.62210  Biso   1.000  C
  C41      1.0000 0.01570  0.34960  0.86900  Biso   1.000  C
  C42      1.0000 0.51570  0.65040  0.36900  Biso   1.000  C
  C43      1.0000 0.98430  0.65040  0.13100  Biso   1.000  C
  C44      1.0000 0.48430  0.34960  0.63100  Biso   1.000  C
  C45      1.0000 0.91130  0.41670  0.86710  Biso   1.000  C
  C46      1.0000 0.41130  0.58330  0.36710  Biso   1.000  C
  C47      1.0000 0.08870  0.58330  0.13290  Biso   1.000  C
  C48      1.0000 0.58870  0.41670  0.63290  Biso   1.000  C
  H1       1.0000 0.40900  0.63500  0.89900  Biso   1.000  H
  H2       1.0000 0.90900  0.36500  0.39900  Biso   1.000  H
  H3       1.0000 0.59100  0.36500  0.10100  Biso   1.000  H
  H4       1.0000 0.09100  0.63500  0.60100  Biso   1.000  H
  H5       1.0000 0.42200  0.40700  0.89900  Biso   1.000  H
  H6       1.0000 0.92200  0.59300  0.39900  Biso   1.000  H
  H7       1.0000 0.57800  0.59300  0.10100  Biso   1.000  H
  H8       1.0000 0.07800  0.40700  0.60100  Biso   1.000  H
  H9       1.0000 0.25100  0.24600  0.88500  Biso   1.000  H
  H10      1.0000 0.75100  0.75400  0.38500  Biso   1.000  H
  H11      1.0000 0.74900  0.75400  0.11500  Biso   1.000  H
  H12      1.0000 0.24900  0.24600  0.61500  Biso   1.000  H
  H13      1.0000 0.72100  0.58800  0.87500  Biso   1.000  H
  H14      1.0000 0.22100  0.41200  0.37500  Biso   1.000  H
  H15      1.0000 0.27900  0.41200  0.12500  Biso   1.000  H
  H16      1.0000 0.77900  0.58800  0.62500  Biso   1.000  H
  H17      1.0000 0.75600  0.81700  0.88700  Biso   1.000  H
  H18      1.0000 0.25600  0.18300  0.38700  Biso   1.000  H
  H19      1.0000 0.24400  0.18300  0.11300  Biso   1.000  H
  H20      1.0000 0.74400  0.81700  0.61300  Biso   1.000  H
  H21      1.0000 0.93000  0.92600  0.87900  Biso   1.000  H
  H22      1.0000 0.43000  0.07400  0.37900  Biso   1.000  H
  H23      1.0000 0.07000  0.07400  0.12100  Biso   1.000  H
  H24      1.0000 0.57000  0.92600  0.62100  Biso   1.000  H
  H25      1.0000 0.01800  0.26500  0.86500  Biso   1.000  H
  H26      1.0000 0.51800  0.73500  0.36500  Biso   1.000  H
  H27      1.0000 0.98200  0.73500  0.13500  Biso   1.000  H
  H28      1.0000 0.48200  0.26500  0.63500  Biso   1.000  H
  H29      1.0000 0.84400  0.37500  0.85900  Biso   1.000  H
  H30      1.0000 0.34400  0.62500  0.35900  Biso   1.000  H
  H31      1.0000 0.15600  0.62500  0.14100  Biso   1.000  H
  H32      1.0000 0.65600  0.37500  0.64100  Biso   1.000  H
