data_image0
_cell_length_a       3.9184
_cell_length_b       7.2612
_cell_length_c       28.551
_cell_angle_alpha    90
_cell_angle_beta     93.61
_cell_angle_gamma    90

_symmetry_space_group_name_H-M    "P 1"
_symmetry_int_tables_number       1

loop_
  _symmetry_equiv_pos_as_xyz
  'x, y, z'

loop_
  _atom_site_label
  _atom_site_occupancy
  _atom_site_fract_x
  _atom_site_fract_y
  _atom_site_fract_z
  _atom_site_thermal_displace_type
  _atom_site_B_iso_or_equiv
  _atom_site_type_symbol
  Br1      1.0000 0.38263  0.75094  0.52363  Biso   1.000  Br
  Br2      1.0000 0.61737  0.25094  0.97637  Biso   1.000  Br
  Br3      1.0000 0.61737  0.24906  0.47637  Biso   1.000  Br
  Br4      1.0000 0.38263  0.74906  0.02363  Biso   1.000  Br
  Cu1      1.0000 0.00000  0.00000  0.50000  Biso   1.000  Cu
  Cu2      1.0000 0.00000  0.50000  0.00000  Biso   1.000  Cu
  O1       1.0000 0.65560  0.94670  0.24177  Biso   1.000  O
  O2       1.0000 0.34440  0.44670  0.25823  Biso   1.000  O
  O3       1.0000 0.34440  0.05330  0.75823  Biso   1.000  O
  O4       1.0000 0.65560  0.55330  0.74177  Biso   1.000  O
  N1       1.0000 0.07920  0.15430  0.38655  Biso   1.000  N
  N2       1.0000 0.92080  0.65430  0.11345  Biso   1.000  N
  N3       1.0000 0.92080  0.84570  0.61345  Biso   1.000  N
  N4       1.0000 0.07920  0.34570  0.88655  Biso   1.000  N
  H1       1.0000 0.17700  0.20600  0.40640  Biso   1.000  H
  H2       1.0000 0.82300  0.70600  0.09360  Biso   1.000  H
  H3       1.0000 0.82300  0.79400  0.59360  Biso   1.000  H
  H4       1.0000 0.17700  0.29400  0.90640  Biso   1.000  H
  N5       1.0000 0.94440  0.88890  0.43306  Biso   1.000  N
  N6       1.0000 0.05560  0.38890  0.06694  Biso   1.000  N
  N7       1.0000 0.05560  0.11110  0.56694  Biso   1.000  N
  N8       1.0000 0.94440  0.61110  0.93306  Biso   1.000  N
  C1       1.0000 0.04700  0.20040  0.34025  Biso   1.000  C
  C2       1.0000 0.95300  0.70040  0.15975  Biso   1.000  C
  C3       1.0000 0.95300  0.79960  0.65975  Biso   1.000  C
  C4       1.0000 0.04700  0.29960  0.84025  Biso   1.000  C
  H5       1.0000 0.12000  0.31350  0.32750  Biso   1.000  H
  H6       1.0000 0.88000  0.81350  0.17250  Biso   1.000  H
  H7       1.0000 0.88000  0.68650  0.67250  Biso   1.000  H
  H8       1.0000 0.12000  0.18650  0.82750  Biso   1.000  H
  C5       1.0000 0.89300  0.05900  0.31469  Biso   1.000  C
  C6       1.0000 0.10700  0.55900  0.18531  Biso   1.000  C
  C7       1.0000 0.10700  0.94100  0.68531  Biso   1.000  C
  C8       1.0000 0.89300  0.44100  0.81469  Biso   1.000  C
  C9       1.0000 0.83570  0.91260  0.34750  Biso   1.000  C
  C10      1.0000 0.16430  0.41260  0.15250  Biso   1.000  C
  C11      1.0000 0.16430  0.08740  0.65250  Biso   1.000  C
  C12      1.0000 0.83570  0.58740  0.84750  Biso   1.000  C
  C13      1.0000 0.70620  0.73540  0.34455  Biso   1.000  C
  C14      1.0000 0.29380  0.23540  0.15545  Biso   1.000  C
  C15      1.0000 0.29380  0.26460  0.65545  Biso   1.000  C
  C16      1.0000 0.70620  0.76460  0.84455  Biso   1.000  C
  H9       1.0000 0.61810  0.68450  0.31560  Biso   1.000  H
  H10      1.0000 0.38190  0.18450  0.18440  Biso   1.000  H
  H11      1.0000 0.38190  0.31550  0.68440  Biso   1.000  H
  H12      1.0000 0.61810  0.81550  0.81560  Biso   1.000  H
  C17      1.0000 0.71170  0.63560  0.38617  Biso   1.000  C
  C18      1.0000 0.28830  0.13560  0.11383  Biso   1.000  C
  C19      1.0000 0.28830  0.36440  0.61383  Biso   1.000  C
  C20      1.0000 0.71170  0.86440  0.88617  Biso   1.000  C
  H13      1.0000 0.63380  0.51170  0.38570  Biso   1.000  H
  H14      1.0000 0.36620  0.01170  0.11430  Biso   1.000  H
  H15      1.0000 0.36620  0.48830  0.61430  Biso   1.000  H
  H16      1.0000 0.63380  0.98830  0.88570  Biso   1.000  H
  C21      1.0000 0.83010  0.71510  0.42864  Biso   1.000  C
  C22      1.0000 0.16990  0.21510  0.07136  Biso   1.000  C
  C23      1.0000 0.16990  0.28490  0.57136  Biso   1.000  C
  C24      1.0000 0.83010  0.78490  0.92864  Biso   1.000  C
  H17      1.0000 0.82980  0.64160  0.45620  Biso   1.000  H
  H18      1.0000 0.17020  0.14160  0.04380  Biso   1.000  H
  H19      1.0000 0.17020  0.35840  0.54380  Biso   1.000  H
  H20      1.0000 0.82980  0.85840  0.95620  Biso   1.000  H
  C25      1.0000 0.95420  0.98050  0.39223  Biso   1.000  C
  C26      1.0000 0.04580  0.48050  0.10777  Biso   1.000  C
  C27      1.0000 0.04580  0.01950  0.60777  Biso   1.000  C
  C28      1.0000 0.95420  0.51950  0.89223  Biso   1.000  C
  C29      1.0000 0.80470  0.06760  0.26467  Biso   1.000  C
  C30      1.0000 0.19530  0.56760  0.23533  Biso   1.000  C
  C31      1.0000 0.19530  0.93240  0.73533  Biso   1.000  C
  C32      1.0000 0.80470  0.43240  0.76467  Biso   1.000  C
  H21      1.0000 0.86760  0.17550  0.24850  Biso   1.000  H
  H22      1.0000 0.13240  0.67550  0.25150  Biso   1.000  H
  H23      1.0000 0.13240  0.82450  0.75150  Biso   1.000  H
  H24      1.0000 0.86760  0.32450  0.74850  Biso   1.000  H
