data_image0
_cell_length_a       9.1081
_cell_length_b       9.1081
_cell_length_c       15.9432
_cell_angle_alpha    90
_cell_angle_beta     90
_cell_angle_gamma    120

_symmetry_space_group_name_H-M    "P 1"
_symmetry_int_tables_number       1

loop_
  _symmetry_equiv_pos_as_xyz
  'x, y, z'

loop_
  _atom_site_label
  _atom_site_occupancy
  _atom_site_fract_x
  _atom_site_fract_y
  _atom_site_fract_z
  _atom_site_thermal_displace_type
  _atom_site_B_iso_or_equiv
  _atom_site_type_symbol
  Cu1      1.0000 0.50000  0.00000  0.00000  Biso   1.000  Cu
  Cu2      1.0000 0.00000  0.50000  0.00000  Biso   1.000  Cu
  Cu3      1.0000 0.50000  0.50000  0.00000  Biso   1.000  Cu
  Cu4      1.0000 0.00000  0.50000  0.50000  Biso   1.000  Cu
  Cu5      1.0000 0.50000  0.50000  0.50000  Biso   1.000  Cu
  Cu6      1.0000 0.50000  0.00000  0.50000  Biso   1.000  Cu
  O1       1.0000 0.63603  0.05703  0.10016  Biso   1.000  O
  O2       1.0000 0.94297  0.57900  0.10016  Biso   1.000  O
  O3       1.0000 0.42100  0.36397  0.10016  Biso   1.000  O
  O4       1.0000 0.05703  0.42100  0.60016  Biso   1.000  O
  O5       1.0000 0.57900  0.63603  0.60016  Biso   1.000  O
  O6       1.0000 0.36397  0.94297  0.60016  Biso   1.000  O
  O7       1.0000 0.36397  0.94297  0.89984  Biso   1.000  O
  O8       1.0000 0.05703  0.42100  0.89984  Biso   1.000  O
  O9       1.0000 0.57900  0.63603  0.89984  Biso   1.000  O
  O10      1.0000 0.94297  0.57900  0.39984  Biso   1.000  O
  O11      1.0000 0.42100  0.36397  0.39984  Biso   1.000  O
  O12      1.0000 0.63603  0.05703  0.39984  Biso   1.000  O
  O13      1.0000 0.83859  0.26481  0.02614  Biso   1.000  O
  O14      1.0000 0.73519  0.57378  0.02614  Biso   1.000  O
  O15      1.0000 0.42622  0.16141  0.02614  Biso   1.000  O
  O16      1.0000 0.26481  0.42622  0.52614  Biso   1.000  O
  O17      1.0000 0.57378  0.83859  0.52614  Biso   1.000  O
  O18      1.0000 0.16141  0.73519  0.52614  Biso   1.000  O
  O19      1.0000 0.16141  0.73519  0.97386  Biso   1.000  O
  O20      1.0000 0.26481  0.42622  0.97386  Biso   1.000  O
  O21      1.0000 0.57378  0.83859  0.97386  Biso   1.000  O
  O22      1.0000 0.73519  0.57378  0.47386  Biso   1.000  O
  O23      1.0000 0.42622  0.16141  0.47386  Biso   1.000  O
  O24      1.0000 0.83859  0.26481  0.47386  Biso   1.000  O
  C1       1.0000 0.78277  0.18668  0.09498  Biso   1.000  C
  C2       1.0000 0.81332  0.59609  0.09498  Biso   1.000  C
  C3       1.0000 0.40391  0.21723  0.09498  Biso   1.000  C
  C4       1.0000 0.18668  0.40391  0.59498  Biso   1.000  C
  C5       1.0000 0.59609  0.78277  0.59498  Biso   1.000  C
  C6       1.0000 0.21723  0.81332  0.59498  Biso   1.000  C
  C7       1.0000 0.21723  0.81332  0.90502  Biso   1.000  C
  C8       1.0000 0.18668  0.40391  0.90502  Biso   1.000  C
  C9       1.0000 0.59609  0.78277  0.90502  Biso   1.000  C
  C10      1.0000 0.81332  0.59609  0.40502  Biso   1.000  C
  C11      1.0000 0.40391  0.21723  0.40502  Biso   1.000  C
  C12      1.0000 0.78277  0.18668  0.40502  Biso   1.000  C
  C13      1.0000 0.88392  0.24043  0.17411  Biso   1.000  C
  C14      1.0000 0.75957  0.64349  0.17411  Biso   1.000  C
  C15      1.0000 0.35651  0.11608  0.17411  Biso   1.000  C
  C16      1.0000 0.24043  0.35651  0.67411  Biso   1.000  C
  C17      1.0000 0.64349  0.88392  0.67411  Biso   1.000  C
  C18      1.0000 0.11608  0.75957  0.67411  Biso   1.000  C
  C19      1.0000 0.11608  0.75957  0.82589  Biso   1.000  C
  C20      1.0000 0.24043  0.35651  0.82589  Biso   1.000  C
  C21      1.0000 0.64349  0.88392  0.82589  Biso   1.000  C
  C22      1.0000 0.75957  0.64349  0.32589  Biso   1.000  C
  C23      1.0000 0.35651  0.11608  0.32589  Biso   1.000  C
  C24      1.0000 0.88392  0.24043  0.32589  Biso   1.000  C
  C25      1.0000 0.06102  0.33622  0.17399  Biso   1.000  C
  C26      1.0000 0.66378  0.72480  0.17399  Biso   1.000  C
  C27      1.0000 0.27520  0.93898  0.17399  Biso   1.000  C
  C28      1.0000 0.33622  0.27520  0.67399  Biso   1.000  C
  C29      1.0000 0.72480  0.06102  0.67399  Biso   1.000  C
  C30      1.0000 0.93898  0.66378  0.67399  Biso   1.000  C
  C31      1.0000 0.93898  0.66378  0.82601  Biso   1.000  C
  C32      1.0000 0.33622  0.27520  0.82601  Biso   1.000  C
  C33      1.0000 0.72480  0.06102  0.82601  Biso   1.000  C
  C34      1.0000 0.66378  0.72480  0.32601  Biso   1.000  C
  C35      1.0000 0.27520  0.93898  0.32601  Biso   1.000  C
  C36      1.0000 0.06102  0.33622  0.32601  Biso   1.000  C
  H1       1.0000 0.12140  0.36930  0.12240  Biso   1.000  H
  H2       1.0000 0.63070  0.75210  0.12240  Biso   1.000  H
  H3       1.0000 0.24790  0.87860  0.12240  Biso   1.000  H
  H4       1.0000 0.36930  0.24790  0.62240  Biso   1.000  H
  H5       1.0000 0.75210  0.12140  0.62240  Biso   1.000  H
  H6       1.0000 0.87860  0.63070  0.62240  Biso   1.000  H
  H7       1.0000 0.87860  0.63070  0.87760  Biso   1.000  H
  H8       1.0000 0.36930  0.24790  0.87760  Biso   1.000  H
  H9       1.0000 0.75210  0.12140  0.87760  Biso   1.000  H
  H10      1.0000 0.63070  0.75210  0.37760  Biso   1.000  H
  H11      1.0000 0.24790  0.87860  0.37760  Biso   1.000  H
  H12      1.0000 0.12140  0.36930  0.37760  Biso   1.000  H
  C37      1.0000 0.14850  0.38290  0.25000  Biso   1.000  C
  C38      1.0000 0.61710  0.76560  0.25000  Biso   1.000  C
  C39      1.0000 0.23440  0.85150  0.25000  Biso   1.000  C
  C40      1.0000 0.38290  0.23440  0.75000  Biso   1.000  C
  C41      1.0000 0.76560  0.14850  0.75000  Biso   1.000  C
  C42      1.0000 0.85150  0.61710  0.75000  Biso   1.000  C
  H13      1.0000 0.26890  0.44720  0.25000  Biso   1.000  H
  H14      1.0000 0.55280  0.82170  0.25000  Biso   1.000  H
  H15      1.0000 0.17830  0.73110  0.25000  Biso   1.000  H
  H16      1.0000 0.44720  0.17830  0.75000  Biso   1.000  H
  H17      1.0000 0.82170  0.26890  0.75000  Biso   1.000  H
  H18      1.0000 0.73110  0.55280  0.75000  Biso   1.000  H
  C43      1.0000 0.79620  0.19150  0.25000  Biso   1.000  C
  C44      1.0000 0.80850  0.60470  0.25000  Biso   1.000  C
  C45      1.0000 0.39530  0.20380  0.25000  Biso   1.000  C
  C46      1.0000 0.19150  0.39530  0.75000  Biso   1.000  C
  C47      1.0000 0.60470  0.79620  0.75000  Biso   1.000  C
  C48      1.0000 0.20380  0.80850  0.75000  Biso   1.000  C
  H19      1.0000 0.67600  0.12460  0.25000  Biso   1.000  H
  H20      1.0000 0.87540  0.55140  0.25000  Biso   1.000  H
  H21      1.0000 0.44860  0.32400  0.25000  Biso   1.000  H
  H22      1.0000 0.12460  0.44860  0.75000  Biso   1.000  H
  H23      1.0000 0.55140  0.67600  0.75000  Biso   1.000  H
  H24      1.0000 0.32400  0.87540  0.75000  Biso   1.000  H
