data_image0
_cell_length_a       6.7636
_cell_length_b       10.9341
_cell_length_c       10.8572
_cell_angle_alpha    90
_cell_angle_beta     91.933
_cell_angle_gamma    90

_symmetry_space_group_name_H-M    "P 1"
_symmetry_int_tables_number       1

loop_
  _symmetry_equiv_pos_as_xyz
  'x, y, z'

loop_
  _atom_site_label
  _atom_site_occupancy
  _atom_site_fract_x
  _atom_site_fract_y
  _atom_site_fract_z
  _atom_site_thermal_displace_type
  _atom_site_B_iso_or_equiv
  _atom_site_type_symbol
  Cu1      1.0000 0.65586  0.48910  0.23261  Biso   1.000  Cu
  Cu2      1.0000 0.15586  0.51090  0.73261  Biso   1.000  Cu
  O1       1.0000 0.66540  0.31230  0.22150  Biso   1.000  O
  O2       1.0000 0.16540  0.68770  0.72150  Biso   1.000  O
  O3       1.0000 0.48990  0.30530  0.04440  Biso   1.000  O
  O4       1.0000 0.98990  0.69470  0.54440  Biso   1.000  O
  O5       1.0000 0.23980  0.22670  0.25610  Biso   1.000  O
  O6       1.0000 0.73980  0.77330  0.75610  Biso   1.000  O
  O7       1.0000 0.12350  0.04260  0.30060  Biso   1.000  O
  O8       1.0000 0.62350  0.95740  0.80060  Biso   1.000  O
  H1       1.0000 0.02980  0.08390  0.33020  Biso   1.000  H
  H2       1.0000 0.52980  0.91610  0.83020  Biso   1.000  H
  O9       1.0000 0.52050  0.67720  0.06480  Biso   1.000  O
  O10      1.0000 0.02050  0.32280  0.56480  Biso   1.000  O
  O11      1.0000 0.65590  0.66620  0.25260  Biso   1.000  O
  O12      1.0000 0.15590  0.33380  0.75260  Biso   1.000  O
  O13      1.0000 0.95880  0.75860  0.07200  Biso   1.000  O
  O14      1.0000 0.45880  0.24140  0.57200  Biso   1.000  O
  O15      1.0000 0.04330  0.93940  0.99770  Biso   1.000  O
  O16      1.0000 0.54330  0.06060  0.49770  Biso   1.000  O
  H3       1.0000 0.14720  0.90840  0.96960  Biso   1.000  H
  H4       1.0000 0.64720  0.09160  0.46960  Biso   1.000  H
  O17      1.0000 0.88580  0.50050  0.12180  Biso   1.000  O
  O18      1.0000 0.38580  0.49950  0.62180  Biso   1.000  O
  H5       1.0000 0.90170  0.56920  0.08650  Biso   1.000  H
  H6       1.0000 0.40170  0.43080  0.58650  Biso   1.000  H
  H7       1.0000 0.90290  0.43690  0.07830  Biso   1.000  H
  H8       1.0000 0.40290  0.56310  0.57830  Biso   1.000  H
  O19      1.0000 0.38880  0.47460  0.29740  Biso   1.000  O
  O20      1.0000 0.88880  0.52540  0.79740  Biso   1.000  O
  H9       1.0000 0.33490  0.40640  0.27850  Biso   1.000  H
  H10      1.0000 0.83490  0.59360  0.77850  Biso   1.000  H
  H11      1.0000 0.31110  0.53560  0.30260  Biso   1.000  H
  H12      1.0000 0.81110  0.46440  0.80260  Biso   1.000  H
  O21      1.0000 0.81780  0.48650  0.41520  Biso   1.000  O
  O22      1.0000 0.31780  0.51350  0.91520  Biso   1.000  O
  H13      1.0000 0.85730  0.55580  0.44250  Biso   1.000  H
  H14      1.0000 0.35730  0.44420  0.94250  Biso   1.000  H
  H15      1.0000 0.84220  0.42510  0.46150  Biso   1.000  H
  H16      1.0000 0.34220  0.57490  0.96150  Biso   1.000  H
  C1       1.0000 0.57060  0.25630  0.13400  Biso   1.000  C
  C2       1.0000 0.07060  0.74370  0.63400  Biso   1.000  C
  C3       1.0000 0.57580  0.11840  0.14540  Biso   1.000  C
  C4       1.0000 0.07580  0.88160  0.64540  Biso   1.000  C
  C5       1.0000 0.42720  0.05130  0.20250  Biso   1.000  C
  C6       1.0000 0.92720  0.94870  0.70250  Biso   1.000  C
  C7       1.0000 0.25630  0.11630  0.25570  Biso   1.000  C
  C8       1.0000 0.75630  0.88370  0.75570  Biso   1.000  C
  C9       1.0000 0.44110  0.92460  0.20960  Biso   1.000  C
  C10      1.0000 0.94110  0.07540  0.70960  Biso   1.000  C
  H17      1.0000 0.34220  0.88030  0.24700  Biso   1.000  H
  H18      1.0000 0.84220  0.11970  0.74700  Biso   1.000  H
  C11      1.0000 0.60110  0.86320  0.16160  Biso   1.000  C
  C12      1.0000 0.10110  0.13680  0.66160  Biso   1.000  C
  C13      1.0000 0.59290  0.72520  0.15800  Biso   1.000  C
  C14      1.0000 0.09290  0.27480  0.65800  Biso   1.000  C
  C15      1.0000 0.74990  0.93020  0.10690  Biso   1.000  C
  C16      1.0000 0.24990  0.06980  0.60690  Biso   1.000  C
  C17      1.0000 0.92630  0.86630  0.05680  Biso   1.000  C
  C18      1.0000 0.42630  0.13370  0.55680  Biso   1.000  C
  C19      1.0000 0.73640  0.05700  0.09810  Biso   1.000  C
  C20      1.0000 0.23640  0.94300  0.59810  Biso   1.000  C
  H19      1.0000 0.83540  0.10090  0.06030  Biso   1.000  H
  H20      1.0000 0.33540  0.89910  0.56030  Biso   1.000  H
  O23      1.0000 0.84260  0.17340  0.39930  Biso   1.000  O
  O24      1.0000 0.34260  0.82660  0.89930  Biso   1.000  O
  H21      1.0000 0.89140  0.22140  0.45360  Biso   1.000  H
  H22      1.0000 0.39140  0.77860  0.95360  Biso   1.000  H
  H23      1.0000 0.78570  0.20530  0.33630  Biso   1.000  H
  H24      1.0000 0.28570  0.79470  0.83630  Biso   1.000  H
  O25      1.0000 0.52660  0.70330  0.51010  Biso   1.000  O
  O26      1.0000 0.02660  0.29670  0.01010  Biso   1.000  O
  H25      1.0000 0.55440  0.71470  0.43410  Biso   1.000  H
  H26      1.0000 0.05440  0.28530  0.93410  Biso   1.000  H
  H27      1.0000 0.61930  0.65550  0.56240  Biso   1.000  H
  H28      1.0000 0.11930  0.34450  0.06240  Biso   1.000  H
  O27      1.0000 0.16890  0.68090  0.30650  Biso   1.000  O
  O28      1.0000 0.66890  0.31910  0.80650  Biso   1.000  O
  H29      1.0000 0.13030  0.67520  0.38010  Biso   1.000  H
  H30      1.0000 0.63030  0.32480  0.88010  Biso   1.000  H
  H31      1.0000 0.08110  0.70000  0.25170  Biso   1.000  H
  H32      1.0000 0.58110  0.30000  0.75170  Biso   1.000  H
