data_image0
_cell_length_a       6.7846
_cell_length_b       10.9535
_cell_length_c       10.6835
_cell_angle_alpha    90
_cell_angle_beta     91.81
_cell_angle_gamma    90

_symmetry_space_group_name_H-M    "P 1"
_symmetry_int_tables_number       1

loop_
  _symmetry_equiv_pos_as_xyz
  'x, y, z'

loop_
  _atom_site_label
  _atom_site_occupancy
  _atom_site_fract_x
  _atom_site_fract_y
  _atom_site_fract_z
  _atom_site_thermal_displace_type
  _atom_site_B_iso_or_equiv
  _atom_site_type_symbol
  Cu1      1.0000 0.76183  0.48926  0.30815  Biso   1.000  Cu
  Cu2      1.0000 0.26183  0.51074  0.80815  Biso   1.000  Cu
  C1       1.0000 0.70770  0.86360  0.23700  Biso   1.000  C
  C2       1.0000 0.20770  0.13640  0.73700  Biso   1.000  C
  C3       1.0000 0.85770  0.93050  0.18110  Biso   1.000  C
  C4       1.0000 0.35770  0.06950  0.68110  Biso   1.000  C
  C5       1.0000 0.84300  0.05730  0.17140  Biso   1.000  C
  C6       1.0000 0.34300  0.94270  0.67140  Biso   1.000  C
  H1       1.0000 0.94410  0.10210  0.13260  Biso   1.000  H
  H2       1.0000 0.44410  0.89790  0.63260  Biso   1.000  H
  C7       1.0000 0.68130  0.11850  0.21820  Biso   1.000  C
  C8       1.0000 0.18130  0.88150  0.71820  Biso   1.000  C
  C9       1.0000 0.53310  0.05190  0.27580  Biso   1.000  C
  C10      1.0000 0.03310  0.94810  0.77580  Biso   1.000  C
  C11      1.0000 0.54690  0.92500  0.28490  Biso   1.000  C
  C12      1.0000 0.04690  0.07500  0.78490  Biso   1.000  C
  H3       1.0000 0.44600  0.88030  0.32410  Biso   1.000  H
  H4       1.0000 0.94600  0.11970  0.82410  Biso   1.000  H
  C13      1.0000 0.70070  0.72550  0.23350  Biso   1.000  C
  C14      1.0000 0.20070  0.27450  0.73350  Biso   1.000  C
  C15      1.0000 0.03370  0.86640  0.13170  Biso   1.000  C
  C16      1.0000 0.53370  0.13360  0.63170  Biso   1.000  C
  C17      1.0000 0.67620  0.25600  0.20600  Biso   1.000  C
  C18      1.0000 0.17620  0.74400  0.70600  Biso   1.000  C
  C19      1.0000 0.36080  0.11660  0.32870  Biso   1.000  C
  C20      1.0000 0.86080  0.88340  0.82870  Biso   1.000  C
  O1       1.0000 0.63030  0.67768  0.13688  Biso   1.000  O
  O2       1.0000 0.13030  0.32232  0.63688  Biso   1.000  O
  O3       1.0000 0.76000  0.66650  0.33000  Biso   1.000  O
  O4       1.0000 0.26000  0.33350  0.83000  Biso   1.000  O
  O5       1.0000 0.06440  0.75791  0.14660  Biso   1.000  O
  O6       1.0000 0.56440  0.24209  0.64660  Biso   1.000  O
  O7       1.0000 0.15190  0.93993  0.07205  Biso   1.000  O
  O8       1.0000 0.65190  0.06007  0.57205  Biso   1.000  O
  H5       1.0000 0.24500  0.90900  0.04800  Biso   1.000  H
  H6       1.0000 0.74500  0.09100  0.54800  Biso   1.000  H
  O9       1.0000 0.59480  0.30471  0.11443  Biso   1.000  O
  O10      1.0000 0.09480  0.69529  0.61443  Biso   1.000  O
  O11      1.0000 0.76980  0.31239  0.29550  Biso   1.000  O
  O12      1.0000 0.26980  0.68761  0.79550  Biso   1.000  O
  O13      1.0000 0.34450  0.22747  0.32770  Biso   1.000  O
  O14      1.0000 0.84450  0.77253  0.82770  Biso   1.000  O
  O15      1.0000 0.22840  0.04273  0.37434  Biso   1.000  O
  O16      1.0000 0.72840  0.95727  0.87434  Biso   1.000  O
  H7       1.0000 0.14400  0.07500  0.40000  Biso   1.000  H
  H8       1.0000 0.64400  0.92500  0.90000  Biso   1.000  H
  O17      1.0000 0.91710  0.48837  0.49430  Biso   1.000  O
  O18      1.0000 0.41710  0.51163  0.99430  Biso   1.000  O
  H9       1.0000 0.95200  0.55440  0.52800  Biso   1.000  H
  H10      1.0000 0.45200  0.44560  0.02800  Biso   1.000  H
  H11      1.0000 0.97100  0.43260  0.53700  Biso   1.000  H
  H12      1.0000 0.47100  0.56740  0.03700  Biso   1.000  H
  O19      1.0000 0.99070  0.50110  0.19730  Biso   1.000  O
  O20      1.0000 0.49070  0.49890  0.69730  Biso   1.000  O
  H13      1.0000 0.02200  0.43960  0.15500  Biso   1.000  H
  H14      1.0000 0.52200  0.56040  0.65500  Biso   1.000  H
  H15      1.0000 0.00100  0.56090  0.15000  Biso   1.000  H
  H16      1.0000 0.50100  0.43910  0.65000  Biso   1.000  H
  O21      1.0000 0.49330  0.47500  0.37540  Biso   1.000  O
  O22      1.0000 0.99330  0.52500  0.87540  Biso   1.000  O
  H17      1.0000 0.40600  0.52900  0.37500  Biso   1.000  H
  H18      1.0000 0.90600  0.47100  0.87500  Biso   1.000  H
  H19      1.0000 0.43600  0.40980  0.35700  Biso   1.000  H
  H20      1.0000 0.93600  0.59020  0.85700  Biso   1.000  H
  O23      1.0000 0.12680  0.29584  0.08627  Biso   1.000  O
  O24      1.0000 0.62680  0.70416  0.58627  Biso   1.000  O
  H21      1.0000 0.16300  0.29300  0.01220  Biso   1.000  H
  H22      1.0000 0.66300  0.70700  0.51220  Biso   1.000  H
  H23      1.0000 0.22800  0.29100  0.13200  Biso   1.000  H
  H24      1.0000 0.72800  0.70900  0.63200  Biso   1.000  H
  O25      1.0000 0.28030  0.68048  0.37682  Biso   1.000  O
  O26      1.0000 0.78030  0.31952  0.87682  Biso   1.000  O
  H25      1.0000 0.19200  0.68700  0.32000  Biso   1.000  H
  H26      1.0000 0.69200  0.31300  0.82000  Biso   1.000  H
  H27      1.0000 0.22700  0.69300  0.44530  Biso   1.000  H
  H28      1.0000 0.72700  0.30700  0.94530  Biso   1.000  H
  O27      1.0000 0.44830  0.82649  0.97265  Biso   1.000  O
  O28      1.0000 0.94830  0.17351  0.47265  Biso   1.000  O
  H29      1.0000 0.50300  0.77900  0.02200  Biso   1.000  H
  H30      1.0000 0.00300  0.22100  0.52200  Biso   1.000  H
  H31      1.0000 0.40100  0.79100  0.91130  Biso   1.000  H
  H32      1.0000 0.90100  0.20900  0.41130  Biso   1.000  H
