data_image0
_cell_length_a       6.763
_cell_length_b       10.923
_cell_length_c       10.857
_cell_angle_alpha    90
_cell_angle_beta     91.925
_cell_angle_gamma    90

_symmetry_space_group_name_H-M    "P 1"
_symmetry_int_tables_number       1

loop_
  _symmetry_equiv_pos_as_xyz
  'x, y, z'

loop_
  _atom_site_label
  _atom_site_occupancy
  _atom_site_fract_x
  _atom_site_fract_y
  _atom_site_fract_z
  _atom_site_thermal_displace_type
  _atom_site_B_iso_or_equiv
  _atom_site_type_symbol
  Cu1      1.0000 0.33190  0.48900  0.49870  Biso   1.000  Cu
  Cu2      1.0000 0.83190  0.51100  0.99870  Biso   1.000  Cu
  O1       1.0000 0.34160  0.31160  0.48810  Biso   1.000  O
  O2       1.0000 0.84160  0.68840  0.98810  Biso   1.000  O
  O3       1.0000 0.16390  0.30550  0.31100  Biso   1.000  O
  O4       1.0000 0.66390  0.69450  0.81100  Biso   1.000  O
  O5       1.0000 0.91570  0.22690  0.52290  Biso   1.000  O
  O6       1.0000 0.41570  0.77310  0.02290  Biso   1.000  O
  O7       1.0000 0.79890  0.04210  0.56650  Biso   1.000  O
  O8       1.0000 0.29890  0.95790  0.06650  Biso   1.000  O
  O9       1.0000 0.33090  0.66630  0.52000  Biso   1.000  O
  O10      1.0000 0.83090  0.33370  0.02000  Biso   1.000  O
  O11      1.0000 0.19660  0.67700  0.33150  Biso   1.000  O
  O12      1.0000 0.69660  0.32300  0.83150  Biso   1.000  O
  O13      1.0000 0.71890  0.93980  0.26430  Biso   1.000  O
  O14      1.0000 0.21890  0.06020  0.76430  Biso   1.000  O
  O15      1.0000 0.63500  0.75820  0.33890  Biso   1.000  O
  O16      1.0000 0.13500  0.24180  0.83890  Biso   1.000  O
  O17      1.0000 0.06610  0.47490  0.56850  Biso   1.000  O
  O18      1.0000 0.56610  0.52510  0.06850  Biso   1.000  O
  O19      1.0000 0.55990  0.50120  0.38800  Biso   1.000  O
  O20      1.0000 0.05990  0.49880  0.88800  Biso   1.000  O
  O21      1.0000 0.49350  0.48680  0.68090  Biso   1.000  O
  O22      1.0000 0.99350  0.51320  0.18090  Biso   1.000  O
  C1       1.0000 0.25080  0.11810  0.41230  Biso   1.000  C
  C2       1.0000 0.75080  0.88190  0.91230  Biso   1.000  C
  C3       1.0000 0.10220  0.05240  0.46980  Biso   1.000  C
  C4       1.0000 0.60220  0.94760  0.96980  Biso   1.000  C
  C5       1.0000 0.11780  0.92440  0.47730  Biso   1.000  C
  C6       1.0000 0.61780  0.07560  0.97730  Biso   1.000  C
  C7       1.0000 0.27640  0.86280  0.42870  Biso   1.000  C
  C8       1.0000 0.77640  0.13720  0.92870  Biso   1.000  C
  C9       1.0000 0.42620  0.93000  0.37330  Biso   1.000  C
  C10      1.0000 0.92620  0.07000  0.87330  Biso   1.000  C
  C11      1.0000 0.41250  0.05740  0.36450  Biso   1.000  C
  C12      1.0000 0.91250  0.94260  0.86450  Biso   1.000  C
  C13      1.0000 0.24630  0.25690  0.40090  Biso   1.000  C
  C14      1.0000 0.74630  0.74310  0.90090  Biso   1.000  C
  C15      1.0000 0.93160  0.11630  0.52170  Biso   1.000  C
  C16      1.0000 0.43160  0.88370  0.02170  Biso   1.000  C
  C17      1.0000 0.26880  0.72510  0.42510  Biso   1.000  C
  C18      1.0000 0.76880  0.27490  0.92510  Biso   1.000  C
  C19      1.0000 0.60270  0.86660  0.32370  Biso   1.000  C
  C20      1.0000 0.10270  0.13340  0.82370  Biso   1.000  C
  H1       1.0000 0.01980  0.88010  0.51570  Biso   1.000  H
  H2       1.0000 0.51980  0.11990  0.01570  Biso   1.000  H
  H3       1.0000 0.70810  0.08240  0.59410  Biso   1.000  H
  H4       1.0000 0.20810  0.91760  0.09410  Biso   1.000  H
  H5       1.0000 0.51140  0.10170  0.32710  Biso   1.000  H
  H6       1.0000 0.01140  0.89830  0.82710  Biso   1.000  H
  H7       1.0000 0.81300  0.90080  0.23910  Biso   1.000  H
  H8       1.0000 0.31300  0.09920  0.73910  Biso   1.000  H
  H9       1.0000 0.97810  0.41620  0.56630  Biso   1.000  H
  H10      1.0000 0.47810  0.58380  0.06630  Biso   1.000  H
  H11      1.0000 0.96050  0.52010  0.56920  Biso   1.000  H
  H12      1.0000 0.46050  0.47990  0.06920  Biso   1.000  H
  H13      1.0000 0.58640  0.56590  0.35120  Biso   1.000  H
  H14      1.0000 0.08640  0.43410  0.85120  Biso   1.000  H
  H15      1.0000 0.59160  0.43200  0.35850  Biso   1.000  H
  H16      1.0000 0.09160  0.56800  0.85850  Biso   1.000  H
  H17      1.0000 0.56350  0.42410  0.72550  Biso   1.000  H
  H18      1.0000 0.06350  0.57590  0.22550  Biso   1.000  H
  H19      1.0000 0.56490  0.53920  0.62780  Biso   1.000  H
  H20      1.0000 0.06490  0.46080  0.12780  Biso   1.000  H
  O23      1.0000 0.01760  0.82650  0.16590  Biso   1.000  O
  O24      1.0000 0.51760  0.17350  0.66590  Biso   1.000  O
  H21      1.0000 0.94680  0.79220  0.11080  Biso   1.000  H
  H22      1.0000 0.44680  0.20780  0.61080  Biso   1.000  H
  H23      1.0000 0.06240  0.79760  0.23520  Biso   1.000  H
  H24      1.0000 0.56240  0.20240  0.73520  Biso   1.000  H
  O25      1.0000 0.84400  0.68040  0.57410  Biso   1.000  O
  O26      1.0000 0.34400  0.31960  0.07410  Biso   1.000  O
  H25      1.0000 0.73710  0.69480  0.52990  Biso   1.000  H
  H26      1.0000 0.23710  0.30520  0.02990  Biso   1.000  H
  H27      1.0000 0.78490  0.67750  0.64330  Biso   1.000  H
  H28      1.0000 0.28490  0.32250  0.14330  Biso   1.000  H
  O27      1.0000 0.70200  0.29620  0.27680  Biso   1.000  O
  O28      1.0000 0.20200  0.70380  0.77680  Biso   1.000  O
  H29      1.0000 0.72140  0.31240  0.18970  Biso   1.000  H
  H30      1.0000 0.22140  0.68760  0.68970  Biso   1.000  H
  H31      1.0000 0.79200  0.30420  0.33330  Biso   1.000  H
  H32      1.0000 0.29200  0.69580  0.83330  Biso   1.000  H
