data_image0
_cell_length_a       18.0115
_cell_length_b       28.266
_cell_length_c       8.9916
_cell_angle_alpha    90
_cell_angle_beta     114.122
_cell_angle_gamma    90

_symmetry_space_group_name_H-M    "P 1"
_symmetry_int_tables_number       1

loop_
  _symmetry_equiv_pos_as_xyz
  'x, y, z'

loop_
  _atom_site_label
  _atom_site_occupancy
  _atom_site_fract_x
  _atom_site_fract_y
  _atom_site_fract_z
  _atom_site_thermal_displace_type
  _atom_site_B_iso_or_equiv
  _atom_site_type_symbol
  Cu1      1.0000 0.18446  0.05251  0.12714  Biso   1.000  Cu
  Cu2      1.0000 0.68446  0.55251  0.12714  Biso   1.000  Cu
  Cu3      1.0000 0.81554  0.05251  0.37286  Biso   1.000  Cu
  Cu4      1.0000 0.31554  0.55251  0.37286  Biso   1.000  Cu
  Cu5      1.0000 0.81554  0.94749  0.87286  Biso   1.000  Cu
  Cu6      1.0000 0.31554  0.44749  0.87286  Biso   1.000  Cu
  Cu7      1.0000 0.18446  0.94749  0.62714  Biso   1.000  Cu
  Cu8      1.0000 0.68446  0.44749  0.62714  Biso   1.000  Cu
  N1       1.0000 0.28020  0.06540  0.34120  Biso   1.000  N
  N2       1.0000 0.78020  0.56540  0.34120  Biso   1.000  N
  N3       1.0000 0.71980  0.06540  0.15880  Biso   1.000  N
  N4       1.0000 0.21980  0.56540  0.15880  Biso   1.000  N
  N5       1.0000 0.71980  0.93460  0.65880  Biso   1.000  N
  N6       1.0000 0.21980  0.43460  0.65880  Biso   1.000  N
  N7       1.0000 0.28020  0.93460  0.84120  Biso   1.000  N
  N8       1.0000 0.78020  0.43460  0.84120  Biso   1.000  N
  H1       1.0000 0.27480  0.04420  0.41510  Biso   1.000  H
  H2       1.0000 0.77480  0.54420  0.41510  Biso   1.000  H
  H3       1.0000 0.72520  0.04420  0.08490  Biso   1.000  H
  H4       1.0000 0.22520  0.54420  0.08490  Biso   1.000  H
  H5       1.0000 0.72520  0.95580  0.58490  Biso   1.000  H
  H6       1.0000 0.22520  0.45580  0.58490  Biso   1.000  H
  H7       1.0000 0.27480  0.95580  0.91510  Biso   1.000  H
  H8       1.0000 0.77480  0.45580  0.91510  Biso   1.000  H
  O1       1.0000 0.41800  0.34150  0.09350  Biso   1.000  O
  O2       1.0000 0.91800  0.84150  0.09350  Biso   1.000  O
  O3       1.0000 0.58200  0.34150  0.40650  Biso   1.000  O
  O4       1.0000 0.08200  0.84150  0.40650  Biso   1.000  O
  O5       1.0000 0.58200  0.65850  0.90650  Biso   1.000  O
  O6       1.0000 0.08200  0.15850  0.90650  Biso   1.000  O
  O7       1.0000 0.41800  0.65850  0.59350  Biso   1.000  O
  O8       1.0000 0.91800  0.15850  0.59350  Biso   1.000  O
  H9       1.0000 0.45480  0.34880  0.19750  Biso   1.000  H
  H10      1.0000 0.95480  0.84880  0.19750  Biso   1.000  H
  H11      1.0000 0.54520  0.34880  0.30250  Biso   1.000  H
  H12      1.0000 0.04520  0.84880  0.30250  Biso   1.000  H
  H13      1.0000 0.54520  0.65120  0.80250  Biso   1.000  H
  H14      1.0000 0.04520  0.15120  0.80250  Biso   1.000  H
  H15      1.0000 0.45480  0.65120  0.69750  Biso   1.000  H
  H16      1.0000 0.95480  0.15120  0.69750  Biso   1.000  H
  O9       1.0000 0.43830  0.30020  0.40240  Biso   1.000  O
  O10      1.0000 0.93830  0.80020  0.40240  Biso   1.000  O
  O11      1.0000 0.56170  0.30020  0.09760  Biso   1.000  O
  O12      1.0000 0.06170  0.80020  0.09760  Biso   1.000  O
  O13      1.0000 0.56170  0.69980  0.59760  Biso   1.000  O
  O14      1.0000 0.06170  0.19980  0.59760  Biso   1.000  O
  O15      1.0000 0.43830  0.69980  0.90240  Biso   1.000  O
  O16      1.0000 0.93830  0.19980  0.90240  Biso   1.000  O
  H17      1.0000 0.47460  0.31640  0.39590  Biso   1.000  H
  H18      1.0000 0.97460  0.81640  0.39590  Biso   1.000  H
  H19      1.0000 0.52540  0.31640  0.10410  Biso   1.000  H
  H20      1.0000 0.02540  0.81640  0.10410  Biso   1.000  H
  H21      1.0000 0.52540  0.68360  0.60410  Biso   1.000  H
  H22      1.0000 0.02540  0.18360  0.60410  Biso   1.000  H
  H23      1.0000 0.47460  0.68360  0.89590  Biso   1.000  H
  H24      1.0000 0.97460  0.18360  0.89590  Biso   1.000  H
  O17      1.0000 0.20490  0.20250  0.30280  Biso   1.000  O
  O18      1.0000 0.70490  0.70250  0.30280  Biso   1.000  O
  O19      1.0000 0.79510  0.20250  0.19720  Biso   1.000  O
  O20      1.0000 0.29510  0.70250  0.19720  Biso   1.000  O
  O21      1.0000 0.79510  0.79750  0.69720  Biso   1.000  O
  O22      1.0000 0.29510  0.29750  0.69720  Biso   1.000  O
  O23      1.0000 0.20490  0.79750  0.80280  Biso   1.000  O
  O24      1.0000 0.70490  0.29750  0.80280  Biso   1.000  O
  O25      1.0000 0.13660  0.10860  0.16700  Biso   1.000  O
  O26      1.0000 0.63660  0.60860  0.16700  Biso   1.000  O
  O27      1.0000 0.86340  0.10860  0.33300  Biso   1.000  O
  O28      1.0000 0.36340  0.60860  0.33300  Biso   1.000  O
  O29      1.0000 0.86340  0.89140  0.83300  Biso   1.000  O
  O30      1.0000 0.36340  0.39140  0.83300  Biso   1.000  O
  O31      1.0000 0.13660  0.89140  0.66700  Biso   1.000  O
  O32      1.0000 0.63660  0.39140  0.66700  Biso   1.000  O
  O33      1.0000 0.09610  0.04090  0.90930  Biso   1.000  O
  O34      1.0000 0.59610  0.54090  0.90930  Biso   1.000  O
  O35      1.0000 0.90390  0.04090  0.59070  Biso   1.000  O
  O36      1.0000 0.40390  0.54090  0.59070  Biso   1.000  O
  O37      1.0000 0.90390  0.95910  0.09070  Biso   1.000  O
  O38      1.0000 0.40390  0.45910  0.09070  Biso   1.000  O
  O39      1.0000 0.09610  0.95910  0.40930  Biso   1.000  O
  O40      1.0000 0.59610  0.45910  0.40930  Biso   1.000  O
  O41      1.0000 0.21750  0.00920  0.99060  Biso   1.000  O
  O42      1.0000 0.71750  0.50920  0.99060  Biso   1.000  O
  O43      1.0000 0.78250  0.00920  0.50940  Biso   1.000  O
  O44      1.0000 0.28250  0.50920  0.50940  Biso   1.000  O
  O45      1.0000 0.78250  0.99080  0.00940  Biso   1.000  O
  O46      1.0000 0.28250  0.49080  0.00940  Biso   1.000  O
  O47      1.0000 0.21750  0.99080  0.49060  Biso   1.000  O
  O48      1.0000 0.71750  0.49080  0.49060  Biso   1.000  O
  O49      1.0000 0.11050  0.98370  0.75800  Biso   1.000  O
  O50      1.0000 0.61050  0.48370  0.75800  Biso   1.000  O
  O51      1.0000 0.88950  0.98370  0.74200  Biso   1.000  O
  O52      1.0000 0.38950  0.48370  0.74200  Biso   1.000  O
  O53      1.0000 0.88950  0.01630  0.24200  Biso   1.000  O
  O54      1.0000 0.38950  0.51630  0.24200  Biso   1.000  O
  O55      1.0000 0.11050  0.01630  0.25800  Biso   1.000  O
  O56      1.0000 0.61050  0.51630  0.25800  Biso   1.000  O
  O57      1.0000 0.13280  0.00500  0.71800  Biso   1.000  O
  O58      1.0000 0.63280  0.50500  0.71800  Biso   1.000  O
  O59      1.0000 0.86720  0.00500  0.78200  Biso   1.000  O
  O60      1.0000 0.36720  0.50500  0.78200  Biso   1.000  O
  O61      1.0000 0.86720  0.99500  0.28200  Biso   1.000  O
  O62      1.0000 0.36720  0.49500  0.28200  Biso   1.000  O
  O63      1.0000 0.13280  0.99500  0.21800  Biso   1.000  O
  O64      1.0000 0.63280  0.49500  0.21800  Biso   1.000  O
  C1       1.0000 0.18940  0.24930  0.26820  Biso   1.000  C
  C2       1.0000 0.68940  0.74930  0.26820  Biso   1.000  C
  C3       1.0000 0.81060  0.24930  0.23180  Biso   1.000  C
  C4       1.0000 0.31060  0.74930  0.23180  Biso   1.000  C
  C5       1.0000 0.81060  0.75070  0.73180  Biso   1.000  C
  C6       1.0000 0.31060  0.25070  0.73180  Biso   1.000  C
  C7       1.0000 0.18940  0.75070  0.76820  Biso   1.000  C
  C8       1.0000 0.68940  0.25070  0.76820  Biso   1.000  C
  C9       1.0000 0.11660  0.27130  0.25320  Biso   1.000  C
  C10      1.0000 0.61660  0.77130  0.25320  Biso   1.000  C
  C11      1.0000 0.88340  0.27130  0.24680  Biso   1.000  C
  C12      1.0000 0.38340  0.77130  0.24680  Biso   1.000  C
  C13      1.0000 0.88340  0.72870  0.74680  Biso   1.000  C
  C14      1.0000 0.38340  0.22870  0.74680  Biso   1.000  C
  C15      1.0000 0.11660  0.72870  0.75320  Biso   1.000  C
  C16      1.0000 0.61660  0.22870  0.75320  Biso   1.000  C
  H25      1.0000 0.07670  0.25480  0.27670  Biso   1.000  H
  H26      1.0000 0.57670  0.75480  0.27670  Biso   1.000  H
  H27      1.0000 0.92330  0.25480  0.22330  Biso   1.000  H
  H28      1.0000 0.42330  0.75480  0.22330  Biso   1.000  H
  H29      1.0000 0.92330  0.74520  0.72330  Biso   1.000  H
  H30      1.0000 0.42330  0.24520  0.72330  Biso   1.000  H
  H31      1.0000 0.07670  0.74520  0.77670  Biso   1.000  H
  H32      1.0000 0.57670  0.24520  0.77670  Biso   1.000  H
  C17      1.0000 0.10550  0.31850  0.20210  Biso   1.000  C
  C18      1.0000 0.60550  0.81850  0.20210  Biso   1.000  C
  C19      1.0000 0.89450  0.31850  0.29790  Biso   1.000  C
  C20      1.0000 0.39450  0.81850  0.29790  Biso   1.000  C
  C21      1.0000 0.89450  0.68150  0.79790  Biso   1.000  C
  C22      1.0000 0.39450  0.18150  0.79790  Biso   1.000  C
  C23      1.0000 0.10550  0.68150  0.70210  Biso   1.000  C
  C24      1.0000 0.60550  0.18150  0.70210  Biso   1.000  C
  H33      1.0000 0.05630  0.33380  0.18910  Biso   1.000  H
  H34      1.0000 0.55630  0.83380  0.18910  Biso   1.000  H
  H35      1.0000 0.94370  0.33380  0.31090  Biso   1.000  H
  H36      1.0000 0.44370  0.83380  0.31090  Biso   1.000  H
  H37      1.0000 0.94370  0.66620  0.81090  Biso   1.000  H
  H38      1.0000 0.44370  0.16620  0.81090  Biso   1.000  H
  H39      1.0000 0.05630  0.66620  0.68910  Biso   1.000  H
  H40      1.0000 0.55630  0.16620  0.68910  Biso   1.000  H
  C25      1.0000 0.16320  0.34410  0.16920  Biso   1.000  C
  C26      1.0000 0.66320  0.84410  0.16920  Biso   1.000  C
  C27      1.0000 0.83680  0.34410  0.33080  Biso   1.000  C
  C28      1.0000 0.33680  0.84410  0.33080  Biso   1.000  C
  C29      1.0000 0.83680  0.65590  0.83080  Biso   1.000  C
  C30      1.0000 0.33680  0.15590  0.83080  Biso   1.000  C
  C31      1.0000 0.16320  0.65590  0.66920  Biso   1.000  C
  C32      1.0000 0.66320  0.15590  0.66920  Biso   1.000  C
  H41      1.0000 0.15380  0.37600  0.13400  Biso   1.000  H
  H42      1.0000 0.65380  0.87600  0.13400  Biso   1.000  H
  H43      1.0000 0.84620  0.37600  0.36600  Biso   1.000  H
  H44      1.0000 0.34620  0.87600  0.36600  Biso   1.000  H
  H45      1.0000 0.84620  0.62400  0.86600  Biso   1.000  H
  H46      1.0000 0.34620  0.12400  0.86600  Biso   1.000  H
  H47      1.0000 0.15380  0.62400  0.63400  Biso   1.000  H
  H48      1.0000 0.65380  0.12400  0.63400  Biso   1.000  H
  C33      1.0000 0.23570  0.32070  0.19030  Biso   1.000  C
  C34      1.0000 0.73570  0.82070  0.19030  Biso   1.000  C
  C35      1.0000 0.76430  0.32070  0.30970  Biso   1.000  C
  C36      1.0000 0.26430  0.82070  0.30970  Biso   1.000  C
  C37      1.0000 0.76430  0.67930  0.80970  Biso   1.000  C
  C38      1.0000 0.26430  0.17930  0.80970  Biso   1.000  C
  C39      1.0000 0.23570  0.67930  0.69030  Biso   1.000  C
  C40      1.0000 0.73570  0.17930  0.69030  Biso   1.000  C
  C41      1.0000 0.29830  0.34830  0.15700  Biso   1.000  C
  C42      1.0000 0.79830  0.84830  0.15700  Biso   1.000  C
  C43      1.0000 0.70170  0.34830  0.34300  Biso   1.000  C
  C44      1.0000 0.20170  0.84830  0.34300  Biso   1.000  C
  C45      1.0000 0.70170  0.65170  0.84300  Biso   1.000  C
  C46      1.0000 0.20170  0.15170  0.84300  Biso   1.000  C
  C47      1.0000 0.29830  0.65170  0.65700  Biso   1.000  C
  C48      1.0000 0.79830  0.15170  0.65700  Biso   1.000  C
  H49      1.0000 0.33070  0.36740  0.25420  Biso   1.000  H
  H50      1.0000 0.83070  0.86740  0.25420  Biso   1.000  H
  H51      1.0000 0.66930  0.36740  0.24580  Biso   1.000  H
  H52      1.0000 0.16930  0.86740  0.24580  Biso   1.000  H
  H53      1.0000 0.66930  0.63260  0.74580  Biso   1.000  H
  H54      1.0000 0.16930  0.13260  0.74580  Biso   1.000  H
  H55      1.0000 0.33070  0.63260  0.75420  Biso   1.000  H
  H56      1.0000 0.83070  0.13260  0.75420  Biso   1.000  H
  H57      1.0000 0.27060  0.37030  0.06520  Biso   1.000  H
  H58      1.0000 0.77060  0.87030  0.06520  Biso   1.000  H
  H59      1.0000 0.72940  0.37030  0.43480  Biso   1.000  H
  H60      1.0000 0.22940  0.87030  0.43480  Biso   1.000  H
  H61      1.0000 0.72940  0.62970  0.93480  Biso   1.000  H
  H62      1.0000 0.22940  0.12970  0.93480  Biso   1.000  H
  H63      1.0000 0.27060  0.62970  0.56520  Biso   1.000  H
  H64      1.0000 0.77060  0.12970  0.56520  Biso   1.000  H
  C49      1.0000 0.35560  0.31600  0.11510  Biso   1.000  C
  C50      1.0000 0.85560  0.81600  0.11510  Biso   1.000  C
  C51      1.0000 0.64440  0.31600  0.38490  Biso   1.000  C
  C52      1.0000 0.14440  0.81600  0.38490  Biso   1.000  C
  C53      1.0000 0.64440  0.68400  0.88490  Biso   1.000  C
  C54      1.0000 0.14440  0.18400  0.88490  Biso   1.000  C
  C55      1.0000 0.35560  0.68400  0.61510  Biso   1.000  C
  C56      1.0000 0.85560  0.18400  0.61510  Biso   1.000  C
  H65      1.0000 0.32250  0.29970  0.01000  Biso   1.000  H
  H66      1.0000 0.82250  0.79970  0.01000  Biso   1.000  H
  H67      1.0000 0.67750  0.29970  0.49000  Biso   1.000  H
  H68      1.0000 0.17750  0.79970  0.49000  Biso   1.000  H
  H69      1.0000 0.67750  0.70030  0.99000  Biso   1.000  H
  H70      1.0000 0.17750  0.20030  0.99000  Biso   1.000  H
  H71      1.0000 0.32250  0.70030  0.51000  Biso   1.000  H
  H72      1.0000 0.82250  0.20030  0.51000  Biso   1.000  H
  C57      1.0000 0.39140  0.27820  0.24530  Biso   1.000  C
  C58      1.0000 0.89140  0.77820  0.24530  Biso   1.000  C
  C59      1.0000 0.60860  0.27820  0.25470  Biso   1.000  C
  C60      1.0000 0.10860  0.77820  0.25470  Biso   1.000  C
  C61      1.0000 0.60860  0.72180  0.75470  Biso   1.000  C
  C62      1.0000 0.10860  0.22180  0.75470  Biso   1.000  C
  C63      1.0000 0.39140  0.72180  0.74530  Biso   1.000  C
  C64      1.0000 0.89140  0.22180  0.74530  Biso   1.000  C
  H73      1.0000 0.42810  0.25730  0.21550  Biso   1.000  H
  H74      1.0000 0.92810  0.75730  0.21550  Biso   1.000  H
  H75      1.0000 0.57190  0.25730  0.28450  Biso   1.000  H
  H76      1.0000 0.07190  0.75730  0.28450  Biso   1.000  H
  H77      1.0000 0.57190  0.74270  0.78450  Biso   1.000  H
  H78      1.0000 0.07190  0.24270  0.78450  Biso   1.000  H
  H79      1.0000 0.42810  0.74270  0.71550  Biso   1.000  H
  H80      1.0000 0.92810  0.24270  0.71550  Biso   1.000  H
  C65      1.0000 0.32600  0.24840  0.26210  Biso   1.000  C
  C66      1.0000 0.82600  0.74840  0.26210  Biso   1.000  C
  C67      1.0000 0.67400  0.24840  0.23790  Biso   1.000  C
  C68      1.0000 0.17400  0.74840  0.23790  Biso   1.000  C
  C69      1.0000 0.67400  0.75160  0.73790  Biso   1.000  C
  C70      1.0000 0.17400  0.25160  0.73790  Biso   1.000  C
  C71      1.0000 0.32600  0.75160  0.76210  Biso   1.000  C
  C72      1.0000 0.82600  0.25160  0.76210  Biso   1.000  C
  H81      1.0000 0.34820  0.23380  0.37170  Biso   1.000  H
  H82      1.0000 0.84820  0.73380  0.37170  Biso   1.000  H
  H83      1.0000 0.65180  0.23380  0.12830  Biso   1.000  H
  H84      1.0000 0.15180  0.73380  0.12830  Biso   1.000  H
  H85      1.0000 0.65180  0.76620  0.62830  Biso   1.000  H
  H86      1.0000 0.15180  0.26620  0.62830  Biso   1.000  H
  H87      1.0000 0.34820  0.76620  0.87170  Biso   1.000  H
  H88      1.0000 0.84820  0.26620  0.87170  Biso   1.000  H
  H89      1.0000 0.31170  0.22250  0.18110  Biso   1.000  H
  H90      1.0000 0.81170  0.72250  0.18110  Biso   1.000  H
  H91      1.0000 0.68830  0.22250  0.31890  Biso   1.000  H
  H92      1.0000 0.18830  0.72250  0.31890  Biso   1.000  H
  H93      1.0000 0.68830  0.77750  0.81890  Biso   1.000  H
  H94      1.0000 0.18830  0.27750  0.81890  Biso   1.000  H
  H95      1.0000 0.31170  0.77750  0.68110  Biso   1.000  H
  H96      1.0000 0.81170  0.27750  0.68110  Biso   1.000  H
  C73      1.0000 0.24940  0.27500  0.23900  Biso   1.000  C
  C74      1.0000 0.74940  0.77500  0.23900  Biso   1.000  C
  C75      1.0000 0.75060  0.27500  0.26100  Biso   1.000  C
  C76      1.0000 0.25060  0.77500  0.26100  Biso   1.000  C
  C77      1.0000 0.75060  0.72500  0.76100  Biso   1.000  C
  C78      1.0000 0.25060  0.22500  0.76100  Biso   1.000  C
  C79      1.0000 0.24940  0.72500  0.73900  Biso   1.000  C
  C80      1.0000 0.74940  0.22500  0.73900  Biso   1.000  C
  C81      1.0000 0.15370  0.17370  0.34840  Biso   1.000  C
  C82      1.0000 0.65370  0.67370  0.34840  Biso   1.000  C
  C83      1.0000 0.84630  0.17370  0.15160  Biso   1.000  C
  C84      1.0000 0.34630  0.67370  0.15160  Biso   1.000  C
  C85      1.0000 0.84630  0.82630  0.65160  Biso   1.000  C
  C86      1.0000 0.34630  0.32630  0.65160  Biso   1.000  C
  C87      1.0000 0.15370  0.82630  0.84840  Biso   1.000  C
  C88      1.0000 0.65370  0.32630  0.84840  Biso   1.000  C
  H97      1.0000 0.09590  0.18020  0.27750  Biso   1.000  H
  H98      1.0000 0.59590  0.68020  0.27750  Biso   1.000  H
  H99      1.0000 0.90410  0.18020  0.22250  Biso   1.000  H
  H100     1.0000 0.40410  0.68020  0.22250  Biso   1.000  H
  H101     1.0000 0.90410  0.81980  0.72250  Biso   1.000  H
  H102     1.0000 0.40410  0.31980  0.72250  Biso   1.000  H
  H103     1.0000 0.09590  0.81980  0.77750  Biso   1.000  H
  H104     1.0000 0.59590  0.31980  0.77750  Biso   1.000  H
  H105     1.0000 0.16270  0.18020  0.46270  Biso   1.000  H
  H106     1.0000 0.66270  0.68020  0.46270  Biso   1.000  H
  H107     1.0000 0.83730  0.18020  0.03730  Biso   1.000  H
  H108     1.0000 0.33730  0.68020  0.03730  Biso   1.000  H
  H109     1.0000 0.83730  0.81980  0.53730  Biso   1.000  H
  H110     1.0000 0.33730  0.31980  0.53730  Biso   1.000  H
  H111     1.0000 0.16270  0.81980  0.96270  Biso   1.000  H
  H112     1.0000 0.66270  0.31980  0.96270  Biso   1.000  H
  C89      1.0000 0.17460  0.12150  0.32990  Biso   1.000  C
  C90      1.0000 0.67460  0.62150  0.32990  Biso   1.000  C
  C91      1.0000 0.82540  0.12150  0.17010  Biso   1.000  C
  C92      1.0000 0.32540  0.62150  0.17010  Biso   1.000  C
  C93      1.0000 0.82540  0.87850  0.67010  Biso   1.000  C
  C94      1.0000 0.32540  0.37850  0.67010  Biso   1.000  C
  C95      1.0000 0.17460  0.87850  0.82990  Biso   1.000  C
  C96      1.0000 0.67460  0.37850  0.82990  Biso   1.000  C
  H113     1.0000 0.15240  0.10130  0.39340  Biso   1.000  H
  H114     1.0000 0.65240  0.60130  0.39340  Biso   1.000  H
  H115     1.0000 0.84760  0.10130  0.10660  Biso   1.000  H
  H116     1.0000 0.34760  0.60130  0.10660  Biso   1.000  H
  H117     1.0000 0.84760  0.89870  0.60660  Biso   1.000  H
  H118     1.0000 0.34760  0.39870  0.60660  Biso   1.000  H
  H119     1.0000 0.15240  0.89870  0.89340  Biso   1.000  H
  H120     1.0000 0.65240  0.39870  0.89340  Biso   1.000  H
  C97      1.0000 0.26360  0.11360  0.39400  Biso   1.000  C
  C98      1.0000 0.76360  0.61360  0.39400  Biso   1.000  C
  C99      1.0000 0.73640  0.11360  0.10600  Biso   1.000  C
  C100     1.0000 0.23640  0.61360  0.10600  Biso   1.000  C
  C101     1.0000 0.73640  0.88640  0.60600  Biso   1.000  C
  C102     1.0000 0.23640  0.38640  0.60600  Biso   1.000  C
  C103     1.0000 0.26360  0.88640  0.89400  Biso   1.000  C
  C104     1.0000 0.76360  0.38640  0.89400  Biso   1.000  C
  H121     1.0000 0.28760  0.11540  0.51440  Biso   1.000  H
  H122     1.0000 0.78760  0.61540  0.51440  Biso   1.000  H
  H123     1.0000 0.71240  0.11540  0.98560  Biso   1.000  H
  H124     1.0000 0.21240  0.61540  0.98560  Biso   1.000  H
  H125     1.0000 0.71240  0.88460  0.48560  Biso   1.000  H
  H126     1.0000 0.21240  0.38460  0.48560  Biso   1.000  H
  H127     1.0000 0.28760  0.88460  0.01440  Biso   1.000  H
  H128     1.0000 0.78760  0.38460  0.01440  Biso   1.000  H
  H129     1.0000 0.28890  0.13840  0.35230  Biso   1.000  H
  H130     1.0000 0.78890  0.63840  0.35230  Biso   1.000  H
  H131     1.0000 0.71110  0.13840  0.14770  Biso   1.000  H
  H132     1.0000 0.21110  0.63840  0.14770  Biso   1.000  H
  H133     1.0000 0.71110  0.86160  0.64770  Biso   1.000  H
  H134     1.0000 0.21110  0.36160  0.64770  Biso   1.000  H
  H135     1.0000 0.28890  0.86160  0.85230  Biso   1.000  H
  H136     1.0000 0.78890  0.36160  0.85230  Biso   1.000  H
  C105     1.0000 0.36570  0.05910  0.35470  Biso   1.000  C
  C106     1.0000 0.86570  0.55910  0.35470  Biso   1.000  C
  C107     1.0000 0.63430  0.05910  0.14530  Biso   1.000  C
  C108     1.0000 0.13430  0.55910  0.14530  Biso   1.000  C
  C109     1.0000 0.63430  0.94090  0.64530  Biso   1.000  C
  C110     1.0000 0.13430  0.44090  0.64530  Biso   1.000  C
  C111     1.0000 0.36570  0.94090  0.85470  Biso   1.000  C
  C112     1.0000 0.86570  0.44090  0.85470  Biso   1.000  C
  C113     1.0000 0.37770  0.00570  0.33950  Biso   1.000  C
  C114     1.0000 0.87770  0.50570  0.33950  Biso   1.000  C
  C115     1.0000 0.62230  0.00570  0.16050  Biso   1.000  C
  C116     1.0000 0.12230  0.50570  0.16050  Biso   1.000  C
  C117     1.0000 0.62230  0.99430  0.66050  Biso   1.000  C
  C118     1.0000 0.12230  0.49430  0.66050  Biso   1.000  C
  C119     1.0000 0.37770  0.99430  0.83950  Biso   1.000  C
  C120     1.0000 0.87770  0.49430  0.83950  Biso   1.000  C
  H137     1.0000 0.34280  0.99510  0.22900  Biso   1.000  H
  H138     1.0000 0.84280  0.49510  0.22900  Biso   1.000  H
  H139     1.0000 0.65720  0.99510  0.27100  Biso   1.000  H
  H140     1.0000 0.15720  0.49510  0.27100  Biso   1.000  H
  H141     1.0000 0.65720  0.00490  0.77100  Biso   1.000  H
  H142     1.0000 0.15720  0.50490  0.77100  Biso   1.000  H
  H143     1.0000 0.34280  0.00490  0.72900  Biso   1.000  H
  H144     1.0000 0.84280  0.50490  0.72900  Biso   1.000  H
  H145     1.0000 0.36310  0.98850  0.41840  Biso   1.000  H
  H146     1.0000 0.86310  0.48850  0.41840  Biso   1.000  H
  H147     1.0000 0.63690  0.98850  0.08160  Biso   1.000  H
  H148     1.0000 0.13690  0.48850  0.08160  Biso   1.000  H
  H149     1.0000 0.63690  0.01150  0.58160  Biso   1.000  H
  H150     1.0000 0.13690  0.51150  0.58160  Biso   1.000  H
  H151     1.0000 0.36310  0.01150  0.91840  Biso   1.000  H
  H152     1.0000 0.86310  0.51150  0.91840  Biso   1.000  H
  H153     1.0000 0.43470  0.99940  0.36150  Biso   1.000  H
  H154     1.0000 0.93470  0.49940  0.36150  Biso   1.000  H
  H155     1.0000 0.56530  0.99940  0.13850  Biso   1.000  H
  H156     1.0000 0.06530  0.49940  0.13850  Biso   1.000  H
  H157     1.0000 0.56530  0.00060  0.63850  Biso   1.000  H
  H158     1.0000 0.06530  0.50060  0.63850  Biso   1.000  H
  H159     1.0000 0.43470  0.00060  0.86150  Biso   1.000  H
  H160     1.0000 0.93470  0.50060  0.86150  Biso   1.000  H
  C121     1.0000 0.42810  0.07700  0.51610  Biso   1.000  C
  C122     1.0000 0.92810  0.57700  0.51610  Biso   1.000  C
  C123     1.0000 0.57190  0.07700  0.98390  Biso   1.000  C
  C124     1.0000 0.07190  0.57700  0.98390  Biso   1.000  C
  C125     1.0000 0.57190  0.92300  0.48390  Biso   1.000  C
  C126     1.0000 0.07190  0.42300  0.48390  Biso   1.000  C
  C127     1.0000 0.42810  0.92300  0.01610  Biso   1.000  C
  C128     1.0000 0.92810  0.42300  0.01610  Biso   1.000  C
  H161     1.0000 0.48290  0.07100  0.52240  Biso   1.000  H
  H162     1.0000 0.98290  0.57100  0.52240  Biso   1.000  H
  H163     1.0000 0.51710  0.07100  0.97760  Biso   1.000  H
  H164     1.0000 0.01710  0.57100  0.97760  Biso   1.000  H
  H165     1.0000 0.51710  0.92900  0.47760  Biso   1.000  H
  H166     1.0000 0.01710  0.42900  0.47760  Biso   1.000  H
  H167     1.0000 0.48290  0.92900  0.02240  Biso   1.000  H
  H168     1.0000 0.98290  0.42900  0.02240  Biso   1.000  H
  H169     1.0000 0.42110  0.06060  0.60550  Biso   1.000  H
  H170     1.0000 0.92110  0.56060  0.60550  Biso   1.000  H
  H171     1.0000 0.57890  0.06060  0.89450  Biso   1.000  H
  H172     1.0000 0.07890  0.56060  0.89450  Biso   1.000  H
  H173     1.0000 0.57890  0.93940  0.39450  Biso   1.000  H
  H174     1.0000 0.07890  0.43940  0.39450  Biso   1.000  H
  H175     1.0000 0.42110  0.93940  0.10550  Biso   1.000  H
  H176     1.0000 0.92110  0.43940  0.10550  Biso   1.000  H
  H177     1.0000 0.42060  0.11110  0.52470  Biso   1.000  H
  H178     1.0000 0.92060  0.61110  0.52470  Biso   1.000  H
  H179     1.0000 0.57940  0.11110  0.97530  Biso   1.000  H
  H180     1.0000 0.07940  0.61110  0.97530  Biso   1.000  H
  H181     1.0000 0.57940  0.88890  0.47530  Biso   1.000  H
  H182     1.0000 0.07940  0.38890  0.47530  Biso   1.000  H
  H183     1.0000 0.42060  0.88890  0.02470  Biso   1.000  H
  H184     1.0000 0.92060  0.38890  0.02470  Biso   1.000  H
  C129     1.0000 0.37240  0.08430  0.21450  Biso   1.000  C
  C130     1.0000 0.87240  0.58430  0.21450  Biso   1.000  C
  C131     1.0000 0.62760  0.08430  0.28550  Biso   1.000  C
  C132     1.0000 0.12760  0.58430  0.28550  Biso   1.000  C
  C133     1.0000 0.62760  0.91570  0.78550  Biso   1.000  C
  C134     1.0000 0.12760  0.41570  0.78550  Biso   1.000  C
  C135     1.0000 0.37240  0.91570  0.71450  Biso   1.000  C
  C136     1.0000 0.87240  0.41570  0.71450  Biso   1.000  C
  H185     1.0000 0.32870  0.07380  0.11240  Biso   1.000  H
  H186     1.0000 0.82870  0.57380  0.11240  Biso   1.000  H
  H187     1.0000 0.67130  0.07380  0.38760  Biso   1.000  H
  H188     1.0000 0.17130  0.57380  0.38760  Biso   1.000  H
  H189     1.0000 0.67130  0.92620  0.88760  Biso   1.000  H
  H190     1.0000 0.17130  0.42620  0.88760  Biso   1.000  H
  H191     1.0000 0.32870  0.92620  0.61240  Biso   1.000  H
  H192     1.0000 0.82870  0.42620  0.61240  Biso   1.000  H
  H193     1.0000 0.42520  0.07720  0.21210  Biso   1.000  H
  H194     1.0000 0.92520  0.57720  0.21210  Biso   1.000  H
  H195     1.0000 0.57480  0.07720  0.28790  Biso   1.000  H
  H196     1.0000 0.07480  0.57720  0.28790  Biso   1.000  H
  H197     1.0000 0.57480  0.92280  0.78790  Biso   1.000  H
  H198     1.0000 0.07480  0.42280  0.78790  Biso   1.000  H
  H199     1.0000 0.42520  0.92280  0.71210  Biso   1.000  H
  H200     1.0000 0.92520  0.42280  0.71210  Biso   1.000  H
  H201     1.0000 0.36790  0.11850  0.22700  Biso   1.000  H
  H202     1.0000 0.86790  0.61850  0.22700  Biso   1.000  H
  H203     1.0000 0.63210  0.11850  0.27300  Biso   1.000  H
  H204     1.0000 0.13210  0.61850  0.27300  Biso   1.000  H
  H205     1.0000 0.63210  0.88150  0.77300  Biso   1.000  H
  H206     1.0000 0.13210  0.38150  0.77300  Biso   1.000  H
  H207     1.0000 0.36790  0.88150  0.72700  Biso   1.000  H
  H208     1.0000 0.86790  0.38150  0.72700  Biso   1.000  H
  C137     1.0000 0.14410  0.01310  0.87140  Biso   1.000  C
  C138     1.0000 0.64410  0.51310  0.87140  Biso   1.000  C
  C139     1.0000 0.85590  0.01310  0.62860  Biso   1.000  C
  C140     1.0000 0.35590  0.51310  0.62860  Biso   1.000  C
  C141     1.0000 0.85590  0.98690  0.12860  Biso   1.000  C
  C142     1.0000 0.35590  0.48690  0.12860  Biso   1.000  C
  C143     1.0000 0.14410  0.98690  0.37140  Biso   1.000  C
  C144     1.0000 0.64410  0.48690  0.37140  Biso   1.000  C
  Na1      1.0000 0.00000  0.09370  0.75000  Biso   1.000  Na
  Na2      1.0000 0.50000  0.59370  0.75000  Biso   1.000  Na
  Na3      1.0000 0.00000  0.90630  0.25000  Biso   1.000  Na
  Na4      1.0000 0.50000  0.40630  0.25000  Biso   1.000  Na
  Na5      1.0000 0.01040  0.01110  0.48510  Biso   1.000  Na
  Na6      1.0000 0.51040  0.51110  0.48510  Biso   1.000  Na
  Na7      1.0000 0.98960  0.01110  0.01490  Biso   1.000  Na
  Na8      1.0000 0.48960  0.51110  0.01490  Biso   1.000  Na
  Na9      1.0000 0.98960  0.98890  0.51490  Biso   1.000  Na
  Na10     1.0000 0.48960  0.48890  0.51490  Biso   1.000  Na
  Na11     1.0000 0.01040  0.98890  0.98510  Biso   1.000  Na
  Na12     1.0000 0.51040  0.48890  0.98510  Biso   1.000  Na
  O65      1.0000 0.01970  0.08420  0.47630  Biso   1.000  O
  O66      1.0000 0.51970  0.58420  0.47630  Biso   1.000  O
  O67      1.0000 0.98030  0.08420  0.02370  Biso   1.000  O
  O68      1.0000 0.48030  0.58420  0.02370  Biso   1.000  O
  O69      1.0000 0.98030  0.91580  0.52370  Biso   1.000  O
  O70      1.0000 0.48030  0.41580  0.52370  Biso   1.000  O
  O71      1.0000 0.01970  0.91580  0.97630  Biso   1.000  O
  O72      1.0000 0.51970  0.41580  0.97630  Biso   1.000  O
  H209     1.0000 0.05730  0.09750  0.45010  Biso   1.000  H
  H210     1.0000 0.55730  0.59750  0.45010  Biso   1.000  H
  H211     1.0000 0.94270  0.09750  0.04990  Biso   1.000  H
  H212     1.0000 0.44270  0.59750  0.04990  Biso   1.000  H
  H213     1.0000 0.94270  0.90250  0.54990  Biso   1.000  H
  H214     1.0000 0.44270  0.40250  0.54990  Biso   1.000  H
  H215     1.0000 0.05730  0.90250  0.95010  Biso   1.000  H
  H216     1.0000 0.55730  0.40250  0.95010  Biso   1.000  H
  H217     1.0000 0.96050  0.09090  0.37670  Biso   1.000  H
  H218     1.0000 0.46050  0.59090  0.37670  Biso   1.000  H
  H219     1.0000 0.03950  0.09090  0.12330  Biso   1.000  H
  H220     1.0000 0.53950  0.59090  0.12330  Biso   1.000  H
  H221     1.0000 0.03950  0.90910  0.62330  Biso   1.000  H
  H222     1.0000 0.53950  0.40910  0.62330  Biso   1.000  H
  H223     1.0000 0.96050  0.90910  0.87670  Biso   1.000  H
  H224     1.0000 0.46050  0.40910  0.87670  Biso   1.000  H
