data_image0
_cell_length_a       13.9181
_cell_length_b       11.6269
_cell_length_c       18.8112
_cell_angle_alpha    90
_cell_angle_beta     116.025
_cell_angle_gamma    90

_symmetry_space_group_name_H-M    "P 1"
_symmetry_int_tables_number       1

loop_
  _symmetry_equiv_pos_as_xyz
  'x, y, z'

loop_
  _atom_site_label
  _atom_site_occupancy
  _atom_site_fract_x
  _atom_site_fract_y
  _atom_site_fract_z
  _atom_site_thermal_displace_type
  _atom_site_B_iso_or_equiv
  _atom_site_type_symbol
  Cu1      1.0000 0.76387  0.92674  0.51320  Biso   1.000  Cu
  Cu2      1.0000 0.23613  0.42674  0.98680  Biso   1.000  Cu
  Cu3      1.0000 0.23613  0.07326  0.48680  Biso   1.000  Cu
  Cu4      1.0000 0.76387  0.57326  0.01320  Biso   1.000  Cu
  Cu5      1.0000 0.23860  0.57023  0.49833  Biso   1.000  Cu
  Cu6      1.0000 0.76140  0.07023  0.00167  Biso   1.000  Cu
  Cu7      1.0000 0.76140  0.42977  0.50167  Biso   1.000  Cu
  Cu8      1.0000 0.23860  0.92977  0.99833  Biso   1.000  Cu
  S1       1.0000 0.12619  0.73637  0.62738  Biso   1.000  S
  S2       1.0000 0.87381  0.23637  0.87262  Biso   1.000  S
  S3       1.0000 0.87381  0.26363  0.37262  Biso   1.000  S
  S4       1.0000 0.12619  0.76363  0.12738  Biso   1.000  S
  P1       1.0000 0.00311  0.68963  0.37363  Biso   1.000  P
  P2       1.0000 0.99689  0.18963  0.12637  Biso   1.000  P
  P3       1.0000 0.99689  0.31037  0.62637  Biso   1.000  P
  P4       1.0000 0.00311  0.81037  0.87363  Biso   1.000  P
  P5       1.0000 0.53174  0.80335  0.41547  Biso   1.000  P
  P6       1.0000 0.46826  0.30335  0.08453  Biso   1.000  P
  P7       1.0000 0.46826  0.19665  0.58453  Biso   1.000  P
  P8       1.0000 0.53174  0.69665  0.91547  Biso   1.000  P
  F1       1.0000 0.14330  0.80130  0.76387  Biso   1.000  F
  F2       1.0000 0.85670  0.30130  0.73613  Biso   1.000  F
  F3       1.0000 0.85670  0.19870  0.23613  Biso   1.000  F
  F4       1.0000 0.14330  0.69870  0.26387  Biso   1.000  F
  F5       1.0000 0.29041  0.80970  0.75305  Biso   1.000  F
  F6       1.0000 0.70959  0.30970  0.74695  Biso   1.000  F
  F7       1.0000 0.70959  0.19030  0.24695  Biso   1.000  F
  F8       1.0000 0.29041  0.69030  0.25305  Biso   1.000  F
  F9       1.0000 0.22690  0.64670  0.76674  Biso   1.000  F
  F10      1.0000 0.77310  0.14670  0.73326  Biso   1.000  F
  F11      1.0000 0.77310  0.35330  0.23326  Biso   1.000  F
  F12      1.0000 0.22690  0.85330  0.26674  Biso   1.000  F
  O1       1.0000 0.09592  0.61726  0.42601  Biso   1.000  O
  O2       1.0000 0.90408  0.11726  0.07399  Biso   1.000  O
  O3       1.0000 0.90408  0.38274  0.57399  Biso   1.000  O
  O4       1.0000 0.09592  0.88274  0.92601  Biso   1.000  O
  O5       1.0000 0.02080  0.81335  0.36126  Biso   1.000  O
  O6       1.0000 0.97920  0.31335  0.13874  Biso   1.000  O
  O7       1.0000 0.97920  0.18665  0.63874  Biso   1.000  O
  O8       1.0000 0.02080  0.68665  0.86126  Biso   1.000  O
  O9       1.0000 0.94412  0.62710  0.29166  Biso   1.000  O
  O10      1.0000 0.05588  0.12710  0.20834  Biso   1.000  O
  O11      1.0000 0.05588  0.37290  0.70834  Biso   1.000  O
  O12      1.0000 0.94412  0.87290  0.79166  Biso   1.000  O
  O13      1.0000 0.25390  0.48908  0.39043  Biso   1.000  O
  O14      1.0000 0.74610  0.98908  0.10957  Biso   1.000  O
  O15      1.0000 0.74610  0.51092  0.60957  Biso   1.000  O
  O16      1.0000 0.25390  0.01092  0.89043  Biso   1.000  O
  O17      1.0000 0.38394  0.52603  0.57108  Biso   1.000  O
  O18      1.0000 0.61606  0.02603  0.92892  Biso   1.000  O
  O19      1.0000 0.61606  0.47397  0.42892  Biso   1.000  O
  O20      1.0000 0.38394  0.97397  0.07108  Biso   1.000  O
  H1       1.0000 0.40210  0.45540  0.57920  Biso   1.000  H
  H2       1.0000 0.59790  0.95540  0.92080  Biso   1.000  H
  H3       1.0000 0.59790  0.54460  0.42080  Biso   1.000  H
  H4       1.0000 0.40210  0.04460  0.07920  Biso   1.000  H
  O21      1.0000 0.62189  0.86454  0.48185  Biso   1.000  O
  O22      1.0000 0.37811  0.36454  0.01815  Biso   1.000  O
  O23      1.0000 0.37811  0.13546  0.51815  Biso   1.000  O
  O24      1.0000 0.62189  0.63546  0.98185  Biso   1.000  O
  O25      1.0000 0.49270  0.87921  0.33961  Biso   1.000  O
  O26      1.0000 0.50730  0.37921  0.16039  Biso   1.000  O
  O27      1.0000 0.50730  0.12079  0.66039  Biso   1.000  O
  O28      1.0000 0.49270  0.62079  0.83961  Biso   1.000  O
  O29      1.0000 0.54828  0.68157  0.40199  Biso   1.000  O
  O30      1.0000 0.45172  0.18157  0.09801  Biso   1.000  O
  O31      1.0000 0.45172  0.31843  0.59801  Biso   1.000  O
  O32      1.0000 0.54828  0.81843  0.90199  Biso   1.000  O
  O33      1.0000 0.79640  0.83150  0.63158  Biso   1.000  O
  O34      1.0000 0.20360  0.33150  0.86842  Biso   1.000  O
  O35      1.0000 0.20360  0.16850  0.36842  Biso   1.000  O
  O36      1.0000 0.79640  0.66850  0.13158  Biso   1.000  O
  H5       1.0000 0.84280  0.83940  0.68120  Biso   1.000  H
  H6       1.0000 0.15720  0.33940  0.81880  Biso   1.000  H
  H7       1.0000 0.15720  0.16060  0.31880  Biso   1.000  H
  H8       1.0000 0.84280  0.66060  0.18120  Biso   1.000  H
  O37      1.0000 0.91361  0.98778  0.56050  Biso   1.000  O
  O38      1.0000 0.08639  0.48778  0.93950  Biso   1.000  O
  O39      1.0000 0.08639  0.01222  0.43950  Biso   1.000  O
  O40      1.0000 0.91361  0.51222  0.06050  Biso   1.000  O
  O41      1.0000 0.73058  0.00344  0.39148  Biso   1.000  O
  O42      1.0000 0.26942  0.50344  0.10852  Biso   1.000  O
  O43      1.0000 0.26942  0.99656  0.60852  Biso   1.000  O
  O44      1.0000 0.73058  0.49656  0.89148  Biso   1.000  O
  O45      1.0000 0.09962  0.85400  0.60074  Biso   1.000  O
  O46      1.0000 0.90038  0.35400  0.89926  Biso   1.000  O
  O47      1.0000 0.90038  0.14600  0.39926  Biso   1.000  O
  O48      1.0000 0.09962  0.64600  0.10074  Biso   1.000  O
  O49      1.0000 0.03478  0.66700  0.61682  Biso   1.000  O
  O50      1.0000 0.96522  0.16700  0.88318  Biso   1.000  O
  O51      1.0000 0.96522  0.33300  0.38318  Biso   1.000  O
  O52      1.0000 0.03478  0.83300  0.11682  Biso   1.000  O
  O53      1.0000 0.20029  0.68339  0.60322  Biso   1.000  O
  O54      1.0000 0.79971  0.18339  0.89678  Biso   1.000  O
  O55      1.0000 0.79971  0.31661  0.39678  Biso   1.000  O
  O56      1.0000 0.20029  0.81661  0.10322  Biso   1.000  O
  N1       1.0000 0.81729  0.57802  0.47600  Biso   1.000  N
  N2       1.0000 0.18271  0.07802  0.02400  Biso   1.000  N
  N3       1.0000 0.18271  0.42198  0.52400  Biso   1.000  N
  N4       1.0000 0.81729  0.92198  0.97600  Biso   1.000  N
  N5       1.0000 0.30057  0.71860  0.48138  Biso   1.000  N
  N6       1.0000 0.69943  0.21860  0.01862  Biso   1.000  N
  N7       1.0000 0.69943  0.28140  0.51862  Biso   1.000  N
  N8       1.0000 0.30057  0.78140  0.98138  Biso   1.000  N
  N9       1.0000 0.29209  0.92031  0.46598  Biso   1.000  N
  N10      1.0000 0.70791  0.42031  0.03402  Biso   1.000  N
  N11      1.0000 0.70791  0.07969  0.53402  Biso   1.000  N
  N12      1.0000 0.29209  0.57969  0.96598  Biso   1.000  N
  N13      1.0000 0.81691  0.78140  0.48046  Biso   1.000  N
  N14      1.0000 0.18309  0.28140  0.01954  Biso   1.000  N
  N15      1.0000 0.18309  0.21860  0.51954  Biso   1.000  N
  N16      1.0000 0.81691  0.71860  0.98046  Biso   1.000  N
  C1       1.0000 0.87830  0.58170  0.43726  Biso   1.000  C
  C2       1.0000 0.12170  0.08170  0.06274  Biso   1.000  C
  C3       1.0000 0.12170  0.41830  0.56274  Biso   1.000  C
  C4       1.0000 0.87830  0.91830  0.93726  Biso   1.000  C
  H9       1.0000 0.89940  0.51230  0.42270  Biso   1.000  H
  H10      1.0000 0.10060  0.01230  0.07730  Biso   1.000  H
  H11      1.0000 0.10060  0.48770  0.57730  Biso   1.000  H
  H12      1.0000 0.89940  0.98770  0.92270  Biso   1.000  H
  C5       1.0000 0.91120  0.68490  0.41794  Biso   1.000  C
  C6       1.0000 0.08880  0.18490  0.08206  Biso   1.000  C
  C7       1.0000 0.08880  0.31510  0.58206  Biso   1.000  C
  C8       1.0000 0.91120  0.81510  0.91794  Biso   1.000  C
  C9       1.0000 0.78970  0.67850  0.49633  Biso   1.000  C
  C10      1.0000 0.21030  0.17850  0.00367  Biso   1.000  C
  C11      1.0000 0.21030  0.32150  0.50367  Biso   1.000  C
  C12      1.0000 0.78970  0.82150  0.99633  Biso   1.000  C
  H13      1.0000 0.74770  0.67610  0.52410  Biso   1.000  H
  H14      1.0000 0.25230  0.17610  0.97590  Biso   1.000  H
  H15      1.0000 0.25230  0.32390  0.47590  Biso   1.000  H
  H16      1.0000 0.74770  0.82390  0.02410  Biso   1.000  H
  C13      1.0000 0.38150  0.71470  0.46048  Biso   1.000  C
  C14      1.0000 0.61850  0.21470  0.03952  Biso   1.000  C
  C15      1.0000 0.61850  0.28530  0.53952  Biso   1.000  C
  C16      1.0000 0.38150  0.78530  0.96048  Biso   1.000  C
  H17      1.0000 0.41240  0.64330  0.45930  Biso   1.000  H
  H18      1.0000 0.58760  0.14330  0.04070  Biso   1.000  H
  H19      1.0000 0.58760  0.35670  0.54070  Biso   1.000  H
  H20      1.0000 0.41240  0.85670  0.95930  Biso   1.000  H
  C17      1.0000 0.26010  0.82130  0.48400  Biso   1.000  C
  C18      1.0000 0.73990  0.32130  0.01600  Biso   1.000  C
  C19      1.0000 0.73990  0.17870  0.51600  Biso   1.000  C
  C20      1.0000 0.26010  0.67870  0.98400  Biso   1.000  C
  H21      1.0000 0.20470  0.82410  0.49980  Biso   1.000  H
  H22      1.0000 0.79530  0.32410  0.00020  Biso   1.000  H
  H23      1.0000 0.79530  0.17590  0.50020  Biso   1.000  H
  H24      1.0000 0.20470  0.67590  0.99980  Biso   1.000  H
  C21      1.0000 0.37170  0.91590  0.44375  Biso   1.000  C
  C22      1.0000 0.62830  0.41590  0.05625  Biso   1.000  C
  C23      1.0000 0.62830  0.08410  0.55625  Biso   1.000  C
  C24      1.0000 0.37170  0.58410  0.94375  Biso   1.000  C
  H25      1.0000 0.39500  0.98450  0.42990  Biso   1.000  H
  H26      1.0000 0.60500  0.48450  0.07010  Biso   1.000  H
  H27      1.0000 0.60500  0.01550  0.57010  Biso   1.000  H
  H28      1.0000 0.39500  0.51550  0.92990  Biso   1.000  H
  C25      1.0000 0.87700  0.78420  0.44052  Biso   1.000  C
  C26      1.0000 0.12300  0.28420  0.05948  Biso   1.000  C
  C27      1.0000 0.12300  0.21580  0.55948  Biso   1.000  C
  C28      1.0000 0.87700  0.71580  0.94052  Biso   1.000  C
  H29      1.0000 0.89630  0.85590  0.42760  Biso   1.000  H
  H30      1.0000 0.10370  0.35590  0.07240  Biso   1.000  H
  H31      1.0000 0.10370  0.14410  0.57240  Biso   1.000  H
  H32      1.0000 0.89630  0.64410  0.92760  Biso   1.000  H
  C29      1.0000 0.42030  0.81310  0.44068  Biso   1.000  C
  C30      1.0000 0.57970  0.31310  0.05932  Biso   1.000  C
  C31      1.0000 0.57970  0.18690  0.55932  Biso   1.000  C
  C32      1.0000 0.42030  0.68690  0.94068  Biso   1.000  C
  C33      1.0000 0.20110  0.74890  0.73390  Biso   1.000  C
  C34      1.0000 0.79890  0.24890  0.76610  Biso   1.000  C
  C35      1.0000 0.79890  0.25110  0.26610  Biso   1.000  C
  C36      1.0000 0.20110  0.75110  0.23390  Biso   1.000  C
  S5       1.0000 0.39745  0.29464  0.29264  Biso   1.000  S
  S6       1.0000 0.60255  0.79464  0.20736  Biso   1.000  S
  S7       1.0000 0.60255  0.70536  0.70736  Biso   1.000  S
  S8       1.0000 0.39745  0.20536  0.79264  Biso   1.000  S
  F13      1.0000 0.46320  0.10800  0.24977  Biso   1.000  F
  F14      1.0000 0.53680  0.60800  0.25023  Biso   1.000  F
  F15      1.0000 0.53680  0.89200  0.75023  Biso   1.000  F
  F16      1.0000 0.46320  0.39200  0.74977  Biso   1.000  F
  F17      1.0000 0.33938  0.08103  0.28673  Biso   1.000  F
  F18      1.0000 0.66062  0.58103  0.21327  Biso   1.000  F
  F19      1.0000 0.66062  0.91897  0.71327  Biso   1.000  F
  F20      1.0000 0.33938  0.41897  0.78673  Biso   1.000  F
  F21      1.0000 0.49913  0.11683  0.37285  Biso   1.000  F
  F22      1.0000 0.50087  0.61683  0.12715  Biso   1.000  F
  F23      1.0000 0.50087  0.88317  0.62715  Biso   1.000  F
  F24      1.0000 0.49913  0.38317  0.87285  Biso   1.000  F
  O57      1.0000 0.37600  0.31580  0.35966  Biso   1.000  O
  O58      1.0000 0.62400  0.81580  0.14034  Biso   1.000  O
  O59      1.0000 0.62400  0.68420  0.64034  Biso   1.000  O
  O60      1.0000 0.37600  0.18420  0.85966  Biso   1.000  O
  O61      1.0000 0.49776  0.34410  0.30011  Biso   1.000  O
  O62      1.0000 0.50224  0.84410  0.19989  Biso   1.000  O
  O63      1.0000 0.50224  0.65590  0.69989  Biso   1.000  O
  O64      1.0000 0.49776  0.15590  0.80011  Biso   1.000  O
  O65      1.0000 0.31020  0.31010  0.21632  Biso   1.000  O
  O66      1.0000 0.68980  0.81010  0.28368  Biso   1.000  O
  O67      1.0000 0.68980  0.68990  0.78368  Biso   1.000  O
  O68      1.0000 0.31020  0.18990  0.71632  Biso   1.000  O
  C37      1.0000 0.42690  0.14090  0.29989  Biso   1.000  C
  C38      1.0000 0.57310  0.64090  0.20011  Biso   1.000  C
  C39      1.0000 0.57310  0.85910  0.70011  Biso   1.000  C
  C40      1.0000 0.42690  0.35910  0.79989  Biso   1.000  C
  O69      1.0000 0.03738  0.43320  0.28048  Biso   1.000  O
  O70      1.0000 0.96262  0.93320  0.21952  Biso   1.000  O
  O71      1.0000 0.96262  0.56680  0.71952  Biso   1.000  O
  O72      1.0000 0.03738  0.06680  0.78048  Biso   1.000  O
  H33      1.0000 0.97180  0.56250  0.29340  Biso   1.000  H
  H34      1.0000 0.02820  0.06250  0.20660  Biso   1.000  H
  H35      1.0000 0.02820  0.43750  0.70660  Biso   1.000  H
  H36      1.0000 0.97180  0.93750  0.79340  Biso   1.000  H
  H37      1.0000 0.01760  0.39540  0.23770  Biso   1.000  H
  H38      1.0000 0.98240  0.89540  0.26230  Biso   1.000  H
  H39      1.0000 0.98240  0.60460  0.76230  Biso   1.000  H
  H40      1.0000 0.01760  0.10460  0.73770  Biso   1.000  H
  H41      1.0000 0.01190  0.38120  0.30140  Biso   1.000  H
  H42      1.0000 0.98810  0.88120  0.19860  Biso   1.000  H
  H43      1.0000 0.98810  0.61880  0.69860  Biso   1.000  H
  H44      1.0000 0.01190  0.11880  0.80140  Biso   1.000  H
  H45      1.0000 0.73420  0.80190  0.62170  Biso   1.000  H
  H46      1.0000 0.26580  0.30190  0.87830  Biso   1.000  H
  H47      1.0000 0.26580  0.19810  0.37830  Biso   1.000  H
  H48      1.0000 0.73420  0.69810  0.12170  Biso   1.000  H
  H49      1.0000 0.93280  0.04990  0.58950  Biso   1.000  H
  H50      1.0000 0.06720  0.54990  0.91050  Biso   1.000  H
  H51      1.0000 0.06720  0.95010  0.41050  Biso   1.000  H
  H52      1.0000 0.93280  0.45010  0.08950  Biso   1.000  H
  H53      1.0000 0.97140  0.95020  0.57340  Biso   1.000  H
  H54      1.0000 0.02860  0.45020  0.92660  Biso   1.000  H
  H55      1.0000 0.02860  0.04980  0.42660  Biso   1.000  H
  H56      1.0000 0.97140  0.54980  0.07340  Biso   1.000  H
  H57      1.0000 0.78020  0.04410  0.38070  Biso   1.000  H
  H58      1.0000 0.21980  0.54410  0.11930  Biso   1.000  H
  H59      1.0000 0.21980  0.95590  0.61930  Biso   1.000  H
  H60      1.0000 0.78020  0.45590  0.88070  Biso   1.000  H
  H61      1.0000 0.70610  0.96000  0.34750  Biso   1.000  H
  H62      1.0000 0.29390  0.46000  0.15250  Biso   1.000  H
  H63      1.0000 0.29390  0.04000  0.65250  Biso   1.000  H
  H64      1.0000 0.70610  0.54000  0.84750  Biso   1.000  H
  H65      1.0000 0.19060  0.47280  0.35030  Biso   1.000  H
  H66      1.0000 0.80940  0.97280  0.14970  Biso   1.000  H
  H67      1.0000 0.80940  0.52720  0.64970  Biso   1.000  H
  H68      1.0000 0.19060  0.02720  0.85030  Biso   1.000  H
  H69      1.0000 0.28520  0.44270  0.36950  Biso   1.000  H
  H70      1.0000 0.71480  0.94270  0.13050  Biso   1.000  H
  H71      1.0000 0.71480  0.55730  0.63050  Biso   1.000  H
  H72      1.0000 0.28520  0.05730  0.86950  Biso   1.000  H
  H73      1.0000 0.41830  0.57320  0.61620  Biso   1.000  H
  H74      1.0000 0.58170  0.07320  0.88380  Biso   1.000  H
  H75      1.0000 0.58170  0.42680  0.38380  Biso   1.000  H
  H76      1.0000 0.41830  0.92680  0.11620  Biso   1.000  H
  H77      1.0000 0.51530  0.85780  0.30910  Biso   1.000  H
  H78      1.0000 0.48470  0.35780  0.19090  Biso   1.000  H
  H79      1.0000 0.48470  0.14220  0.69090  Biso   1.000  H
  H80      1.0000 0.51530  0.64220  0.80910  Biso   1.000  H
