data_image0
_cell_length_a       8.244
_cell_length_b       9.858
_cell_length_c       12.13
_cell_angle_alpha    103.88
_cell_angle_beta     96.27
_cell_angle_gamma    105.88

_symmetry_space_group_name_H-M    "P 1"
_symmetry_int_tables_number       1

loop_
  _symmetry_equiv_pos_as_xyz
  'x, y, z'

loop_
  _atom_site_label
  _atom_site_occupancy
  _atom_site_fract_x
  _atom_site_fract_y
  _atom_site_fract_z
  _atom_site_thermal_displace_type
  _atom_site_B_iso_or_equiv
  _atom_site_type_symbol
  C1       1.0000 0.53040  0.54540  0.90230  Biso   1.000  C
  C2       1.0000 0.46960  0.45460  0.09770  Biso   1.000  C
  H1       1.0000 0.55120  0.57510  0.83670  Biso   1.000  H
  H2       1.0000 0.44880  0.42490  0.16330  Biso   1.000  H
  C3       1.0000 0.61240  0.64020  0.01230  Biso   1.000  C
  C4       1.0000 0.38760  0.35980  0.98770  Biso   1.000  C
  C5       1.0000 0.41840  0.40760  0.89150  Biso   1.000  C
  C6       1.0000 0.58160  0.59240  0.10850  Biso   1.000  C
  H3       1.0000 0.36300  0.34630  0.81840  Biso   1.000  H
  H4       1.0000 0.63700  0.65370  0.18160  Biso   1.000  H
  C7       1.0000 0.73480  0.79090  0.02600  Biso   1.000  C
  C8       1.0000 0.26520  0.20910  0.97400  Biso   1.000  C
  C9       1.0000 0.11540  0.88770  0.18700  Biso   1.000  C
  C10      1.0000 0.88460  0.11230  0.81300  Biso   1.000  C
  H5       1.0000 0.01730  0.88990  0.21770  Biso   1.000  H
  H6       1.0000 0.98270  0.11010  0.78230  Biso   1.000  H
  C11      1.0000 0.30250  0.90560  0.07770  Biso   1.000  C
  C12      1.0000 0.69750  0.09440  0.92230  Biso   1.000  C
  H7       1.0000 0.35830  0.92330  0.01760  Biso   1.000  H
  H8       1.0000 0.64170  0.07670  0.98240  Biso   1.000  H
  C13      1.0000 0.36370  0.85880  0.16490  Biso   1.000  C
  C14      1.0000 0.63630  0.14120  0.83510  Biso   1.000  C
  H9       1.0000 0.46660  0.83770  0.17570  Biso   1.000  H
  H10      1.0000 0.53340  0.16230  0.82430  Biso   1.000  H
  C15      1.0000 0.24540  0.79550  0.33620  Biso   1.000  C
  C16      1.0000 0.75460  0.20450  0.66380  Biso   1.000  C
  H11      1.0000 0.16990  0.83100  0.38360  Biso   1.000  H
  H12      1.0000 0.83010  0.16900  0.61640  Biso   1.000  H
  H13      1.0000 0.36080  0.83340  0.38170  Biso   1.000  H
  H14      1.0000 0.63920  0.16660  0.61830  Biso   1.000  H
  C17      1.0000 0.18860  0.63060  0.30250  Biso   1.000  C
  C18      1.0000 0.81140  0.36940  0.69750  Biso   1.000  C
  H15      1.0000 0.26310  0.59370  0.25500  Biso   1.000  H
  H16      1.0000 0.73690  0.40630  0.74500  Biso   1.000  H
  H17      1.0000 0.19300  0.59610  0.37090  Biso   1.000  H
  H18      1.0000 0.80700  0.40390  0.62910  Biso   1.000  H
  C19      1.0000 0.96720  0.43440  0.16580  Biso   1.000  C
  C20      1.0000 0.03280  0.56560  0.83420  Biso   1.000  C
  H19      1.0000 0.05480  0.42410  0.12000  Biso   1.000  H
  H20      1.0000 0.94520  0.57590  0.88000  Biso   1.000  H
  H21      1.0000 0.86100  0.41560  0.11300  Biso   1.000  H
  H22      1.0000 0.13900  0.58440  0.88700  Biso   1.000  H
  C21      1.0000 0.94210  0.32200  0.23290  Biso   1.000  C
  C22      1.0000 0.05790  0.67800  0.76710  Biso   1.000  C
  H23      1.0000 0.92930  0.22630  0.18130  Biso   1.000  H
  H24      1.0000 0.07070  0.77370  0.81870  Biso   1.000  H
  H25      1.0000 0.04310  0.34780  0.29220  Biso   1.000  H
  H26      1.0000 0.95690  0.65220  0.70780  Biso   1.000  H
  C23      1.0000 0.76050  0.42150  0.36640  Biso   1.000  C
  C24      1.0000 0.23950  0.57850  0.63360  Biso   1.000  C
  H27      1.0000 0.83910  0.51470  0.39910  Biso   1.000  H
  H28      1.0000 0.16090  0.48530  0.60090  Biso   1.000  H
  C25      1.0000 0.64570  0.19470  0.26100  Biso   1.000  C
  C26      1.0000 0.35430  0.80530  0.73900  Biso   1.000  C
  H29      1.0000 0.62850  0.10300  0.20960  Biso   1.000  H
  H30      1.0000 0.37150  0.89700  0.79040  Biso   1.000  H
  C27      1.0000 0.53360  0.23580  0.32370  Biso   1.000  C
  C28      1.0000 0.46640  0.76420  0.67630  Biso   1.000  C
  H31      1.0000 0.42340  0.17650  0.32150  Biso   1.000  H
  H32      1.0000 0.57660  0.82350  0.67850  Biso   1.000  H
  C29      1.0000 0.70720  0.74150  0.47130  Biso   1.000  C
  C30      1.0000 0.29280  0.25850  0.52870  Biso   1.000  C
  C31      1.0000 0.85970  0.87470  0.48630  Biso   1.000  C
  C32      1.0000 0.14030  0.12530  0.51370  Biso   1.000  C
  C33      1.0000 0.00120  0.91420  0.57510  Biso   1.000  C
  C34      1.0000 0.99880  0.08580  0.42490  Biso   1.000  C
  H33      1.0000 0.00230  0.85740  0.62610  Biso   1.000  H
  H34      1.0000 0.99770  0.14260  0.37390  Biso   1.000  H
  C35      1.0000 0.85890  0.96190  0.41200  Biso   1.000  C
  C36      1.0000 0.14110  0.03810  0.58800  Biso   1.000  C
  H35      1.0000 0.76470  0.93750  0.35320  Biso   1.000  H
  H36      1.0000 0.23530  0.06250  0.64680  Biso   1.000  H
  N1       1.0000 0.14560  0.92280  0.09130  Biso   1.000  N
  N2       1.0000 0.85440  0.07720  0.90870  Biso   1.000  N
  N3       1.0000 0.24250  0.84900  0.23430  Biso   1.000  N
  N4       1.0000 0.75750  0.15100  0.76570  Biso   1.000  N
  N5       1.0000 0.60600  0.37860  0.39140  Biso   1.000  N
  N6       1.0000 0.39400  0.62140  0.60860  Biso   1.000  N
  N7       1.0000 0.78990  0.31360  0.28750  Biso   1.000  N
  N8       1.0000 0.21010  0.68640  0.71250  Biso   1.000  N
  O1       1.0000 0.82360  0.80330  0.94710  Biso   1.000  O
  O2       1.0000 0.17640  0.19670  0.05290  Biso   1.000  O
  O3       1.0000 0.74810  0.89340  0.11300  Biso   1.000  O
  O4       1.0000 0.25190  0.10660  0.88700  Biso   1.000  O
  O5       1.0000 0.01640  0.58050  0.23920  Biso   1.000  O
  O6       1.0000 0.98360  0.41950  0.76080  Biso   1.000  O
  O7       1.0000 0.58150  0.71190  0.39480  Biso   1.000  O
  O8       1.0000 0.41850  0.28810  0.60520  Biso   1.000  O
  O9       1.0000 0.71810  0.66440  0.54150  Biso   1.000  O
  O10      1.0000 0.28190  0.33560  0.45850  Biso   1.000  O
  Cu1      1.0000 0.00000  0.00000  0.00000  Biso   1.000  Cu
  Cu2      1.0000 0.50000  0.50000  0.50000  Biso   1.000  Cu
