data_image0
_cell_length_a       10.352
_cell_length_b       12.761
_cell_length_c       14.229
_cell_angle_alpha    90
_cell_angle_beta     97.241
_cell_angle_gamma    90

_symmetry_space_group_name_H-M    "P 1"
_symmetry_int_tables_number       1

loop_
  _symmetry_equiv_pos_as_xyz
  'x, y, z'

loop_
  _atom_site_label
  _atom_site_occupancy
  _atom_site_fract_x
  _atom_site_fract_y
  _atom_site_fract_z
  _atom_site_thermal_displace_type
  _atom_site_B_iso_or_equiv
  _atom_site_type_symbol
  C1       1.0000 0.80170  0.37810  0.03300  Biso   1.000  C
  C2       1.0000 0.69830  0.87810  0.46700  Biso   1.000  C
  C3       1.0000 0.19830  0.62190  0.96700  Biso   1.000  C
  C4       1.0000 0.30170  0.12190  0.53300  Biso   1.000  C
  C5       1.0000 0.68510  0.30680  0.01120  Biso   1.000  C
  C6       1.0000 0.81490  0.80680  0.48880  Biso   1.000  C
  C7       1.0000 0.31490  0.69320  0.98880  Biso   1.000  C
  C8       1.0000 0.18510  0.19320  0.51120  Biso   1.000  C
  C9       1.0000 0.56290  0.35370  0.00670  Biso   1.000  C
  C10      1.0000 0.93710  0.85370  0.49330  Biso   1.000  C
  C11      1.0000 0.43710  0.64630  0.99330  Biso   1.000  C
  C12      1.0000 0.06290  0.14630  0.50670  Biso   1.000  C
  H1       1.0000 0.55710  0.42380  0.02350  Biso   1.000  H
  H2       1.0000 0.94290  0.92380  0.47650  Biso   1.000  H
  H3       1.0000 0.44290  0.57620  0.97650  Biso   1.000  H
  H4       1.0000 0.05710  0.07620  0.52350  Biso   1.000  H
  C13      1.0000 0.45020  0.29830  0.97790  Biso   1.000  C
  C14      1.0000 0.04980  0.79830  0.52210  Biso   1.000  C
  C15      1.0000 0.54980  0.70170  0.02210  Biso   1.000  C
  C16      1.0000 0.95020  0.20170  0.47790  Biso   1.000  C
  H5       1.0000 0.36970  0.33110  0.97560  Biso   1.000  H
  H6       1.0000 0.13030  0.83110  0.52440  Biso   1.000  H
  H7       1.0000 0.63030  0.66890  0.02440  Biso   1.000  H
  H8       1.0000 0.86970  0.16890  0.47560  Biso   1.000  H
  C17      1.0000 0.45720  0.19450  0.95250  Biso   1.000  C
  C18      1.0000 0.04280  0.69450  0.54750  Biso   1.000  C
  C19      1.0000 0.54280  0.80550  0.04750  Biso   1.000  C
  C20      1.0000 0.95720  0.30550  0.45250  Biso   1.000  C
  H9       1.0000 0.38170  0.15740  0.93150  Biso   1.000  H
  H10      1.0000 0.11830  0.65740  0.56850  Biso   1.000  H
  H11      1.0000 0.61830  0.84260  0.06850  Biso   1.000  H
  H12      1.0000 0.88170  0.34260  0.43150  Biso   1.000  H
  C21      1.0000 0.57770  0.14570  0.95850  Biso   1.000  C
  C22      1.0000 0.92230  0.64570  0.54150  Biso   1.000  C
  C23      1.0000 0.42230  0.85430  0.04150  Biso   1.000  C
  C24      1.0000 0.07770  0.35430  0.45850  Biso   1.000  C
  H13      1.0000 0.58220  0.07530  0.94230  Biso   1.000  H
  H14      1.0000 0.91780  0.57530  0.55770  Biso   1.000  H
  H15      1.0000 0.41780  0.92470  0.05770  Biso   1.000  H
  H16      1.0000 0.08220  0.42470  0.44230  Biso   1.000  H
  C25      1.0000 0.69150  0.19990  0.98830  Biso   1.000  C
  C26      1.0000 0.80850  0.69990  0.51170  Biso   1.000  C
  C27      1.0000 0.30850  0.80010  0.01170  Biso   1.000  C
  C28      1.0000 0.19150  0.30010  0.48830  Biso   1.000  C
  C29      1.0000 0.81670  0.13970  0.00500  Biso   1.000  C
  C30      1.0000 0.68330  0.63970  0.49500  Biso   1.000  C
  C31      1.0000 0.18330  0.86030  0.99500  Biso   1.000  C
  C32      1.0000 0.31670  0.36030  0.50500  Biso   1.000  C
  C33      1.0000 0.86050  0.95220  0.17040  Biso   1.000  C
  C34      1.0000 0.63950  0.45220  0.32960  Biso   1.000  C
  C35      1.0000 0.13950  0.04780  0.82960  Biso   1.000  C
  C36      1.0000 0.36050  0.54780  0.67040  Biso   1.000  C
  H17      1.0000 0.84690  0.02260  0.18260  Biso   1.000  H
  H18      1.0000 0.65310  0.52260  0.31740  Biso   1.000  H
  H19      1.0000 0.15310  0.97740  0.81740  Biso   1.000  H
  H20      1.0000 0.34690  0.47740  0.68260  Biso   1.000  H
  C37      1.0000 0.82480  0.87220  0.22220  Biso   1.000  C
  C38      1.0000 0.67520  0.37220  0.27780  Biso   1.000  C
  C39      1.0000 0.17520  0.12780  0.77780  Biso   1.000  C
  C40      1.0000 0.32480  0.62780  0.72220  Biso   1.000  C
  H21      1.0000 0.78320  0.87670  0.27630  Biso   1.000  H
  H22      1.0000 0.71680  0.37670  0.22370  Biso   1.000  H
  H23      1.0000 0.21680  0.12330  0.72370  Biso   1.000  H
  H24      1.0000 0.28320  0.62330  0.77630  Biso   1.000  H
  C41      1.0000 0.91950  0.81120  0.10490  Biso   1.000  C
  C42      1.0000 0.58050  0.31120  0.39510  Biso   1.000  C
  C43      1.0000 0.08050  0.18880  0.89510  Biso   1.000  C
  C44      1.0000 0.41950  0.68880  0.60490  Biso   1.000  C
  H25      1.0000 0.95470  0.76490  0.06440  Biso   1.000  H
  H26      1.0000 0.54530  0.26490  0.43560  Biso   1.000  H
  H27      1.0000 0.04530  0.23510  0.93560  Biso   1.000  H
  H28      1.0000 0.45470  0.73510  0.56440  Biso   1.000  H
  C45      1.0000 0.84270  0.67420  0.21180  Biso   1.000  C
  C46      1.0000 0.65730  0.17420  0.28820  Biso   1.000  C
  C47      1.0000 0.15730  0.32580  0.78820  Biso   1.000  C
  C48      1.0000 0.34270  0.82580  0.71180  Biso   1.000  C
  H29      1.0000 0.78230  0.67500  0.25860  Biso   1.000  H
  H30      1.0000 0.71770  0.17500  0.24140  Biso   1.000  H
  H31      1.0000 0.21770  0.32500  0.74140  Biso   1.000  H
  H32      1.0000 0.28230  0.82500  0.75860  Biso   1.000  H
  H33      1.0000 0.80360  0.63290  0.15830  Biso   1.000  H
  H34      1.0000 0.69640  0.13290  0.34170  Biso   1.000  H
  H35      1.0000 0.19640  0.36710  0.84170  Biso   1.000  H
  H36      1.0000 0.30360  0.86710  0.65830  Biso   1.000  H
  C49      1.0000 0.96170  0.62420  0.25210  Biso   1.000  C
  C50      1.0000 0.53830  0.12420  0.24790  Biso   1.000  C
  C51      1.0000 0.03830  0.37580  0.74790  Biso   1.000  C
  C52      1.0000 0.46170  0.87580  0.75210  Biso   1.000  C
  H37      1.0000 0.93610  0.57290  0.29660  Biso   1.000  H
  H38      1.0000 0.56390  0.07290  0.20340  Biso   1.000  H
  H39      1.0000 0.06390  0.42710  0.70340  Biso   1.000  H
  H40      1.0000 0.43610  0.92710  0.79660  Biso   1.000  H
  H41      1.0000 0.99150  0.58440  0.20080  Biso   1.000  H
  H42      1.0000 0.50850  0.08440  0.29920  Biso   1.000  H
  H43      1.0000 0.00850  0.41560  0.79920  Biso   1.000  H
  H44      1.0000 0.49150  0.91560  0.70080  Biso   1.000  H
  C53      1.0000 0.17750  0.62720  0.31690  Biso   1.000  C
  C54      1.0000 0.32250  0.12720  0.18310  Biso   1.000  C
  C55      1.0000 0.82250  0.37280  0.68310  Biso   1.000  C
  C56      1.0000 0.67750  0.87280  0.81690  Biso   1.000  C
  H45      1.0000 0.18190  0.55480  0.29680  Biso   1.000  H
  H46      1.0000 0.31810  0.05480  0.20320  Biso   1.000  H
  H47      1.0000 0.81810  0.44520  0.70320  Biso   1.000  H
  H48      1.0000 0.68190  0.94520  0.79680  Biso   1.000  H
  H49      1.0000 0.19730  0.62930  0.38530  Biso   1.000  H
  H50      1.0000 0.30270  0.12930  0.11470  Biso   1.000  H
  H51      1.0000 0.80270  0.37070  0.61470  Biso   1.000  H
  H52      1.0000 0.69730  0.87070  0.88530  Biso   1.000  H
  C57      1.0000 0.27580  0.69070  0.27330  Biso   1.000  C
  C58      1.0000 0.22420  0.19070  0.22670  Biso   1.000  C
  C59      1.0000 0.72420  0.30930  0.72670  Biso   1.000  C
  C60      1.0000 0.77580  0.80930  0.77330  Biso   1.000  C
  H53      1.0000 0.35930  0.65510  0.28270  Biso   1.000  H
  H54      1.0000 0.14070  0.15510  0.21730  Biso   1.000  H
  H55      1.0000 0.64070  0.34490  0.71730  Biso   1.000  H
  H56      1.0000 0.85930  0.84490  0.78270  Biso   1.000  H
  H57      1.0000 0.24930  0.69640  0.20560  Biso   1.000  H
  H58      1.0000 0.25070  0.19640  0.29440  Biso   1.000  H
  H59      1.0000 0.75070  0.30360  0.79440  Biso   1.000  H
  H60      1.0000 0.74930  0.80360  0.70560  Biso   1.000  H
  C61      1.0000 0.19930  0.87510  0.30830  Biso   1.000  C
  C62      1.0000 0.30070  0.37510  0.19170  Biso   1.000  C
  C63      1.0000 0.80070  0.12490  0.69170  Biso   1.000  C
  C64      1.0000 0.69930  0.62490  0.80830  Biso   1.000  C
  H61      1.0000 0.11840  0.87510  0.27150  Biso   1.000  H
  H62      1.0000 0.38160  0.37510  0.22850  Biso   1.000  H
  H63      1.0000 0.88160  0.12490  0.72850  Biso   1.000  H
  H64      1.0000 0.61840  0.62490  0.77150  Biso   1.000  H
  C65      1.0000 0.25050  0.95240  0.36570  Biso   1.000  C
  C66      1.0000 0.24950  0.45240  0.13430  Biso   1.000  C
  C67      1.0000 0.74950  0.04760  0.63430  Biso   1.000  C
  C68      1.0000 0.75050  0.54760  0.86570  Biso   1.000  C
  H65      1.0000 0.20980  0.01580  0.37500  Biso   1.000  H
  H66      1.0000 0.29020  0.51580  0.12500  Biso   1.000  H
  H67      1.0000 0.79020  0.98420  0.62500  Biso   1.000  H
  H68      1.0000 0.70980  0.48420  0.87500  Biso   1.000  H
  C69      1.0000 0.39210  0.82840  0.37550  Biso   1.000  C
  C70      1.0000 0.10790  0.32840  0.12450  Biso   1.000  C
  C71      1.0000 0.60790  0.17160  0.62450  Biso   1.000  C
  C72      1.0000 0.89210  0.67160  0.87550  Biso   1.000  C
  H69      1.0000 0.46710  0.78900  0.39230  Biso   1.000  H
  H70      1.0000 0.03290  0.28900  0.10770  Biso   1.000  H
  H71      1.0000 0.53290  0.21100  0.60770  Biso   1.000  H
  H72      1.0000 0.96710  0.71100  0.89230  Biso   1.000  H
  N1       1.0000 0.92040  0.91430  0.09600  Biso   1.000  N
  N2       1.0000 0.57960  0.41430  0.40400  Biso   1.000  N
  N3       1.0000 0.07960  0.08570  0.90400  Biso   1.000  N
  N4       1.0000 0.42040  0.58570  0.59600  Biso   1.000  N
  N5       1.0000 0.86140  0.78200  0.17980  Biso   1.000  N
  N6       1.0000 0.63860  0.28200  0.32020  Biso   1.000  N
  N7       1.0000 0.13860  0.21800  0.82020  Biso   1.000  N
  N8       1.0000 0.36140  0.71800  0.67980  Biso   1.000  N
  N9       1.0000 0.29020  0.79650  0.31480  Biso   1.000  N
  N10      1.0000 0.20980  0.29650  0.18520  Biso   1.000  N
  N11      1.0000 0.70980  0.20350  0.68520  Biso   1.000  N
  N12      1.0000 0.79020  0.70350  0.81480  Biso   1.000  N
  N13      1.0000 0.37210  0.92350  0.40860  Biso   1.000  N
  N14      1.0000 0.12790  0.42350  0.09140  Biso   1.000  N
  N15      1.0000 0.62790  0.07650  0.59140  Biso   1.000  N
  N16      1.0000 0.87210  0.57650  0.90860  Biso   1.000  N
  O1       1.0000 0.88990  0.37232  0.97724  Biso   1.000  O
  O2       1.0000 0.61010  0.87232  0.52276  Biso   1.000  O
  O3       1.0000 0.11010  0.62768  0.02276  Biso   1.000  O
  O4       1.0000 0.38990  0.12768  0.47724  Biso   1.000  O
  O5       1.0000 0.80300  0.44470  0.09592  Biso   1.000  O
  O6       1.0000 0.69700  0.94470  0.40408  Biso   1.000  O
  O7       1.0000 0.19700  0.55530  0.90408  Biso   1.000  O
  O8       1.0000 0.30300  0.05530  0.59592  Biso   1.000  O
  O9       1.0000 0.90130  0.16441  0.07196  Biso   1.000  O
  O10      1.0000 0.59870  0.66441  0.42804  Biso   1.000  O
  O11      1.0000 0.09870  0.83559  0.92804  Biso   1.000  O
  O12      1.0000 0.40130  0.33559  0.57196  Biso   1.000  O
  O13      1.0000 0.82840  0.06071  0.95229  Biso   1.000  O
  O14      1.0000 0.67160  0.56071  0.54771  Biso   1.000  O
  O15      1.0000 0.17160  0.93929  0.04771  Biso   1.000  O
  O16      1.0000 0.32840  0.43929  0.45229  Biso   1.000  O
  O17      1.0000 0.05470  0.66500  0.29100  Biso   1.000  O
  O18      1.0000 0.44530  0.16500  0.20900  Biso   1.000  O
  O19      1.0000 0.94530  0.33500  0.70900  Biso   1.000  O
  O20      1.0000 0.55470  0.83500  0.79100  Biso   1.000  O
  Cu1      1.0000 0.50000  0.00000  0.50000  Biso   1.000  Cu
  Cu2      1.0000 0.00000  0.50000  0.00000  Biso   1.000  Cu
  Cu3      1.0000 0.00000  0.00000  0.00000  Biso   1.000  Cu
  Cu4      1.0000 0.50000  0.50000  0.50000  Biso   1.000  Cu
