data_image0
_cell_length_a       17.302
_cell_length_b       13.499
_cell_length_c       13.768
_cell_angle_alpha    90
_cell_angle_beta     102.085
_cell_angle_gamma    90

_symmetry_space_group_name_H-M    "P 1"
_symmetry_int_tables_number       1

loop_
  _symmetry_equiv_pos_as_xyz
  'x, y, z'

loop_
  _atom_site_label
  _atom_site_occupancy
  _atom_site_fract_x
  _atom_site_fract_y
  _atom_site_fract_z
  _atom_site_thermal_displace_type
  _atom_site_B_iso_or_equiv
  _atom_site_type_symbol
  C1       1.0000 0.35250  0.95910  0.33830  Biso   1.000  C
  C2       1.0000 0.85250  0.45910  0.33830  Biso   1.000  C
  C3       1.0000 0.64750  0.95910  0.16170  Biso   1.000  C
  C4       1.0000 0.14750  0.45910  0.16170  Biso   1.000  C
  C5       1.0000 0.64750  0.04090  0.66170  Biso   1.000  C
  C6       1.0000 0.14750  0.54090  0.66170  Biso   1.000  C
  C7       1.0000 0.35250  0.04090  0.83830  Biso   1.000  C
  C8       1.0000 0.85250  0.54090  0.83830  Biso   1.000  C
  H1       1.0000 0.32960  0.02120  0.34050  Biso   1.000  H
  H2       1.0000 0.82960  0.52120  0.34050  Biso   1.000  H
  H3       1.0000 0.67040  0.02120  0.15950  Biso   1.000  H
  H4       1.0000 0.17040  0.52120  0.15950  Biso   1.000  H
  H5       1.0000 0.67040  0.97880  0.65950  Biso   1.000  H
  H6       1.0000 0.17040  0.47880  0.65950  Biso   1.000  H
  H7       1.0000 0.32960  0.97880  0.84050  Biso   1.000  H
  H8       1.0000 0.82960  0.47880  0.84050  Biso   1.000  H
  C9       1.0000 0.31870  0.88230  0.28320  Biso   1.000  C
  C10      1.0000 0.81870  0.38230  0.28320  Biso   1.000  C
  C11      1.0000 0.68130  0.88230  0.21680  Biso   1.000  C
  C12      1.0000 0.18130  0.38230  0.21680  Biso   1.000  C
  C13      1.0000 0.68130  0.11770  0.71680  Biso   1.000  C
  C14      1.0000 0.18130  0.61770  0.71680  Biso   1.000  C
  C15      1.0000 0.31870  0.11770  0.78320  Biso   1.000  C
  C16      1.0000 0.81870  0.61770  0.78320  Biso   1.000  C
  H9       1.0000 0.26910  0.88160  0.24110  Biso   1.000  H
  H10      1.0000 0.76910  0.38160  0.24110  Biso   1.000  H
  H11      1.0000 0.73090  0.88160  0.25890  Biso   1.000  H
  H12      1.0000 0.23090  0.38160  0.25890  Biso   1.000  H
  H13      1.0000 0.73090  0.11840  0.75890  Biso   1.000  H
  H14      1.0000 0.23090  0.61840  0.75890  Biso   1.000  H
  H15      1.0000 0.26910  0.11840  0.74110  Biso   1.000  H
  H16      1.0000 0.76910  0.61840  0.74110  Biso   1.000  H
  C17      1.0000 0.43460  0.83800  0.36520  Biso   1.000  C
  C18      1.0000 0.93460  0.33800  0.36520  Biso   1.000  C
  C19      1.0000 0.56540  0.83800  0.13480  Biso   1.000  C
  C20      1.0000 0.06540  0.33800  0.13480  Biso   1.000  C
  C21      1.0000 0.56540  0.16200  0.63480  Biso   1.000  C
  C22      1.0000 0.06540  0.66200  0.63480  Biso   1.000  C
  C23      1.0000 0.43460  0.16200  0.86520  Biso   1.000  C
  C24      1.0000 0.93460  0.66200  0.86520  Biso   1.000  C
  H17      1.0000 0.47930  0.79970  0.38890  Biso   1.000  H
  H18      1.0000 0.97930  0.29970  0.38890  Biso   1.000  H
  H19      1.0000 0.52070  0.79970  0.11110  Biso   1.000  H
  H20      1.0000 0.02070  0.29970  0.11110  Biso   1.000  H
  H21      1.0000 0.52070  0.20030  0.61110  Biso   1.000  H
  H22      1.0000 0.02070  0.70030  0.61110  Biso   1.000  H
  H23      1.0000 0.47930  0.20030  0.88890  Biso   1.000  H
  H24      1.0000 0.97930  0.70030  0.88890  Biso   1.000  H
  C25      1.0000 0.35800  0.70330  0.26780  Biso   1.000  C
  C26      1.0000 0.85800  0.20330  0.26780  Biso   1.000  C
  C27      1.0000 0.64200  0.70330  0.23220  Biso   1.000  C
  C28      1.0000 0.14200  0.20330  0.23220  Biso   1.000  C
  C29      1.0000 0.64200  0.29670  0.73220  Biso   1.000  C
  C30      1.0000 0.14200  0.79670  0.73220  Biso   1.000  C
  C31      1.0000 0.35800  0.29670  0.76780  Biso   1.000  C
  C32      1.0000 0.85800  0.79670  0.76780  Biso   1.000  C
  H25      1.0000 0.40870  0.67100  0.27240  Biso   1.000  H
  H26      1.0000 0.90870  0.17100  0.27240  Biso   1.000  H
  H27      1.0000 0.59130  0.67100  0.22760  Biso   1.000  H
  H28      1.0000 0.09130  0.17100  0.22760  Biso   1.000  H
  H29      1.0000 0.59130  0.32900  0.72760  Biso   1.000  H
  H30      1.0000 0.09130  0.82900  0.72760  Biso   1.000  H
  H31      1.0000 0.40870  0.32900  0.77240  Biso   1.000  H
  H32      1.0000 0.90870  0.82900  0.77240  Biso   1.000  H
  H33      1.0000 0.33080  0.70250  0.19860  Biso   1.000  H
  H34      1.0000 0.83080  0.20250  0.19860  Biso   1.000  H
  H35      1.0000 0.66920  0.70250  0.30140  Biso   1.000  H
  H36      1.0000 0.16920  0.20250  0.30140  Biso   1.000  H
  H37      1.0000 0.66920  0.29750  0.80140  Biso   1.000  H
  H38      1.0000 0.16920  0.79750  0.80140  Biso   1.000  H
  H39      1.0000 0.33080  0.29750  0.69860  Biso   1.000  H
  H40      1.0000 0.83080  0.79750  0.69860  Biso   1.000  H
  C33      1.0000 0.30990  0.64600  0.32870  Biso   1.000  C
  C34      1.0000 0.80990  0.14600  0.32870  Biso   1.000  C
  C35      1.0000 0.69010  0.64600  0.17130  Biso   1.000  C
  C36      1.0000 0.19010  0.14600  0.17130  Biso   1.000  C
  C37      1.0000 0.69010  0.35400  0.67130  Biso   1.000  C
  C38      1.0000 0.19010  0.85400  0.67130  Biso   1.000  C
  C39      1.0000 0.30990  0.35400  0.82870  Biso   1.000  C
  C40      1.0000 0.80990  0.85400  0.82870  Biso   1.000  C
  H41      1.0000 0.31040  0.57590  0.31320  Biso   1.000  H
  H42      1.0000 0.81040  0.07590  0.31320  Biso   1.000  H
  H43      1.0000 0.68960  0.57590  0.18680  Biso   1.000  H
  H44      1.0000 0.18960  0.07590  0.18680  Biso   1.000  H
  H45      1.0000 0.68960  0.42410  0.68680  Biso   1.000  H
  H46      1.0000 0.18960  0.92410  0.68680  Biso   1.000  H
  H47      1.0000 0.31040  0.42410  0.81320  Biso   1.000  H
  H48      1.0000 0.81040  0.92410  0.81320  Biso   1.000  H
  H49      1.0000 0.33180  0.65460  0.39900  Biso   1.000  H
  H50      1.0000 0.83180  0.15460  0.39900  Biso   1.000  H
  H51      1.0000 0.66820  0.65460  0.10100  Biso   1.000  H
  H52      1.0000 0.16820  0.15460  0.10100  Biso   1.000  H
  H53      1.0000 0.66820  0.34540  0.60100  Biso   1.000  H
  H54      1.0000 0.16820  0.84540  0.60100  Biso   1.000  H
  H55      1.0000 0.33180  0.34540  0.89900  Biso   1.000  H
  H56      1.0000 0.83180  0.84540  0.89900  Biso   1.000  H
  C41      1.0000 0.18130  0.64260  0.36410  Biso   1.000  C
  C42      1.0000 0.68130  0.14260  0.36410  Biso   1.000  C
  C43      1.0000 0.81870  0.64260  0.13590  Biso   1.000  C
  C44      1.0000 0.31870  0.14260  0.13590  Biso   1.000  C
  C45      1.0000 0.81870  0.35740  0.63590  Biso   1.000  C
  C46      1.0000 0.31870  0.85740  0.63590  Biso   1.000  C
  C47      1.0000 0.18130  0.35740  0.86410  Biso   1.000  C
  C48      1.0000 0.68130  0.85740  0.86410  Biso   1.000  C
  H57      1.0000 0.19880  0.66370  0.43250  Biso   1.000  H
  H58      1.0000 0.69880  0.16370  0.43250  Biso   1.000  H
  H59      1.0000 0.80120  0.66370  0.06750  Biso   1.000  H
  H60      1.0000 0.30120  0.16370  0.06750  Biso   1.000  H
  H61      1.0000 0.80120  0.33630  0.56750  Biso   1.000  H
  H62      1.0000 0.30120  0.83630  0.56750  Biso   1.000  H
  H63      1.0000 0.19880  0.33630  0.93250  Biso   1.000  H
  H64      1.0000 0.69880  0.83630  0.93250  Biso   1.000  H
  H65      1.0000 0.18320  0.57080  0.36210  Biso   1.000  H
  H66      1.0000 0.68320  0.07080  0.36210  Biso   1.000  H
  H67      1.0000 0.81680  0.57080  0.13790  Biso   1.000  H
  H68      1.0000 0.31680  0.07080  0.13790  Biso   1.000  H
  H69      1.0000 0.81680  0.42920  0.63790  Biso   1.000  H
  H70      1.0000 0.31680  0.92920  0.63790  Biso   1.000  H
  H71      1.0000 0.18320  0.42920  0.86210  Biso   1.000  H
  H72      1.0000 0.68320  0.92920  0.86210  Biso   1.000  H
  C49      1.0000 0.09870  0.67770  0.32440  Biso   1.000  C
  C50      1.0000 0.59870  0.17770  0.32440  Biso   1.000  C
  C51      1.0000 0.90130  0.67770  0.17560  Biso   1.000  C
  C52      1.0000 0.40130  0.17770  0.17560  Biso   1.000  C
  C53      1.0000 0.90130  0.32230  0.67560  Biso   1.000  C
  C54      1.0000 0.40130  0.82230  0.67560  Biso   1.000  C
  C55      1.0000 0.09870  0.32230  0.82440  Biso   1.000  C
  C56      1.0000 0.59870  0.82230  0.82440  Biso   1.000  C
  H73      1.0000 0.08520  0.66540  0.25350  Biso   1.000  H
  H74      1.0000 0.58520  0.16540  0.25350  Biso   1.000  H
  H75      1.0000 0.91480  0.66540  0.24650  Biso   1.000  H
  H76      1.0000 0.41480  0.16540  0.24650  Biso   1.000  H
  H77      1.0000 0.91480  0.33460  0.74650  Biso   1.000  H
  H78      1.0000 0.41480  0.83460  0.74650  Biso   1.000  H
  H79      1.0000 0.08520  0.33460  0.75350  Biso   1.000  H
  H80      1.0000 0.58520  0.83460  0.75350  Biso   1.000  H
  H81      1.0000 0.06270  0.63930  0.35490  Biso   1.000  H
  H82      1.0000 0.56270  0.13930  0.35490  Biso   1.000  H
  H83      1.0000 0.93730  0.63930  0.14510  Biso   1.000  H
  H84      1.0000 0.43730  0.13930  0.14510  Biso   1.000  H
  H85      1.0000 0.93730  0.36070  0.64510  Biso   1.000  H
  H86      1.0000 0.43730  0.86070  0.64510  Biso   1.000  H
  H87      1.0000 0.06270  0.36070  0.85490  Biso   1.000  H
  H88      1.0000 0.56270  0.86070  0.85490  Biso   1.000  H
  C57      1.0000 0.10730  0.86460  0.29210  Biso   1.000  C
  C58      1.0000 0.60730  0.36460  0.29210  Biso   1.000  C
  C59      1.0000 0.89270  0.86460  0.20790  Biso   1.000  C
  C60      1.0000 0.39270  0.36460  0.20790  Biso   1.000  C
  C61      1.0000 0.89270  0.13540  0.70790  Biso   1.000  C
  C62      1.0000 0.39270  0.63540  0.70790  Biso   1.000  C
  C63      1.0000 0.10730  0.13540  0.79210  Biso   1.000  C
  C64      1.0000 0.60730  0.63540  0.79210  Biso   1.000  C
  H89      1.0000 0.13100  0.86320  0.23740  Biso   1.000  H
  H90      1.0000 0.63100  0.36320  0.23740  Biso   1.000  H
  H91      1.0000 0.86900  0.86320  0.26260  Biso   1.000  H
  H92      1.0000 0.36900  0.36320  0.26260  Biso   1.000  H
  H93      1.0000 0.86900  0.13680  0.76260  Biso   1.000  H
  H94      1.0000 0.36900  0.63680  0.76260  Biso   1.000  H
  H95      1.0000 0.13100  0.13680  0.73740  Biso   1.000  H
  H96      1.0000 0.63100  0.63680  0.73740  Biso   1.000  H
  C65      1.0000 0.08700  0.94460  0.33630  Biso   1.000  C
  C66      1.0000 0.58700  0.44460  0.33630  Biso   1.000  C
  C67      1.0000 0.91300  0.94460  0.16370  Biso   1.000  C
  C68      1.0000 0.41300  0.44460  0.16370  Biso   1.000  C
  C69      1.0000 0.91300  0.05540  0.66370  Biso   1.000  C
  C70      1.0000 0.41300  0.55540  0.66370  Biso   1.000  C
  C71      1.0000 0.08700  0.05540  0.83630  Biso   1.000  C
  C72      1.0000 0.58700  0.55540  0.83630  Biso   1.000  C
  H97      1.0000 0.09460  0.00950  0.31790  Biso   1.000  H
  H98      1.0000 0.59460  0.50950  0.31790  Biso   1.000  H
  H99      1.0000 0.90540  0.00950  0.18210  Biso   1.000  H
  H100     1.0000 0.40540  0.50950  0.18210  Biso   1.000  H
  H101     1.0000 0.90540  0.99050  0.68210  Biso   1.000  H
  H102     1.0000 0.40540  0.49050  0.68210  Biso   1.000  H
  H103     1.0000 0.09460  0.99050  0.81790  Biso   1.000  H
  H104     1.0000 0.59460  0.49050  0.81790  Biso   1.000  H
  C73      1.0000 0.05360  0.82060  0.41410  Biso   1.000  C
  C74      1.0000 0.55360  0.32060  0.41410  Biso   1.000  C
  C75      1.0000 0.94640  0.82060  0.08590  Biso   1.000  C
  C76      1.0000 0.44640  0.32060  0.08590  Biso   1.000  C
  C77      1.0000 0.94640  0.17940  0.58590  Biso   1.000  C
  C78      1.0000 0.44640  0.67940  0.58590  Biso   1.000  C
  C79      1.0000 0.05360  0.17940  0.91410  Biso   1.000  C
  C80      1.0000 0.55360  0.67940  0.91410  Biso   1.000  C
  H105     1.0000 0.03340  0.78180  0.45880  Biso   1.000  H
  H106     1.0000 0.53340  0.28180  0.45880  Biso   1.000  H
  H107     1.0000 0.96660  0.78180  0.04120  Biso   1.000  H
  H108     1.0000 0.46660  0.28180  0.04120  Biso   1.000  H
  H109     1.0000 0.96660  0.21820  0.54120  Biso   1.000  H
  H110     1.0000 0.46660  0.71820  0.54120  Biso   1.000  H
  H111     1.0000 0.03340  0.21820  0.95880  Biso   1.000  H
  H112     1.0000 0.53340  0.71820  0.95880  Biso   1.000  H
  C81      1.0000 0.89500  0.86100  0.50740  Biso   1.000  C
  C82      1.0000 0.39500  0.36100  0.50740  Biso   1.000  C
  C83      1.0000 0.10500  0.86100  0.99260  Biso   1.000  C
  C84      1.0000 0.60500  0.36100  0.99260  Biso   1.000  C
  C85      1.0000 0.10500  0.13900  0.49260  Biso   1.000  C
  C86      1.0000 0.60500  0.63900  0.49260  Biso   1.000  C
  C87      1.0000 0.89500  0.13900  0.00740  Biso   1.000  C
  C88      1.0000 0.39500  0.63900  0.00740  Biso   1.000  C
  C89      1.0000 0.82020  0.80140  0.49680  Biso   1.000  C
  C90      1.0000 0.32020  0.30140  0.49680  Biso   1.000  C
  C91      1.0000 0.17980  0.80140  0.00320  Biso   1.000  C
  C92      1.0000 0.67980  0.30140  0.00320  Biso   1.000  C
  C93      1.0000 0.17980  0.19860  0.50320  Biso   1.000  C
  C94      1.0000 0.67980  0.69860  0.50320  Biso   1.000  C
  C95      1.0000 0.82020  0.19860  0.99680  Biso   1.000  C
  C96      1.0000 0.32020  0.69860  0.99680  Biso   1.000  C
  C97      1.0000 0.74980  0.85250  0.49560  Biso   1.000  C
  C98      1.0000 0.24980  0.35250  0.49560  Biso   1.000  C
  C99      1.0000 0.25020  0.85250  0.00440  Biso   1.000  C
  C100     1.0000 0.75020  0.35250  0.00440  Biso   1.000  C
  C101     1.0000 0.25020  0.14750  0.50440  Biso   1.000  C
  C102     1.0000 0.75020  0.64750  0.50440  Biso   1.000  C
  C103     1.0000 0.74980  0.14750  0.99560  Biso   1.000  C
  C104     1.0000 0.24980  0.64750  0.99560  Biso   1.000  C
  H113     1.0000 0.74950  0.92130  0.49190  Biso   1.000  H
  H114     1.0000 0.24950  0.42130  0.49190  Biso   1.000  H
  H115     1.0000 0.25050  0.92130  0.00810  Biso   1.000  H
  H116     1.0000 0.75050  0.42130  0.00810  Biso   1.000  H
  H117     1.0000 0.25050  0.07870  0.50810  Biso   1.000  H
  H118     1.0000 0.75050  0.57870  0.50810  Biso   1.000  H
  H119     1.0000 0.74950  0.07870  0.99190  Biso   1.000  H
  H120     1.0000 0.24950  0.57870  0.99190  Biso   1.000  H
  C105     1.0000 0.67970  0.80240  0.49990  Biso   1.000  C
  C106     1.0000 0.17970  0.30240  0.49990  Biso   1.000  C
  C107     1.0000 0.32030  0.80240  0.00010  Biso   1.000  C
  C108     1.0000 0.82030  0.30240  0.00010  Biso   1.000  C
  C109     1.0000 0.32030  0.19760  0.50010  Biso   1.000  C
  C110     1.0000 0.82030  0.69760  0.50010  Biso   1.000  C
  C111     1.0000 0.67970  0.19760  0.99990  Biso   1.000  C
  C112     1.0000 0.17970  0.69760  0.99990  Biso   1.000  C
  C113     1.0000 0.89280  0.64040  0.49150  Biso   1.000  C
  C114     1.0000 0.39280  0.14040  0.49150  Biso   1.000  C
  C115     1.0000 0.10720  0.64040  0.00850  Biso   1.000  C
  C116     1.0000 0.60720  0.14040  0.00850  Biso   1.000  C
  C117     1.0000 0.10720  0.35960  0.50850  Biso   1.000  C
  C118     1.0000 0.60720  0.85960  0.50850  Biso   1.000  C
  C119     1.0000 0.89280  0.35960  0.99150  Biso   1.000  C
  C120     1.0000 0.39280  0.85960  0.99150  Biso   1.000  C
  N1       1.0000 0.42670  0.93140  0.39150  Biso   1.000  N
  N2       1.0000 0.92670  0.43140  0.39150  Biso   1.000  N
  N3       1.0000 0.57330  0.93140  0.10850  Biso   1.000  N
  N4       1.0000 0.07330  0.43140  0.10850  Biso   1.000  N
  N5       1.0000 0.57330  0.06860  0.60850  Biso   1.000  N
  N6       1.0000 0.07330  0.56860  0.60850  Biso   1.000  N
  N7       1.0000 0.42670  0.06860  0.89150  Biso   1.000  N
  N8       1.0000 0.92670  0.56860  0.89150  Biso   1.000  N
  N9       1.0000 0.37110  0.80540  0.30060  Biso   1.000  N
  N10      1.0000 0.87110  0.30540  0.30060  Biso   1.000  N
  N11      1.0000 0.62890  0.80540  0.19940  Biso   1.000  N
  N12      1.0000 0.12890  0.30540  0.19940  Biso   1.000  N
  N13      1.0000 0.62890  0.19460  0.69940  Biso   1.000  N
  N14      1.0000 0.12890  0.69460  0.69940  Biso   1.000  N
  N15      1.0000 0.37110  0.19460  0.80060  Biso   1.000  N
  N16      1.0000 0.87110  0.69460  0.80060  Biso   1.000  N
  N17      1.0000 0.08680  0.78380  0.34240  Biso   1.000  N
  N18      1.0000 0.58680  0.28380  0.34240  Biso   1.000  N
  N19      1.0000 0.91320  0.78380  0.15760  Biso   1.000  N
  N20      1.0000 0.41320  0.28380  0.15760  Biso   1.000  N
  N21      1.0000 0.91320  0.21620  0.65760  Biso   1.000  N
  N22      1.0000 0.41320  0.71620  0.65760  Biso   1.000  N
  N23      1.0000 0.08680  0.21620  0.84240  Biso   1.000  N
  N24      1.0000 0.58680  0.71620  0.84240  Biso   1.000  N
  N25      1.0000 0.05270  0.91690  0.41400  Biso   1.000  N
  N26      1.0000 0.55270  0.41690  0.41400  Biso   1.000  N
  N27      1.0000 0.94730  0.91690  0.08600  Biso   1.000  N
  N28      1.0000 0.44730  0.41690  0.08600  Biso   1.000  N
  N29      1.0000 0.94730  0.08310  0.58600  Biso   1.000  N
  N30      1.0000 0.44730  0.58310  0.58600  Biso   1.000  N
  N31      1.0000 0.05270  0.08310  0.91400  Biso   1.000  N
  N32      1.0000 0.55270  0.58310  0.91400  Biso   1.000  N
  O1       1.0000 0.23130  0.68340  0.30430  Biso   1.000  O
  O2       1.0000 0.73130  0.18340  0.30430  Biso   1.000  O
  O3       1.0000 0.76870  0.68340  0.19570  Biso   1.000  O
  O4       1.0000 0.26870  0.18340  0.19570  Biso   1.000  O
  O5       1.0000 0.76870  0.31660  0.69570  Biso   1.000  O
  O6       1.0000 0.26870  0.81660  0.69570  Biso   1.000  O
  O7       1.0000 0.23130  0.31660  0.80430  Biso   1.000  O
  O8       1.0000 0.73130  0.81660  0.80430  Biso   1.000  O
  O9       1.0000 0.89480  0.93280  0.44600  Biso   1.000  O
  O10      1.0000 0.39480  0.43280  0.44600  Biso   1.000  O
  O11      1.0000 0.10520  0.93280  0.05400  Biso   1.000  O
  O12      1.0000 0.60520  0.43280  0.05400  Biso   1.000  O
  O13      1.0000 0.10520  0.06720  0.55400  Biso   1.000  O
  O14      1.0000 0.60520  0.56720  0.55400  Biso   1.000  O
  O15      1.0000 0.89480  0.06720  0.94600  Biso   1.000  O
  O16      1.0000 0.39480  0.56720  0.94600  Biso   1.000  O
  O17      1.0000 0.54880  0.65840  0.42420  Biso   1.000  O
  O18      1.0000 0.04880  0.15840  0.42420  Biso   1.000  O
  O19      1.0000 0.45120  0.65840  0.07580  Biso   1.000  O
  O20      1.0000 0.95120  0.15840  0.07580  Biso   1.000  O
  O21      1.0000 0.45120  0.34160  0.57580  Biso   1.000  O
  O22      1.0000 0.95120  0.84160  0.57580  Biso   1.000  O
  O23      1.0000 0.54880  0.34160  0.92420  Biso   1.000  O
  O24      1.0000 0.04880  0.84160  0.92420  Biso   1.000  O
  O25      1.0000 0.90670  0.56060  0.54300  Biso   1.000  O
  O26      1.0000 0.40670  0.06060  0.54300  Biso   1.000  O
  O27      1.0000 0.09330  0.56060  0.95700  Biso   1.000  O
  O28      1.0000 0.59330  0.06060  0.95700  Biso   1.000  O
  O29      1.0000 0.09330  0.43940  0.45700  Biso   1.000  O
  O30      1.0000 0.59330  0.93940  0.45700  Biso   1.000  O
  O31      1.0000 0.90670  0.43940  0.04300  Biso   1.000  O
  O32      1.0000 0.40670  0.93940  0.04300  Biso   1.000  O
  O33      1.0000 0.93270  0.66640  0.43140  Biso   1.000  O
  O34      1.0000 0.43270  0.16640  0.43140  Biso   1.000  O
  O35      1.0000 0.06730  0.66640  0.06860  Biso   1.000  O
  O36      1.0000 0.56730  0.16640  0.06860  Biso   1.000  O
  O37      1.0000 0.06730  0.33360  0.56860  Biso   1.000  O
  O38      1.0000 0.56730  0.83360  0.56860  Biso   1.000  O
  O39      1.0000 0.93270  0.33360  0.93140  Biso   1.000  O
  O40      1.0000 0.43270  0.83360  0.93140  Biso   1.000  O
  Cu1      1.0000 0.50000  0.00000  0.50000  Biso   1.000  Cu
  Cu2      1.0000 0.00000  0.50000  0.50000  Biso   1.000  Cu
  Cu3      1.0000 0.50000  0.00000  0.00000  Biso   1.000  Cu
  Cu4      1.0000 0.00000  0.50000  0.00000  Biso   1.000  Cu
  Cu5      1.0000 0.00000  0.00000  0.50000  Biso   1.000  Cu
  Cu6      1.0000 0.50000  0.50000  0.50000  Biso   1.000  Cu
  Cu7      1.0000 0.00000  0.00000  0.00000  Biso   1.000  Cu
  Cu8      1.0000 0.50000  0.50000  0.00000  Biso   1.000  Cu
