data_image0
_cell_length_a       13.542
_cell_length_b       16.939
_cell_length_c       13.351
_cell_angle_alpha    90
_cell_angle_beta     112.484
_cell_angle_gamma    90

_symmetry_space_group_name_H-M    "P 1"
_symmetry_int_tables_number       1

loop_
  _symmetry_equiv_pos_as_xyz
  'x, y, z'

loop_
  _atom_site_label
  _atom_site_occupancy
  _atom_site_fract_x
  _atom_site_fract_y
  _atom_site_fract_z
  _atom_site_thermal_displace_type
  _atom_site_B_iso_or_equiv
  _atom_site_type_symbol
  C1       1.0000 0.04230  0.21520  0.30010  Biso   1.000  C
  C2       1.0000 0.95770  0.71520  0.19990  Biso   1.000  C
  C3       1.0000 0.95770  0.78480  0.69990  Biso   1.000  C
  C4       1.0000 0.04230  0.28480  0.80010  Biso   1.000  C
  H1       1.0000 0.97050  0.20610  0.28570  Biso   1.000  H
  H2       1.0000 0.02950  0.70610  0.21430  Biso   1.000  H
  H3       1.0000 0.02950  0.79390  0.71430  Biso   1.000  H
  H4       1.0000 0.97050  0.29390  0.78570  Biso   1.000  H
  C5       1.0000 0.09270  0.28022  0.36110  Biso   1.000  C
  C6       1.0000 0.90730  0.78022  0.13890  Biso   1.000  C
  C7       1.0000 0.90730  0.71978  0.63890  Biso   1.000  C
  C8       1.0000 0.09270  0.21978  0.86110  Biso   1.000  C
  C9       1.0000 0.20120  0.29205  0.38520  Biso   1.000  C
  C10      1.0000 0.79880  0.79205  0.11480  Biso   1.000  C
  C11      1.0000 0.79880  0.70795  0.61480  Biso   1.000  C
  C12      1.0000 0.20120  0.20795  0.88520  Biso   1.000  C
  H5       1.0000 0.23610  0.33500  0.42730  Biso   1.000  H
  H6       1.0000 0.76390  0.83500  0.07270  Biso   1.000  H
  H7       1.0000 0.76390  0.66500  0.57270  Biso   1.000  H
  H8       1.0000 0.23610  0.16500  0.92730  Biso   1.000  H
  C13      1.0000 0.25710  0.23997  0.34650  Biso   1.000  C
  C14      1.0000 0.74290  0.73997  0.15350  Biso   1.000  C
  C15      1.0000 0.74290  0.76003  0.65350  Biso   1.000  C
  C16      1.0000 0.25710  0.26003  0.84650  Biso   1.000  C
  H9       1.0000 0.32980  0.24750  0.36430  Biso   1.000  H
  H10      1.0000 0.67020  0.74750  0.13570  Biso   1.000  H
  H11      1.0000 0.67020  0.75250  0.63570  Biso   1.000  H
  H12      1.0000 0.32980  0.25250  0.86430  Biso   1.000  H
  C17      1.0000 0.20560  0.17658  0.28150  Biso   1.000  C
  C18      1.0000 0.79440  0.67658  0.21850  Biso   1.000  C
  C19      1.0000 0.79440  0.82342  0.71850  Biso   1.000  C
  C20      1.0000 0.20560  0.32342  0.78150  Biso   1.000  C
  H13      1.0000 0.24260  0.14330  0.25260  Biso   1.000  H
  H14      1.0000 0.75740  0.64330  0.24740  Biso   1.000  H
  H15      1.0000 0.75740  0.85670  0.74740  Biso   1.000  H
  H16      1.0000 0.24260  0.35670  0.75260  Biso   1.000  H
  C21      1.0000 0.09810  0.16357  0.26020  Biso   1.000  C
  C22      1.0000 0.90190  0.66357  0.23980  Biso   1.000  C
  C23      1.0000 0.90190  0.83643  0.73980  Biso   1.000  C
  C24      1.0000 0.09810  0.33643  0.76020  Biso   1.000  C
  C25      1.0000 0.03810  0.09546  0.19200  Biso   1.000  C
  C26      1.0000 0.96190  0.59546  0.30800  Biso   1.000  C
  C27      1.0000 0.96190  0.90454  0.80800  Biso   1.000  C
  C28      1.0000 0.03810  0.40454  0.69200  Biso   1.000  C
  C29      1.0000 0.02790  0.33739  0.39810  Biso   1.000  C
  C30      1.0000 0.97210  0.83739  0.10190  Biso   1.000  C
  C31      1.0000 0.97210  0.66261  0.60190  Biso   1.000  C
  C32      1.0000 0.02790  0.16261  0.89810  Biso   1.000  C
  C33      1.0000 0.64850  0.34330  0.51620  Biso   1.000  C
  C34      1.0000 0.35150  0.84330  0.98380  Biso   1.000  C
  C35      1.0000 0.35150  0.65670  0.48380  Biso   1.000  C
  C36      1.0000 0.64850  0.15670  0.01620  Biso   1.000  C
  C37      1.0000 0.59870  0.36059  0.59670  Biso   1.000  C
  C38      1.0000 0.40130  0.86059  0.90330  Biso   1.000  C
  C39      1.0000 0.40130  0.63941  0.40330  Biso   1.000  C
  C40      1.0000 0.59870  0.13941  0.09670  Biso   1.000  C
  C41      1.0000 0.50010  0.39744  0.56170  Biso   1.000  C
  C42      1.0000 0.49990  0.89744  0.93830  Biso   1.000  C
  C43      1.0000 0.49990  0.60256  0.43830  Biso   1.000  C
  C44      1.0000 0.50010  0.10256  0.06170  Biso   1.000  C
  H17      1.0000 0.46510  0.40930  0.48860  Biso   1.000  H
  H18      1.0000 0.53490  0.90930  0.01140  Biso   1.000  H
  H19      1.0000 0.53490  0.59070  0.51140  Biso   1.000  H
  H20      1.0000 0.46510  0.09070  0.98860  Biso   1.000  H
  C45      1.0000 0.45230  0.41706  0.63390  Biso   1.000  C
  C46      1.0000 0.54770  0.91706  0.86610  Biso   1.000  C
  C47      1.0000 0.54770  0.58294  0.36610  Biso   1.000  C
  C48      1.0000 0.45230  0.08294  0.13390  Biso   1.000  C
  C49      1.0000 0.34910  0.46253  0.59420  Biso   1.000  C
  C50      1.0000 0.65090  0.96253  0.90580  Biso   1.000  C
  C51      1.0000 0.65090  0.53747  0.40580  Biso   1.000  C
  C52      1.0000 0.34910  0.03747  0.09420  Biso   1.000  C
  C53      1.0000 0.50170  0.39500  0.74130  Biso   1.000  C
  C54      1.0000 0.49830  0.89500  0.75870  Biso   1.000  C
  C55      1.0000 0.49830  0.60500  0.25870  Biso   1.000  C
  C56      1.0000 0.50170  0.10500  0.24130  Biso   1.000  C
  H21      1.0000 0.46970  0.40640  0.79010  Biso   1.000  H
  H22      1.0000 0.53030  0.90640  0.70990  Biso   1.000  H
  H23      1.0000 0.53030  0.59360  0.20990  Biso   1.000  H
  H24      1.0000 0.46970  0.09360  0.29010  Biso   1.000  H
  C57      1.0000 0.59890  0.35590  0.77630  Biso   1.000  C
  C58      1.0000 0.40110  0.85590  0.72370  Biso   1.000  C
  C59      1.0000 0.40110  0.64410  0.22370  Biso   1.000  C
  C60      1.0000 0.59890  0.14410  0.27630  Biso   1.000  C
  H25      1.0000 0.63090  0.33980  0.84820  Biso   1.000  H
  H26      1.0000 0.36910  0.83980  0.65180  Biso   1.000  H
  H27      1.0000 0.36910  0.66020  0.15180  Biso   1.000  H
  H28      1.0000 0.63090  0.16020  0.34820  Biso   1.000  H
  C61      1.0000 0.64870  0.34050  0.70520  Biso   1.000  C
  C62      1.0000 0.35130  0.84050  0.79480  Biso   1.000  C
  C63      1.0000 0.35130  0.65950  0.29480  Biso   1.000  C
  C64      1.0000 0.64870  0.15950  0.20520  Biso   1.000  C
  H29      1.0000 0.71570  0.31670  0.73020  Biso   1.000  H
  H30      1.0000 0.28430  0.81670  0.76980  Biso   1.000  H
  H31      1.0000 0.28430  0.68330  0.26980  Biso   1.000  H
  H32      1.0000 0.71570  0.18330  0.23020  Biso   1.000  H
  C65      1.0000 0.71640  0.94720  0.23420  Biso   1.000  C
  C66      1.0000 0.28360  0.44720  0.26580  Biso   1.000  C
  C67      1.0000 0.28360  0.05280  0.76580  Biso   1.000  C
  C68      1.0000 0.71640  0.55280  0.73420  Biso   1.000  C
  H33      1.0000 0.64940  0.96430  0.18720  Biso   1.000  H
  H34      1.0000 0.35060  0.46430  0.31280  Biso   1.000  H
  H35      1.0000 0.35060  0.03570  0.81280  Biso   1.000  H
  H36      1.0000 0.64940  0.53570  0.68720  Biso   1.000  H
  C69      1.0000 0.88570  0.93060  0.31130  Biso   1.000  C
  C70      1.0000 0.11430  0.43060  0.18870  Biso   1.000  C
  C71      1.0000 0.11430  0.06940  0.68870  Biso   1.000  C
  C72      1.0000 0.88570  0.56940  0.81130  Biso   1.000  C
  H37      1.0000 0.95870  0.93420  0.32720  Biso   1.000  H
  H38      1.0000 0.04130  0.43420  0.17280  Biso   1.000  H
  H39      1.0000 0.04130  0.06580  0.67280  Biso   1.000  H
  H40      1.0000 0.95870  0.56580  0.82720  Biso   1.000  H
  C73      1.0000 0.84020  0.88830  0.36780  Biso   1.000  C
  C74      1.0000 0.15980  0.38830  0.13220  Biso   1.000  C
  C75      1.0000 0.15980  0.11170  0.63220  Biso   1.000  C
  C76      1.0000 0.84020  0.61170  0.86780  Biso   1.000  C
  H41      1.0000 0.87550  0.85780  0.42900  Biso   1.000  H
  H42      1.0000 0.12450  0.35780  0.07100  Biso   1.000  H
  H43      1.0000 0.12450  0.14220  0.57100  Biso   1.000  H
  H44      1.0000 0.87550  0.64220  0.92900  Biso   1.000  H
  C77      1.0000 0.77820  0.04630  0.63160  Biso   1.000  C
  C78      1.0000 0.22180  0.54630  0.86840  Biso   1.000  C
  C79      1.0000 0.22180  0.95370  0.36840  Biso   1.000  C
  C80      1.0000 0.77820  0.45370  0.13160  Biso   1.000  C
  H45      1.0000 0.77090  0.07390  0.69200  Biso   1.000  H
  H46      1.0000 0.22910  0.57390  0.80800  Biso   1.000  H
  H47      1.0000 0.22910  0.92610  0.30800  Biso   1.000  H
  H48      1.0000 0.77090  0.42610  0.19200  Biso   1.000  H
  H49      1.0000 0.83230  0.00580  0.66090  Biso   1.000  H
  H50      1.0000 0.16770  0.50580  0.83910  Biso   1.000  H
  H51      1.0000 0.16770  0.99420  0.33910  Biso   1.000  H
  H52      1.0000 0.83230  0.49420  0.16090  Biso   1.000  H
  C81      1.0000 0.85550  0.08470  0.49260  Biso   1.000  C
  C82      1.0000 0.14450  0.58470  0.00740  Biso   1.000  C
  C83      1.0000 0.14450  0.91530  0.50740  Biso   1.000  C
  C84      1.0000 0.85550  0.41530  0.99260  Biso   1.000  C
  H53      1.0000 0.86830  0.03460  0.47180  Biso   1.000  H
  H54      1.0000 0.13170  0.53460  0.02820  Biso   1.000  H
  H55      1.0000 0.13170  0.96540  0.52820  Biso   1.000  H
  H56      1.0000 0.86830  0.46540  0.97180  Biso   1.000  H
  C85      1.0000 0.87440  0.15402  0.45440  Biso   1.000  C
  C86      1.0000 0.12560  0.65402  0.04560  Biso   1.000  C
  C87      1.0000 0.12560  0.84598  0.54560  Biso   1.000  C
  C88      1.0000 0.87440  0.34598  0.95440  Biso   1.000  C
  H57      1.0000 0.90390  0.15990  0.40230  Biso   1.000  H
  H58      1.0000 0.09610  0.65990  0.09770  Biso   1.000  H
  H59      1.0000 0.09610  0.84010  0.59770  Biso   1.000  H
  H60      1.0000 0.90390  0.34010  0.90230  Biso   1.000  H
  C89      1.0000 0.80770  0.18120  0.57270  Biso   1.000  C
  C90      1.0000 0.19230  0.68120  0.92730  Biso   1.000  C
  C91      1.0000 0.19230  0.81880  0.42730  Biso   1.000  C
  C92      1.0000 0.80770  0.31880  0.07270  Biso   1.000  C
  H61      1.0000 0.78180  0.20830  0.61800  Biso   1.000  H
  H62      1.0000 0.21820  0.70830  0.88200  Biso   1.000  H
  H63      1.0000 0.21820  0.79170  0.38200  Biso   1.000  H
  H64      1.0000 0.78180  0.29170  0.11800  Biso   1.000  H
  N1       1.0000 0.80750  0.96755  0.22680  Biso   1.000  N
  N2       1.0000 0.19250  0.46755  0.27320  Biso   1.000  N
  N3       1.0000 0.19250  0.03245  0.77320  Biso   1.000  N
  N4       1.0000 0.80750  0.53245  0.72680  Biso   1.000  N
  N5       1.0000 0.81370  0.10244  0.56840  Biso   1.000  N
  N6       1.0000 0.18630  0.60244  0.93160  Biso   1.000  N
  N7       1.0000 0.18630  0.89756  0.43160  Biso   1.000  N
  N8       1.0000 0.81370  0.39756  0.06840  Biso   1.000  N
  N9       1.0000 0.84330  0.21504  0.50420  Biso   1.000  N
  N10      1.0000 0.15670  0.71504  0.99580  Biso   1.000  N
  N11      1.0000 0.15670  0.78496  0.49580  Biso   1.000  N
  N12      1.0000 0.84330  0.28496  0.00420  Biso   1.000  N
  O1       1.0000 0.95254  0.07607  0.20193  Biso   1.000  O
  O2       1.0000 0.04746  0.57607  0.29807  Biso   1.000  O
  O3       1.0000 0.04746  0.92393  0.79807  Biso   1.000  O
  O4       1.0000 0.95254  0.42393  0.70193  Biso   1.000  O
  O5       1.0000 0.07792  0.06357  0.13156  Biso   1.000  O
  O6       1.0000 0.92208  0.56357  0.36844  Biso   1.000  O
  O7       1.0000 0.92208  0.93643  0.86844  Biso   1.000  O
  O8       1.0000 0.07792  0.43643  0.63156  Biso   1.000  O
  O9       1.0000 0.05488  0.40742  0.41110  Biso   1.000  O
  O10      1.0000 0.94512  0.90742  0.08890  Biso   1.000  O
  O11      1.0000 0.94512  0.59258  0.58890  Biso   1.000  O
  O12      1.0000 0.05488  0.09258  0.91110  Biso   1.000  O
  O13      1.0000 0.94780  0.30684  0.40980  Biso   1.000  O
  O14      1.0000 0.05220  0.80684  0.09020  Biso   1.000  O
  O15      1.0000 0.05220  0.69316  0.59020  Biso   1.000  O
  O16      1.0000 0.94780  0.19316  0.90980  Biso   1.000  O
  O17      1.0000 0.86442  0.05455  0.97915  Biso   1.000  O
  O18      1.0000 0.13558  0.55455  0.52085  Biso   1.000  O
  O19      1.0000 0.13558  0.94545  0.02085  Biso   1.000  O
  O20      1.0000 0.86442  0.44545  0.47915  Biso   1.000  O
  O21      1.0000 0.75063  0.34730  0.55390  Biso   1.000  O
  O22      1.0000 0.24937  0.84730  0.94610  Biso   1.000  O
  O23      1.0000 0.24937  0.65270  0.44610  Biso   1.000  O
  O24      1.0000 0.75063  0.15270  0.05390  Biso   1.000  O
  O25      1.0000 0.59070  0.32670  0.42240  Biso   1.000  O
  O26      1.0000 0.40930  0.82670  0.07760  Biso   1.000  O
  O27      1.0000 0.40930  0.67330  0.57760  Biso   1.000  O
  O28      1.0000 0.59070  0.17330  0.92240  Biso   1.000  O
  O29      1.0000 0.30614  0.47141  0.49260  Biso   1.000  O
  O30      1.0000 0.69386  0.97141  0.00740  Biso   1.000  O
  O31      1.0000 0.69386  0.52859  0.50740  Biso   1.000  O
  O32      1.0000 0.30614  0.02859  0.99260  Biso   1.000  O
  O33      1.0000 0.31368  0.48780  0.66188  Biso   1.000  O
  O34      1.0000 0.68632  0.98780  0.83812  Biso   1.000  O
  O35      1.0000 0.68632  0.51220  0.33812  Biso   1.000  O
  O36      1.0000 0.31368  0.01220  0.16188  Biso   1.000  O
  C93      1.0000 0.67470  0.00800  0.56600  Biso   1.000  C
  C94      1.0000 0.32530  0.50800  0.93400  Biso   1.000  C
  C95      1.0000 0.32530  0.99200  0.43400  Biso   1.000  C
  C96      1.0000 0.67470  0.49200  0.06600  Biso   1.000  C
  H65      1.0000 0.64440  0.98150  0.61210  Biso   1.000  H
  H66      1.0000 0.35560  0.48150  0.88790  Biso   1.000  H
  H67      1.0000 0.35560  0.01850  0.38790  Biso   1.000  H
  H68      1.0000 0.64440  0.51850  0.11210  Biso   1.000  H
  H69      1.0000 0.62360  0.04630  0.52110  Biso   1.000  H
  H70      1.0000 0.37640  0.54630  0.97890  Biso   1.000  H
  H71      1.0000 0.37640  0.95370  0.47890  Biso   1.000  H
  H72      1.0000 0.62360  0.45370  0.02110  Biso   1.000  H
  C97      1.0000 0.65930  0.85930  0.35550  Biso   1.000  C
  C98      1.0000 0.34070  0.35930  0.14450  Biso   1.000  C
  C99      1.0000 0.34070  0.14070  0.64450  Biso   1.000  C
  C100     1.0000 0.65930  0.64070  0.85550  Biso   1.000  C
  H73      1.0000 0.69170  0.81160  0.39440  Biso   1.000  H
  H74      1.0000 0.30830  0.31160  0.10560  Biso   1.000  H
  H75      1.0000 0.30830  0.18840  0.60560  Biso   1.000  H
  H76      1.0000 0.69170  0.68840  0.89440  Biso   1.000  H
  H77      1.0000 0.59550  0.84450  0.29390  Biso   1.000  H
  H78      1.0000 0.40450  0.34450  0.20610  Biso   1.000  H
  H79      1.0000 0.40450  0.15550  0.70610  Biso   1.000  H
  H80      1.0000 0.59550  0.65550  0.79390  Biso   1.000  H
  C101     1.0000 0.62910  0.91530  0.43110  Biso   1.000  C
  C102     1.0000 0.37090  0.41530  0.06890  Biso   1.000  C
  C103     1.0000 0.37090  0.08470  0.56890  Biso   1.000  C
  C104     1.0000 0.62910  0.58470  0.93110  Biso   1.000  C
  H81      1.0000 0.57830  0.95390  0.38660  Biso   1.000  H
  H82      1.0000 0.42170  0.45390  0.11340  Biso   1.000  H
  H83      1.0000 0.42170  0.04610  0.61340  Biso   1.000  H
  H84      1.0000 0.57830  0.54610  0.88660  Biso   1.000  H
  H85      1.0000 0.59340  0.88470  0.46860  Biso   1.000  H
  H86      1.0000 0.40660  0.38470  0.03140  Biso   1.000  H
  H87      1.0000 0.40660  0.11530  0.53140  Biso   1.000  H
  H88      1.0000 0.59340  0.61530  0.96860  Biso   1.000  H
  C105     1.0000 0.62660  0.88180  0.34160  Biso   1.000  C
  C106     1.0000 0.37340  0.38180  0.15840  Biso   1.000  C
  C107     1.0000 0.37340  0.11820  0.65840  Biso   1.000  C
  C108     1.0000 0.62660  0.61820  0.84160  Biso   1.000  C
  H89      1.0000 0.56770  0.88140  0.27160  Biso   1.000  H
  H90      1.0000 0.43230  0.38140  0.22840  Biso   1.000  H
  H91      1.0000 0.43230  0.11860  0.72840  Biso   1.000  H
  H92      1.0000 0.56770  0.61860  0.77160  Biso   1.000  H
  H93      1.0000 0.63320  0.82830  0.36940  Biso   1.000  H
  H94      1.0000 0.36680  0.32830  0.13060  Biso   1.000  H
  H95      1.0000 0.36680  0.17170  0.63060  Biso   1.000  H
  H96      1.0000 0.63320  0.67170  0.86940  Biso   1.000  H
  C109     1.0000 0.59920  0.92040  0.39830  Biso   1.000  C
  C110     1.0000 0.40080  0.42040  0.10170  Biso   1.000  C
  C111     1.0000 0.40080  0.07960  0.60170  Biso   1.000  C
  C112     1.0000 0.59920  0.57960  0.89830  Biso   1.000  C
  H97      1.0000 0.59160  0.88300  0.44990  Biso   1.000  H
  H98      1.0000 0.40840  0.38300  0.05010  Biso   1.000  H
  H99      1.0000 0.40840  0.11700  0.55010  Biso   1.000  H
  H100     1.0000 0.59160  0.61700  0.94990  Biso   1.000  H
  H101     1.0000 0.52700  0.93600  0.35280  Biso   1.000  H
  H102     1.0000 0.47300  0.43600  0.14720  Biso   1.000  H
  H103     1.0000 0.47300  0.06400  0.64720  Biso   1.000  H
  H104     1.0000 0.52700  0.56400  0.85280  Biso   1.000  H
  N13      1.0000 0.73340  0.89884  0.31830  Biso   1.000  N
  N14      1.0000 0.26660  0.39884  0.18170  Biso   1.000  N
  N15      1.0000 0.26660  0.10116  0.68170  Biso   1.000  N
  N16      1.0000 0.73340  0.60116  0.81830  Biso   1.000  N
  O37      1.0000 0.70470  0.95090  0.49930  Biso   1.000  O
  O38      1.0000 0.29530  0.45090  0.00070  Biso   1.000  O
  O39      1.0000 0.29530  0.04910  0.50070  Biso   1.000  O
  O40      1.0000 0.70470  0.54910  0.99930  Biso   1.000  O
  O41      1.0000 0.64160  0.98680  0.45990  Biso   1.000  O
  O42      1.0000 0.35840  0.48680  0.04010  Biso   1.000  O
  O43      1.0000 0.35840  0.01320  0.54010  Biso   1.000  O
  O44      1.0000 0.64160  0.51320  0.95990  Biso   1.000  O
  Cu1      1.0000 0.84553  0.33019  0.47476  Biso   1.000  Cu
  Cu2      1.0000 0.15447  0.83019  0.02524  Biso   1.000  Cu
  Cu3      1.0000 0.15447  0.66981  0.52524  Biso   1.000  Cu
  Cu4      1.0000 0.84553  0.16981  0.97476  Biso   1.000  Cu
  Cu5      1.0000 0.83066  0.01602  0.10217  Biso   1.000  Cu
  Cu6      1.0000 0.16934  0.51602  0.39783  Biso   1.000  Cu
  Cu7      1.0000 0.16934  0.98398  0.89783  Biso   1.000  Cu
  Cu8      1.0000 0.83066  0.48398  0.60217  Biso   1.000  Cu
  Cu9      1.0000 0.00000  0.00000  0.00000  Biso   1.000  Cu
  Cu10     1.0000 0.00000  0.50000  0.50000  Biso   1.000  Cu
  O45      1.0000 0.69360  0.15490  0.79090  Biso   1.000  O
  O46      1.0000 0.30640  0.65490  0.70910  Biso   1.000  O
  O47      1.0000 0.30640  0.84510  0.20910  Biso   1.000  O
  O48      1.0000 0.69360  0.34510  0.29090  Biso   1.000  O
  H105     1.0000 0.63000  0.13700  0.73500  Biso   1.000  H
  H106     1.0000 0.37000  0.63700  0.76500  Biso   1.000  H
  H107     1.0000 0.37000  0.86300  0.26500  Biso   1.000  H
  H108     1.0000 0.63000  0.36300  0.23500  Biso   1.000  H
  H109     1.0000 0.66300  0.17700  0.83700  Biso   1.000  H
  H110     1.0000 0.33700  0.67700  0.66300  Biso   1.000  H
  H111     1.0000 0.33700  0.82300  0.16300  Biso   1.000  H
  H112     1.0000 0.66300  0.32300  0.33700  Biso   1.000  H
