data_image0
_cell_length_a       11.7668
_cell_length_b       16.821
_cell_length_c       20.579
_cell_angle_alpha    90
_cell_angle_beta     90
_cell_angle_gamma    90

_symmetry_space_group_name_H-M    "P 1"
_symmetry_int_tables_number       1

loop_
  _symmetry_equiv_pos_as_xyz
  'x, y, z'

loop_
  _atom_site_label
  _atom_site_occupancy
  _atom_site_fract_x
  _atom_site_fract_y
  _atom_site_fract_z
  _atom_site_thermal_displace_type
  _atom_site_B_iso_or_equiv
  _atom_site_type_symbol
  C1       1.0000 0.59790  0.93720  0.66180  Biso   1.000  C
  C2       1.0000 0.90210  0.56280  0.16180  Biso   1.000  C
  C3       1.0000 0.09790  0.56280  0.33820  Biso   1.000  C
  C4       1.0000 0.40210  0.93720  0.83820  Biso   1.000  C
  C5       1.0000 0.40210  0.06280  0.33820  Biso   1.000  C
  C6       1.0000 0.09790  0.43720  0.83820  Biso   1.000  C
  C7       1.0000 0.90210  0.43720  0.66180  Biso   1.000  C
  C8       1.0000 0.59790  0.06280  0.16180  Biso   1.000  C
  C9       1.0000 0.52120  0.86490  0.66440  Biso   1.000  C
  C10      1.0000 0.97880  0.63510  0.16440  Biso   1.000  C
  C11      1.0000 0.02120  0.63510  0.33560  Biso   1.000  C
  C12      1.0000 0.47880  0.86490  0.83560  Biso   1.000  C
  C13      1.0000 0.47880  0.13510  0.33560  Biso   1.000  C
  C14      1.0000 0.02120  0.36490  0.83560  Biso   1.000  C
  C15      1.0000 0.97880  0.36490  0.66440  Biso   1.000  C
  C16      1.0000 0.52120  0.13510  0.16440  Biso   1.000  C
  C17      1.0000 0.40530  0.87380  0.67550  Biso   1.000  C
  C18      1.0000 0.09470  0.62620  0.17550  Biso   1.000  C
  C19      1.0000 0.90530  0.62620  0.32450  Biso   1.000  C
  C20      1.0000 0.59470  0.87380  0.82450  Biso   1.000  C
  C21      1.0000 0.59470  0.12620  0.32450  Biso   1.000  C
  C22      1.0000 0.90530  0.37380  0.82450  Biso   1.000  C
  C23      1.0000 0.09470  0.37380  0.67550  Biso   1.000  C
  C24      1.0000 0.40530  0.12620  0.17550  Biso   1.000  C
  H1       1.0000 0.37420  0.92460  0.67710  Biso   1.000  H
  H2       1.0000 0.12580  0.57540  0.17710  Biso   1.000  H
  H3       1.0000 0.87420  0.57540  0.32290  Biso   1.000  H
  H4       1.0000 0.62580  0.92460  0.82290  Biso   1.000  H
  H5       1.0000 0.62580  0.07540  0.32290  Biso   1.000  H
  H6       1.0000 0.87420  0.42460  0.82290  Biso   1.000  H
  H7       1.0000 0.12580  0.42460  0.67710  Biso   1.000  H
  H8       1.0000 0.37420  0.07540  0.17710  Biso   1.000  H
  C25      1.0000 0.33480  0.80820  0.68450  Biso   1.000  C
  C26      1.0000 0.16520  0.69180  0.18450  Biso   1.000  C
  C27      1.0000 0.83480  0.69180  0.31550  Biso   1.000  C
  C28      1.0000 0.66520  0.80820  0.81550  Biso   1.000  C
  C29      1.0000 0.66520  0.19180  0.31550  Biso   1.000  C
  C30      1.0000 0.83480  0.30820  0.81550  Biso   1.000  C
  C31      1.0000 0.16520  0.30820  0.68450  Biso   1.000  C
  C32      1.0000 0.33480  0.19180  0.18450  Biso   1.000  C
  C33      1.0000 0.20970  0.81900  0.70180  Biso   1.000  C
  C34      1.0000 0.29030  0.68100  0.20180  Biso   1.000  C
  C35      1.0000 0.70970  0.68100  0.29820  Biso   1.000  C
  C36      1.0000 0.79030  0.81900  0.79820  Biso   1.000  C
  C37      1.0000 0.79030  0.18100  0.29820  Biso   1.000  C
  C38      1.0000 0.70970  0.31900  0.79820  Biso   1.000  C
  C39      1.0000 0.29030  0.31900  0.70180  Biso   1.000  C
  C40      1.0000 0.20970  0.18100  0.20180  Biso   1.000  C
  C41      1.0000 0.49510  0.72220  0.66490  Biso   1.000  C
  C42      1.0000 0.00490  0.77780  0.16490  Biso   1.000  C
  C43      1.0000 0.99510  0.77780  0.33510  Biso   1.000  C
  C44      1.0000 0.50490  0.72220  0.83510  Biso   1.000  C
  C45      1.0000 0.50490  0.27780  0.33510  Biso   1.000  C
  C46      1.0000 0.99510  0.22220  0.83510  Biso   1.000  C
  C47      1.0000 0.00490  0.22220  0.66490  Biso   1.000  C
  C48      1.0000 0.49510  0.27780  0.16490  Biso   1.000  C
  C49      1.0000 0.38110  0.73320  0.67900  Biso   1.000  C
  C50      1.0000 0.11890  0.76680  0.17900  Biso   1.000  C
  C51      1.0000 0.88110  0.76680  0.32100  Biso   1.000  C
  C52      1.0000 0.61890  0.73320  0.82100  Biso   1.000  C
  C53      1.0000 0.61890  0.26680  0.32100  Biso   1.000  C
  C54      1.0000 0.88110  0.23320  0.82100  Biso   1.000  C
  C55      1.0000 0.11890  0.23320  0.67900  Biso   1.000  C
  C56      1.0000 0.38110  0.26680  0.17900  Biso   1.000  C
  H9       1.0000 0.33480  0.68900  0.68500  Biso   1.000  H
  H10      1.0000 0.16520  0.81100  0.18500  Biso   1.000  H
  H11      1.0000 0.83480  0.81100  0.31500  Biso   1.000  H
  H12      1.0000 0.66520  0.68900  0.81500  Biso   1.000  H
  H13      1.0000 0.66520  0.31100  0.31500  Biso   1.000  H
  H14      1.0000 0.83480  0.18900  0.81500  Biso   1.000  H
  H15      1.0000 0.16520  0.18900  0.68500  Biso   1.000  H
  H16      1.0000 0.33480  0.31100  0.18500  Biso   1.000  H
  C57      1.0000 0.54270  0.63880  0.66130  Biso   1.000  C
  C58      1.0000 0.95730  0.86120  0.16130  Biso   1.000  C
  C59      1.0000 0.04270  0.86120  0.33870  Biso   1.000  C
  C60      1.0000 0.45730  0.63880  0.83870  Biso   1.000  C
  C61      1.0000 0.45730  0.36120  0.33870  Biso   1.000  C
  C62      1.0000 0.04270  0.13880  0.83870  Biso   1.000  C
  C63      1.0000 0.95730  0.13880  0.66130  Biso   1.000  C
  C64      1.0000 0.54270  0.36120  0.16130  Biso   1.000  C
  C65      1.0000 0.28790  0.97640  0.97580  Biso   1.000  C
  C66      1.0000 0.21210  0.52360  0.47580  Biso   1.000  C
  C67      1.0000 0.78790  0.52360  0.02420  Biso   1.000  C
  C68      1.0000 0.71210  0.97640  0.52420  Biso   1.000  C
  C69      1.0000 0.71210  0.02360  0.02420  Biso   1.000  C
  C70      1.0000 0.78790  0.47640  0.52420  Biso   1.000  C
  C71      1.0000 0.21210  0.47640  0.97580  Biso   1.000  C
  C72      1.0000 0.28790  0.02360  0.47580  Biso   1.000  C
  H17      1.0000 0.35260  0.95190  0.95920  Biso   1.000  H
  H18      1.0000 0.14740  0.54810  0.45920  Biso   1.000  H
  H19      1.0000 0.85260  0.54810  0.04080  Biso   1.000  H
  H20      1.0000 0.64740  0.95190  0.54080  Biso   1.000  H
  H21      1.0000 0.64740  0.04810  0.04080  Biso   1.000  H
  H22      1.0000 0.85260  0.45190  0.54080  Biso   1.000  H
  H23      1.0000 0.14740  0.45190  0.95920  Biso   1.000  H
  H24      1.0000 0.35260  0.04810  0.45920  Biso   1.000  H
  C73      1.0000 0.13460  0.04130  0.98330  Biso   1.000  C
  C74      1.0000 0.36540  0.45870  0.48330  Biso   1.000  C
  C75      1.0000 0.63460  0.45870  0.01670  Biso   1.000  C
  C76      1.0000 0.86540  0.04130  0.51670  Biso   1.000  C
  C77      1.0000 0.86540  0.95870  0.01670  Biso   1.000  C
  C78      1.0000 0.63460  0.54130  0.51670  Biso   1.000  C
  C79      1.0000 0.36540  0.54130  0.98330  Biso   1.000  C
  C80      1.0000 0.13460  0.95870  0.48330  Biso   1.000  C
  H25      1.0000 0.07090  0.07150  0.97290  Biso   1.000  H
  H26      1.0000 0.42910  0.42850  0.47290  Biso   1.000  H
  H27      1.0000 0.57090  0.42850  0.02710  Biso   1.000  H
  H28      1.0000 0.92910  0.07150  0.52710  Biso   1.000  H
  H29      1.0000 0.92910  0.92850  0.02710  Biso   1.000  H
  H30      1.0000 0.57090  0.57150  0.52710  Biso   1.000  H
  H31      1.0000 0.42910  0.57150  0.97290  Biso   1.000  H
  H32      1.0000 0.07090  0.92850  0.47290  Biso   1.000  H
  C81      1.0000 0.16180  0.01580  0.04340  Biso   1.000  C
  C82      1.0000 0.33820  0.48420  0.54340  Biso   1.000  C
  C83      1.0000 0.66180  0.48420  0.95660  Biso   1.000  C
  C84      1.0000 0.83820  0.01580  0.45660  Biso   1.000  C
  C85      1.0000 0.83820  0.98420  0.95660  Biso   1.000  C
  C86      1.0000 0.66180  0.51580  0.45660  Biso   1.000  C
  C87      1.0000 0.33820  0.51580  0.04340  Biso   1.000  C
  C88      1.0000 0.16180  0.98420  0.54340  Biso   1.000  C
  H33      1.0000 0.12060  0.02470  0.08130  Biso   1.000  H
  H34      1.0000 0.37940  0.47530  0.58130  Biso   1.000  H
  H35      1.0000 0.62060  0.47530  0.91870  Biso   1.000  H
  H36      1.0000 0.87940  0.02470  0.41870  Biso   1.000  H
  H37      1.0000 0.87940  0.97530  0.91870  Biso   1.000  H
  H38      1.0000 0.62060  0.52470  0.41870  Biso   1.000  H
  H39      1.0000 0.37940  0.52470  0.08130  Biso   1.000  H
  H40      1.0000 0.12060  0.97530  0.58130  Biso   1.000  H
  C89      1.0000 0.31690  0.93060  0.09090  Biso   1.000  C
  C90      1.0000 0.18310  0.56940  0.59090  Biso   1.000  C
  C91      1.0000 0.81690  0.56940  0.90910  Biso   1.000  C
  C92      1.0000 0.68310  0.93060  0.40910  Biso   1.000  C
  C93      1.0000 0.68310  0.06940  0.90910  Biso   1.000  C
  C94      1.0000 0.81690  0.43060  0.40910  Biso   1.000  C
  C95      1.0000 0.18310  0.43060  0.09090  Biso   1.000  C
  C96      1.0000 0.31690  0.06940  0.59090  Biso   1.000  C
  H41      1.0000 0.38600  0.95830  0.10320  Biso   1.000  H
  H42      1.0000 0.11400  0.54170  0.60320  Biso   1.000  H
  H43      1.0000 0.88600  0.54170  0.89680  Biso   1.000  H
  H44      1.0000 0.61400  0.95830  0.39680  Biso   1.000  H
  H45      1.0000 0.61400  0.04170  0.89680  Biso   1.000  H
  H46      1.0000 0.88600  0.45830  0.39680  Biso   1.000  H
  H47      1.0000 0.11400  0.45830  0.10320  Biso   1.000  H
  H48      1.0000 0.38600  0.04170  0.60320  Biso   1.000  H
  H49      1.0000 0.26750  0.92890  0.12860  Biso   1.000  H
  H50      1.0000 0.23250  0.57110  0.62860  Biso   1.000  H
  H51      1.0000 0.76750  0.57110  0.87140  Biso   1.000  H
  H52      1.0000 0.73250  0.92890  0.37140  Biso   1.000  H
  H53      1.0000 0.73250  0.07110  0.87140  Biso   1.000  H
  H54      1.0000 0.76750  0.42890  0.37140  Biso   1.000  H
  H55      1.0000 0.23250  0.42890  0.12860  Biso   1.000  H
  H56      1.0000 0.26750  0.07110  0.62860  Biso   1.000  H
  C97      1.0000 0.34560  0.84800  0.07090  Biso   1.000  C
  C98      1.0000 0.15440  0.65200  0.57090  Biso   1.000  C
  C99      1.0000 0.84560  0.65200  0.92910  Biso   1.000  C
  C100     1.0000 0.65440  0.84800  0.42910  Biso   1.000  C
  C101     1.0000 0.65440  0.15200  0.92910  Biso   1.000  C
  C102     1.0000 0.84560  0.34800  0.42910  Biso   1.000  C
  C103     1.0000 0.15440  0.34800  0.07090  Biso   1.000  C
  C104     1.0000 0.34560  0.15200  0.57090  Biso   1.000  C
  H57      1.0000 0.37230  0.81840  0.10830  Biso   1.000  H
  H58      1.0000 0.12770  0.68160  0.60830  Biso   1.000  H
  H59      1.0000 0.87230  0.68160  0.89170  Biso   1.000  H
  H60      1.0000 0.62770  0.81840  0.39170  Biso   1.000  H
  H61      1.0000 0.62770  0.18160  0.89170  Biso   1.000  H
  H62      1.0000 0.87230  0.31840  0.39170  Biso   1.000  H
  H63      1.0000 0.12770  0.31840  0.10830  Biso   1.000  H
  H64      1.0000 0.37230  0.18160  0.60830  Biso   1.000  H
  H65      1.0000 0.40630  0.84930  0.03900  Biso   1.000  H
  H66      1.0000 0.09370  0.65070  0.53900  Biso   1.000  H
  H67      1.0000 0.90630  0.65070  0.96100  Biso   1.000  H
  H68      1.0000 0.59370  0.84930  0.46100  Biso   1.000  H
  H69      1.0000 0.59370  0.15070  0.96100  Biso   1.000  H
  H70      1.0000 0.90630  0.34930  0.46100  Biso   1.000  H
  H71      1.0000 0.09370  0.34930  0.03900  Biso   1.000  H
  H72      1.0000 0.40630  0.15070  0.53900  Biso   1.000  H
  C105     1.0000 0.27920  0.73430  0.01760  Biso   1.000  C
  C106     1.0000 0.22080  0.76570  0.51760  Biso   1.000  C
  C107     1.0000 0.77920  0.76570  0.98240  Biso   1.000  C
  C108     1.0000 0.72080  0.73430  0.48240  Biso   1.000  C
  C109     1.0000 0.72080  0.26570  0.98240  Biso   1.000  C
  C110     1.0000 0.77920  0.23430  0.48240  Biso   1.000  C
  C111     1.0000 0.22080  0.23430  0.01760  Biso   1.000  C
  C112     1.0000 0.27920  0.26570  0.51760  Biso   1.000  C
  H73      1.0000 0.33280  0.73930  0.98210  Biso   1.000  H
  H74      1.0000 0.16720  0.76070  0.48210  Biso   1.000  H
  H75      1.0000 0.83280  0.76070  0.01790  Biso   1.000  H
  H76      1.0000 0.66720  0.73930  0.51790  Biso   1.000  H
  H77      1.0000 0.66720  0.26070  0.01790  Biso   1.000  H
  H78      1.0000 0.83280  0.23930  0.51790  Biso   1.000  H
  H79      1.0000 0.16720  0.23930  0.98210  Biso   1.000  H
  H80      1.0000 0.33280  0.26070  0.48210  Biso   1.000  H
  H81      1.0000 0.31120  0.69920  0.05030  Biso   1.000  H
  H82      1.0000 0.18880  0.80080  0.55030  Biso   1.000  H
  H83      1.0000 0.81120  0.80080  0.94970  Biso   1.000  H
  H84      1.0000 0.68880  0.69920  0.44970  Biso   1.000  H
  H85      1.0000 0.68880  0.30080  0.94970  Biso   1.000  H
  H86      1.0000 0.81120  0.19920  0.44970  Biso   1.000  H
  H87      1.0000 0.18880  0.19920  0.05030  Biso   1.000  H
  H88      1.0000 0.31120  0.30080  0.55030  Biso   1.000  H
  C113     1.0000 0.16780  0.70330  0.99390  Biso   1.000  C
  C114     1.0000 0.33220  0.79670  0.49390  Biso   1.000  C
  C115     1.0000 0.66780  0.79670  0.00610  Biso   1.000  C
  C116     1.0000 0.83220  0.70330  0.50610  Biso   1.000  C
  C117     1.0000 0.83220  0.29670  0.00610  Biso   1.000  C
  C118     1.0000 0.66780  0.20330  0.50610  Biso   1.000  C
  C119     1.0000 0.33220  0.20330  0.99390  Biso   1.000  C
  C120     1.0000 0.16780  0.29670  0.49390  Biso   1.000  C
  H89      1.0000 0.11300  0.70570  0.02910  Biso   1.000  H
  H90      1.0000 0.38700  0.79430  0.52910  Biso   1.000  H
  H91      1.0000 0.61300  0.79430  0.97090  Biso   1.000  H
  H92      1.0000 0.88700  0.70570  0.47090  Biso   1.000  H
  H93      1.0000 0.88700  0.29430  0.97090  Biso   1.000  H
  H94      1.0000 0.61300  0.20570  0.47090  Biso   1.000  H
  H95      1.0000 0.38700  0.20570  0.02910  Biso   1.000  H
  H96      1.0000 0.11300  0.29430  0.52910  Biso   1.000  H
  H97      1.0000 0.17670  0.64790  0.98170  Biso   1.000  H
  H98      1.0000 0.32330  0.85210  0.48170  Biso   1.000  H
  H99      1.0000 0.67670  0.85210  0.01830  Biso   1.000  H
  H100     1.0000 0.82330  0.64790  0.51830  Biso   1.000  H
  H101     1.0000 0.82330  0.35210  0.01830  Biso   1.000  H
  H102     1.0000 0.67670  0.14790  0.51830  Biso   1.000  H
  H103     1.0000 0.32330  0.14790  0.98170  Biso   1.000  H
  H104     1.0000 0.17670  0.35210  0.48170  Biso   1.000  H
  C121     1.0000 0.08560  0.82540  0.93900  Biso   1.000  C
  C122     1.0000 0.41440  0.67460  0.43900  Biso   1.000  C
  C123     1.0000 0.58560  0.67460  0.06100  Biso   1.000  C
  C124     1.0000 0.91440  0.82540  0.56100  Biso   1.000  C
  C125     1.0000 0.91440  0.17460  0.06100  Biso   1.000  C
  C126     1.0000 0.58560  0.32540  0.56100  Biso   1.000  C
  C127     1.0000 0.41440  0.32540  0.93900  Biso   1.000  C
  C128     1.0000 0.08560  0.17460  0.43900  Biso   1.000  C
  H105     1.0000 0.08580  0.86000  0.97430  Biso   1.000  H
  H106     1.0000 0.41420  0.64000  0.47430  Biso   1.000  H
  H107     1.0000 0.58580  0.64000  0.02570  Biso   1.000  H
  H108     1.0000 0.91420  0.86000  0.52570  Biso   1.000  H
  H109     1.0000 0.91420  0.14000  0.02570  Biso   1.000  H
  H110     1.0000 0.58580  0.36000  0.52570  Biso   1.000  H
  H111     1.0000 0.41420  0.36000  0.97430  Biso   1.000  H
  H112     1.0000 0.08580  0.14000  0.47430  Biso   1.000  H
  C129     1.0000 0.04770  0.84060  0.87780  Biso   1.000  C
  C130     1.0000 0.45230  0.65940  0.37780  Biso   1.000  C
  C131     1.0000 0.54770  0.65940  0.12220  Biso   1.000  C
  C132     1.0000 0.95230  0.84060  0.62220  Biso   1.000  C
  C133     1.0000 0.95230  0.15940  0.12220  Biso   1.000  C
  C134     1.0000 0.54770  0.34060  0.62220  Biso   1.000  C
  C135     1.0000 0.45230  0.34060  0.87780  Biso   1.000  C
  C136     1.0000 0.04770  0.15940  0.37780  Biso   1.000  C
  H113     1.0000 0.01800  0.88890  0.86380  Biso   1.000  H
  H114     1.0000 0.48200  0.61110  0.36380  Biso   1.000  H
  H115     1.0000 0.51800  0.61110  0.13620  Biso   1.000  H
  H116     1.0000 0.98200  0.88890  0.63620  Biso   1.000  H
  H117     1.0000 0.98200  0.11110  0.13620  Biso   1.000  H
  H118     1.0000 0.51800  0.38890  0.63620  Biso   1.000  H
  H119     1.0000 0.48200  0.38890  0.86380  Biso   1.000  H
  H120     1.0000 0.01800  0.11110  0.36380  Biso   1.000  H
  C137     1.0000 0.10710  0.72110  0.87670  Biso   1.000  C
  C138     1.0000 0.39290  0.77890  0.37670  Biso   1.000  C
  C139     1.0000 0.60710  0.77890  0.12330  Biso   1.000  C
  C140     1.0000 0.89290  0.72110  0.62330  Biso   1.000  C
  C141     1.0000 0.89290  0.27890  0.12330  Biso   1.000  C
  C142     1.0000 0.60710  0.22110  0.62330  Biso   1.000  C
  C143     1.0000 0.39290  0.22110  0.87670  Biso   1.000  C
  C144     1.0000 0.10710  0.27890  0.37670  Biso   1.000  C
  H121     1.0000 0.12720  0.67050  0.86260  Biso   1.000  H
  H122     1.0000 0.37280  0.82950  0.36260  Biso   1.000  H
  H123     1.0000 0.62720  0.82950  0.13740  Biso   1.000  H
  H124     1.0000 0.87280  0.67050  0.63740  Biso   1.000  H
  H125     1.0000 0.87280  0.32950  0.13740  Biso   1.000  H
  H126     1.0000 0.62720  0.17050  0.63740  Biso   1.000  H
  H127     1.0000 0.37280  0.17050  0.86260  Biso   1.000  H
  H128     1.0000 0.12720  0.32950  0.36260  Biso   1.000  H
  C145     1.0000 0.56650  0.78890  0.65940  Biso   1.000  C
  C146     1.0000 0.93350  0.71110  0.15940  Biso   1.000  C
  C147     1.0000 0.06650  0.71110  0.34060  Biso   1.000  C
  C148     1.0000 0.43350  0.78890  0.84060  Biso   1.000  C
  C149     1.0000 0.43350  0.21110  0.34060  Biso   1.000  C
  C150     1.0000 0.06650  0.28890  0.84060  Biso   1.000  C
  C151     1.0000 0.93350  0.28890  0.65940  Biso   1.000  C
  C152     1.0000 0.56650  0.21110  0.15940  Biso   1.000  C
  H129     1.0000 0.64400  0.78220  0.65240  Biso   1.000  H
  H130     1.0000 0.85600  0.71780  0.15240  Biso   1.000  H
  H131     1.0000 0.14400  0.71780  0.34760  Biso   1.000  H
  H132     1.0000 0.35600  0.78220  0.84760  Biso   1.000  H
  H133     1.0000 0.35600  0.21780  0.34760  Biso   1.000  H
  H134     1.0000 0.14400  0.28220  0.84760  Biso   1.000  H
  H135     1.0000 0.85600  0.28220  0.65240  Biso   1.000  H
  H136     1.0000 0.64400  0.21780  0.15240  Biso   1.000  H
  N1       1.0000 0.21570  0.01580  0.93960  Biso   1.000  N
  N2       1.0000 0.28430  0.48420  0.43960  Biso   1.000  N
  N3       1.0000 0.71570  0.48420  0.06040  Biso   1.000  N
  N4       1.0000 0.78430  0.01580  0.56040  Biso   1.000  N
  N5       1.0000 0.78430  0.98420  0.06040  Biso   1.000  N
  N6       1.0000 0.71570  0.51580  0.56040  Biso   1.000  N
  N7       1.0000 0.28430  0.51580  0.93960  Biso   1.000  N
  N8       1.0000 0.21570  0.98420  0.43960  Biso   1.000  N
  N9       1.0000 0.26010  0.97480  0.03840  Biso   1.000  N
  N10      1.0000 0.23990  0.52520  0.53840  Biso   1.000  N
  N11      1.0000 0.76010  0.52520  0.96160  Biso   1.000  N
  N12      1.0000 0.73990  0.97480  0.46160  Biso   1.000  N
  N13      1.0000 0.73990  0.02520  0.96160  Biso   1.000  N
  N14      1.0000 0.76010  0.47480  0.46160  Biso   1.000  N
  N15      1.0000 0.23990  0.47480  0.03840  Biso   1.000  N
  N16      1.0000 0.26010  0.02520  0.53840  Biso   1.000  N
  N17      1.0000 0.12340  0.74820  0.93780  Biso   1.000  N
  N18      1.0000 0.37660  0.75180  0.43780  Biso   1.000  N
  N19      1.0000 0.62340  0.75180  0.06220  Biso   1.000  N
  N20      1.0000 0.87660  0.74820  0.56220  Biso   1.000  N
  N21      1.0000 0.87660  0.25180  0.06220  Biso   1.000  N
  N22      1.0000 0.62340  0.24820  0.56220  Biso   1.000  N
  N23      1.0000 0.37660  0.24820  0.93780  Biso   1.000  N
  N24      1.0000 0.12340  0.25180  0.43780  Biso   1.000  N
  N25      1.0000 0.05970  0.77460  0.83990  Biso   1.000  N
  N26      1.0000 0.44030  0.72540  0.33990  Biso   1.000  N
  N27      1.0000 0.55970  0.72540  0.16010  Biso   1.000  N
  N28      1.0000 0.94030  0.77460  0.66010  Biso   1.000  N
  N29      1.0000 0.94030  0.22540  0.16010  Biso   1.000  N
  N30      1.0000 0.55970  0.27460  0.66010  Biso   1.000  N
  N31      1.0000 0.44030  0.27460  0.83990  Biso   1.000  N
  N32      1.0000 0.05970  0.22540  0.33990  Biso   1.000  N
  O1       1.0000 0.15770  0.75520  0.71703  Biso   1.000  O
  O2       1.0000 0.34230  0.74480  0.21703  Biso   1.000  O
  O3       1.0000 0.65770  0.74480  0.28297  Biso   1.000  O
  O4       1.0000 0.84230  0.75520  0.78297  Biso   1.000  O
  O5       1.0000 0.84230  0.24480  0.28297  Biso   1.000  O
  O6       1.0000 0.65770  0.25520  0.78297  Biso   1.000  O
  O7       1.0000 0.34230  0.25520  0.71703  Biso   1.000  O
  O8       1.0000 0.15770  0.24480  0.21703  Biso   1.000  O
  O9       1.0000 0.16560  0.88600  0.69940  Biso   1.000  O
  O10      1.0000 0.33440  0.61400  0.19940  Biso   1.000  O
  O11      1.0000 0.66560  0.61400  0.30060  Biso   1.000  O
  O12      1.0000 0.83440  0.88600  0.80060  Biso   1.000  O
  O13      1.0000 0.83440  0.11400  0.30060  Biso   1.000  O
  O14      1.0000 0.66560  0.38600  0.80060  Biso   1.000  O
  O15      1.0000 0.33440  0.38600  0.69940  Biso   1.000  O
  O16      1.0000 0.16560  0.11400  0.19940  Biso   1.000  O
  O17      1.0000 0.19470  0.02490  0.74980  Biso   1.000  O
  O18      1.0000 0.30530  0.47510  0.24980  Biso   1.000  O
  O19      1.0000 0.69470  0.47510  0.25020  Biso   1.000  O
  O20      1.0000 0.80530  0.02490  0.75020  Biso   1.000  O
  O21      1.0000 0.80530  0.97510  0.25020  Biso   1.000  O
  O22      1.0000 0.69470  0.52490  0.75020  Biso   1.000  O
  O23      1.0000 0.30530  0.52490  0.74980  Biso   1.000  O
  O24      1.0000 0.19470  0.97510  0.24980  Biso   1.000  O
  O25      1.0000 0.55600  0.00440  0.65510  Biso   1.000  O
  O26      1.0000 0.94400  0.49560  0.15510  Biso   1.000  O
  O27      1.0000 0.05600  0.49560  0.34490  Biso   1.000  O
  O28      1.0000 0.44400  0.00440  0.84490  Biso   1.000  O
  O29      1.0000 0.44400  0.99560  0.34490  Biso   1.000  O
  O30      1.0000 0.05600  0.50440  0.84490  Biso   1.000  O
  O31      1.0000 0.94400  0.50440  0.65510  Biso   1.000  O
  O32      1.0000 0.55600  0.99560  0.15510  Biso   1.000  O
  O33      1.0000 0.00000  0.62320  0.75000  Biso   1.000  O
  O34      1.0000 0.50000  0.87680  0.25000  Biso   1.000  O
  O35      1.0000 0.00000  0.37680  0.25000  Biso   1.000  O
  O36      1.0000 0.50000  0.12320  0.75000  Biso   1.000  O
  O37      1.0000 0.70370  0.92460  0.66451  Biso   1.000  O
  O38      1.0000 0.79630  0.57540  0.16451  Biso   1.000  O
  O39      1.0000 0.20370  0.57540  0.33549  Biso   1.000  O
  O40      1.0000 0.29630  0.92460  0.83549  Biso   1.000  O
  O41      1.0000 0.29630  0.07540  0.33549  Biso   1.000  O
  O42      1.0000 0.20370  0.42460  0.83549  Biso   1.000  O
  O43      1.0000 0.79630  0.42460  0.66451  Biso   1.000  O
  O44      1.0000 0.70370  0.07540  0.16451  Biso   1.000  O
  O45      1.0000 0.65000  0.63190  0.65020  Biso   1.000  O
  O46      1.0000 0.85000  0.86810  0.15020  Biso   1.000  O
  O47      1.0000 0.15000  0.86810  0.34980  Biso   1.000  O
  O48      1.0000 0.35000  0.63190  0.84980  Biso   1.000  O
  O49      1.0000 0.35000  0.36810  0.34980  Biso   1.000  O
  O50      1.0000 0.15000  0.13190  0.84980  Biso   1.000  O
  O51      1.0000 0.85000  0.13190  0.65020  Biso   1.000  O
  O52      1.0000 0.65000  0.36810  0.15020  Biso   1.000  O
  O53      1.0000 0.47980  0.58030  0.66900  Biso   1.000  O
  O54      1.0000 0.02020  0.91970  0.16900  Biso   1.000  O
  O55      1.0000 0.97980  0.91970  0.33100  Biso   1.000  O
  O56      1.0000 0.52020  0.58030  0.83100  Biso   1.000  O
  O57      1.0000 0.52020  0.41970  0.33100  Biso   1.000  O
  O58      1.0000 0.97980  0.08030  0.83100  Biso   1.000  O
  O59      1.0000 0.02020  0.08030  0.66900  Biso   1.000  O
  O60      1.0000 0.47980  0.41970  0.16900  Biso   1.000  O
  O61      1.0000 0.25360  0.81080  0.04500  Biso   1.000  O
  O62      1.0000 0.24640  0.68920  0.54500  Biso   1.000  O
  O63      1.0000 0.75360  0.68920  0.95500  Biso   1.000  O
  O64      1.0000 0.74640  0.81080  0.45500  Biso   1.000  O
  O65      1.0000 0.74640  0.18920  0.95500  Biso   1.000  O
  O66      1.0000 0.75360  0.31080  0.45500  Biso   1.000  O
  O67      1.0000 0.24640  0.31080  0.04500  Biso   1.000  O
  O68      1.0000 0.25360  0.18920  0.54500  Biso   1.000  O
  Cu1      1.0000 0.00000  0.76113  0.75000  Biso   1.000  Cu
  Cu2      1.0000 0.50000  0.73887  0.25000  Biso   1.000  Cu
  Cu3      1.0000 0.00000  0.23887  0.25000  Biso   1.000  Cu
  Cu4      1.0000 0.50000  0.26113  0.75000  Biso   1.000  Cu
  Cu5      1.0000 0.21275  0.02499  0.84435  Biso   1.000  Cu
  Cu6      1.0000 0.28725  0.47501  0.34435  Biso   1.000  Cu
  Cu7      1.0000 0.71275  0.47501  0.15565  Biso   1.000  Cu
  Cu8      1.0000 0.78725  0.02499  0.65565  Biso   1.000  Cu
  Cu9      1.0000 0.78725  0.97501  0.15565  Biso   1.000  Cu
  Cu10     1.0000 0.71275  0.52499  0.65565  Biso   1.000  Cu
  Cu11     1.0000 0.28725  0.52499  0.84435  Biso   1.000  Cu
  Cu12     1.0000 0.21275  0.97501  0.34435  Biso   1.000  Cu
  H137     1.0000 0.13400  0.05100  0.73800  Biso   1.000  H
  H138     1.0000 0.36600  0.44900  0.23800  Biso   1.000  H
  H139     1.0000 0.63400  0.44900  0.26200  Biso   1.000  H
  H140     1.0000 0.86600  0.05100  0.76200  Biso   1.000  H
  H141     1.0000 0.86600  0.94900  0.26200  Biso   1.000  H
  H142     1.0000 0.63400  0.55100  0.76200  Biso   1.000  H
  H143     1.0000 0.36600  0.55100  0.73800  Biso   1.000  H
  H144     1.0000 0.13400  0.94900  0.23800  Biso   1.000  H
  H145     1.0000 0.18700  0.97450  0.73800  Biso   1.000  H
  H146     1.0000 0.31300  0.52550  0.23800  Biso   1.000  H
  H147     1.0000 0.68700  0.52550  0.26200  Biso   1.000  H
  H148     1.0000 0.81300  0.97450  0.76200  Biso   1.000  H
  H149     1.0000 0.81300  0.02550  0.26200  Biso   1.000  H
  H150     1.0000 0.68700  0.47450  0.76200  Biso   1.000  H
  H151     1.0000 0.31300  0.47450  0.73800  Biso   1.000  H
  H152     1.0000 0.18700  0.02550  0.23800  Biso   1.000  H
  H153     1.0000 0.99400  0.58800  0.72500  Biso   1.000  H
  H154     1.0000 0.50600  0.91200  0.22500  Biso   1.000  H
  H155     1.0000 0.49400  0.91200  0.27500  Biso   1.000  H
  H156     1.0000 0.00600  0.58800  0.77500  Biso   1.000  H
  H157     1.0000 0.00600  0.41200  0.27500  Biso   1.000  H
  H158     1.0000 0.49400  0.08800  0.77500  Biso   1.000  H
  H159     1.0000 0.50600  0.08800  0.72500  Biso   1.000  H
  H160     1.0000 0.99400  0.41200  0.22500  Biso   1.000  H
