data_image0
_cell_length_a       8.617
_cell_length_b       9.664
_cell_length_c       13.678
_cell_angle_alpha    90
_cell_angle_beta     90
_cell_angle_gamma    90

_symmetry_space_group_name_H-M    "P 1"
_symmetry_int_tables_number       1

loop_
  _symmetry_equiv_pos_as_xyz
  'x, y, z'

loop_
  _atom_site_label
  _atom_site_occupancy
  _atom_site_fract_x
  _atom_site_fract_y
  _atom_site_fract_z
  _atom_site_thermal_displace_type
  _atom_site_B_iso_or_equiv
  _atom_site_type_symbol
  Cu1      1.0000 0.15710  0.90490  0.98316  Biso   1.000  Cu
  Cu2      1.0000 0.34290  0.09510  0.48316  Biso   1.000  Cu
  Cu3      1.0000 0.84290  0.40490  0.51684  Biso   1.000  Cu
  Cu4      1.0000 0.65710  0.59510  0.01684  Biso   1.000  Cu
  S1       1.0000 0.16680  0.64290  0.90130  Biso   1.000  S
  S2       1.0000 0.33320  0.35710  0.40130  Biso   1.000  S
  S3       1.0000 0.83320  0.14290  0.59870  Biso   1.000  S
  S4       1.0000 0.66680  0.85710  0.09870  Biso   1.000  S
  C1       1.0000 0.17360  0.16460  0.89390  Biso   1.000  C
  C2       1.0000 0.32640  0.83540  0.39390  Biso   1.000  C
  C3       1.0000 0.82640  0.66460  0.60610  Biso   1.000  C
  C4       1.0000 0.67360  0.33540  0.10610  Biso   1.000  C
  H1       1.0000 0.21580  0.22660  0.84590  Biso   1.000  H
  H2       1.0000 0.28420  0.77340  0.34590  Biso   1.000  H
  H3       1.0000 0.78420  0.72660  0.65410  Biso   1.000  H
  H4       1.0000 0.71580  0.27340  0.15410  Biso   1.000  H
  H5       1.0000 0.22600  0.18140  0.95460  Biso   1.000  H
  H6       1.0000 0.27400  0.81860  0.45460  Biso   1.000  H
  H7       1.0000 0.77400  0.68140  0.54540  Biso   1.000  H
  H8       1.0000 0.72600  0.31860  0.04540  Biso   1.000  H
  S5       1.0000 0.97950  0.69800  0.26750  Biso   1.000  S
  S6       1.0000 0.52050  0.30200  0.76750  Biso   1.000  S
  S7       1.0000 0.02050  0.19800  0.23250  Biso   1.000  S
  S8       1.0000 0.47950  0.80200  0.73250  Biso   1.000  S
  N1       1.0000 0.87500  0.59100  0.97600  Biso   1.000  N
  N2       1.0000 0.62500  0.40900  0.47600  Biso   1.000  N
  N3       1.0000 0.12500  0.09100  0.52400  Biso   1.000  N
  N4       1.0000 0.37500  0.90900  0.02400  Biso   1.000  N
  N5       1.0000 0.08700  0.84320  0.10880  Biso   1.000  N
  N6       1.0000 0.41300  0.15680  0.60880  Biso   1.000  N
  N7       1.0000 0.91300  0.34320  0.39120  Biso   1.000  N
  N8       1.0000 0.58700  0.65680  0.89120  Biso   1.000  N
  N9       1.0000 0.94420  0.95030  0.93510  Biso   1.000  N
  N10      1.0000 0.55580  0.04970  0.43510  Biso   1.000  N
  N11      1.0000 0.05580  0.45030  0.56490  Biso   1.000  N
  N12      1.0000 0.44420  0.54970  0.06490  Biso   1.000  N
  H9       1.0000 0.87470  0.89340  0.96330  Biso   1.000  H
  H10      1.0000 0.62530  0.10660  0.46330  Biso   1.000  H
  H11      1.0000 0.12530  0.39340  0.53670  Biso   1.000  H
  H12      1.0000 0.37470  0.60660  0.03670  Biso   1.000  H
  C5       1.0000 0.09560  0.97370  0.78790  Biso   1.000  C
  C6       1.0000 0.40440  0.02630  0.28790  Biso   1.000  C
  C7       1.0000 0.90440  0.47370  0.71210  Biso   1.000  C
  C8       1.0000 0.59560  0.52630  0.21210  Biso   1.000  C
  H13      1.0000 0.13980  0.89580  0.75440  Biso   1.000  H
  H14      1.0000 0.36020  0.10420  0.25440  Biso   1.000  H
  H15      1.0000 0.86020  0.39580  0.74560  Biso   1.000  H
  H16      1.0000 0.63980  0.60420  0.24560  Biso   1.000  H
  H17      1.0000 0.08300  0.04700  0.74110  Biso   1.000  H
  H18      1.0000 0.41700  0.95300  0.24110  Biso   1.000  H
  H19      1.0000 0.91700  0.54700  0.75890  Biso   1.000  H
  H20      1.0000 0.58300  0.45300  0.25890  Biso   1.000  H
  N13      1.0000 0.20190  0.01800  0.86390  Biso   1.000  N
  N14      1.0000 0.29810  0.98200  0.36390  Biso   1.000  N
  N15      1.0000 0.79810  0.51800  0.63610  Biso   1.000  N
  N16      1.0000 0.70190  0.48200  0.13610  Biso   1.000  N
  H21      1.0000 0.30100  0.00670  0.84480  Biso   1.000  H
  H22      1.0000 0.19900  0.99330  0.34480  Biso   1.000  H
  H23      1.0000 0.69900  0.50670  0.65520  Biso   1.000  H
  H24      1.0000 0.80100  0.49330  0.15520  Biso   1.000  H
  C9       1.0000 0.91120  0.09380  0.96340  Biso   1.000  C
  C10      1.0000 0.58880  0.90620  0.46340  Biso   1.000  C
  C11      1.0000 0.08880  0.59380  0.53660  Biso   1.000  C
  C12      1.0000 0.41120  0.40620  0.03660  Biso   1.000  C
  H25      1.0000 0.93110  0.10560  0.03190  Biso   1.000  H
  H26      1.0000 0.56890  0.89440  0.53190  Biso   1.000  H
  H27      1.0000 0.06890  0.60560  0.46810  Biso   1.000  H
  H28      1.0000 0.43110  0.39440  0.96810  Biso   1.000  H
  H29      1.0000 0.80360  0.11380  0.95190  Biso   1.000  H
  H30      1.0000 0.69640  0.88620  0.45190  Biso   1.000  H
  H31      1.0000 0.19640  0.61380  0.54810  Biso   1.000  H
  H32      1.0000 0.30360  0.38620  0.04810  Biso   1.000  H
  C13      1.0000 0.00620  0.19430  0.90900  Biso   1.000  C
  C14      1.0000 0.49380  0.80570  0.40900  Biso   1.000  C
  C15      1.0000 0.99380  0.69430  0.59100  Biso   1.000  C
  C16      1.0000 0.50620  0.30570  0.09100  Biso   1.000  C
  H33      1.0000 0.96180  0.20200  0.84480  Biso   1.000  H
  H34      1.0000 0.53820  0.79800  0.34480  Biso   1.000  H
  H35      1.0000 0.03820  0.70200  0.65520  Biso   1.000  H
  H36      1.0000 0.46180  0.29800  0.15520  Biso   1.000  H
  H37      1.0000 0.99660  0.28340  0.93940  Biso   1.000  H
  H38      1.0000 0.50340  0.71660  0.43940  Biso   1.000  H
  H39      1.0000 0.00340  0.78340  0.56060  Biso   1.000  H
  H40      1.0000 0.49660  0.21660  0.06060  Biso   1.000  H
  C17      1.0000 0.93840  0.93330  0.82810  Biso   1.000  C
  C18      1.0000 0.56160  0.06670  0.32810  Biso   1.000  C
  C19      1.0000 0.06160  0.43330  0.67190  Biso   1.000  C
  C20      1.0000 0.43840  0.56670  0.17190  Biso   1.000  C
  H41      1.0000 0.85950  0.99190  0.80100  Biso   1.000  H
  H42      1.0000 0.64050  0.00810  0.30100  Biso   1.000  H
  H43      1.0000 0.14050  0.49190  0.69900  Biso   1.000  H
  H44      1.0000 0.35950  0.50810  0.19900  Biso   1.000  H
  H45      1.0000 0.91500  0.83910  0.81130  Biso   1.000  H
  H46      1.0000 0.58500  0.16090  0.31130  Biso   1.000  H
  H47      1.0000 0.08500  0.33910  0.68870  Biso   1.000  H
  H48      1.0000 0.41500  0.66090  0.18870  Biso   1.000  H
  C21      1.0000 0.99340  0.60820  0.94680  Biso   1.000  C
  C22      1.0000 0.50660  0.39180  0.44680  Biso   1.000  C
  C23      1.0000 0.00660  0.10820  0.55320  Biso   1.000  C
  C24      1.0000 0.49340  0.89180  0.05320  Biso   1.000  C
  C25      1.0000 0.04190  0.78390  0.17480  Biso   1.000  C
  C26      1.0000 0.45810  0.21610  0.67480  Biso   1.000  C
  C27      1.0000 0.95810  0.28390  0.32520  Biso   1.000  C
  C28      1.0000 0.54190  0.71610  0.82520  Biso   1.000  C
