data_image0
_cell_length_a       42.349
_cell_length_b       4.71
_cell_length_c       14.4091
_cell_angle_alpha    90
_cell_angle_beta     104.953
_cell_angle_gamma    90

_symmetry_space_group_name_H-M    "P 1"
_symmetry_int_tables_number       1

loop_
  _symmetry_equiv_pos_as_xyz
  'x, y, z'

loop_
  _atom_site_label
  _atom_site_occupancy
  _atom_site_fract_x
  _atom_site_fract_y
  _atom_site_fract_z
  _atom_site_thermal_displace_type
  _atom_site_B_iso_or_equiv
  _atom_site_type_symbol
  Cu1      1.0000 0.00000  0.00000  0.00000  Biso   1.000  Cu
  Cu2      1.0000 0.50000  0.50000  0.00000  Biso   1.000  Cu
  Cu3      1.0000 0.00000  0.00000  0.50000  Biso   1.000  Cu
  Cu4      1.0000 0.50000  0.50000  0.50000  Biso   1.000  Cu
  O1       1.0000 0.03938  0.77080  0.04219  Biso   1.000  O
  O2       1.0000 0.53938  0.27080  0.04219  Biso   1.000  O
  O3       1.0000 0.96062  0.77080  0.45781  Biso   1.000  O
  O4       1.0000 0.46062  0.27080  0.45781  Biso   1.000  O
  O5       1.0000 0.96062  0.22920  0.95781  Biso   1.000  O
  O6       1.0000 0.46062  0.72920  0.95781  Biso   1.000  O
  O7       1.0000 0.03938  0.22920  0.54219  Biso   1.000  O
  O8       1.0000 0.53938  0.72920  0.54219  Biso   1.000  O
  O9       1.0000 0.02369  0.41400  0.12273  Biso   1.000  O
  O10      1.0000 0.52369  0.91400  0.12273  Biso   1.000  O
  O11      1.0000 0.97631  0.41400  0.37727  Biso   1.000  O
  O12      1.0000 0.47631  0.91400  0.37727  Biso   1.000  O
  O13      1.0000 0.97631  0.58600  0.87727  Biso   1.000  O
  O14      1.0000 0.47631  0.08600  0.87727  Biso   1.000  O
  O15      1.0000 0.02369  0.58600  0.62273  Biso   1.000  O
  O16      1.0000 0.52369  0.08600  0.62273  Biso   1.000  O
  O17      1.0000 0.97837  0.81610  0.08765  Biso   1.000  O
  O18      1.0000 0.47837  0.31610  0.08765  Biso   1.000  O
  O19      1.0000 0.02163  0.81610  0.41235  Biso   1.000  O
  O20      1.0000 0.52163  0.31610  0.41235  Biso   1.000  O
  O21      1.0000 0.02163  0.18390  0.91235  Biso   1.000  O
  O22      1.0000 0.52163  0.68390  0.91235  Biso   1.000  O
  O23      1.0000 0.97837  0.18390  0.58765  Biso   1.000  O
  O24      1.0000 0.47837  0.68390  0.58765  Biso   1.000  O
  O25      1.0000 0.11439  0.09800  0.00014  Biso   1.000  O
  O26      1.0000 0.61439  0.59800  0.00014  Biso   1.000  O
  O27      1.0000 0.88561  0.09800  0.49986  Biso   1.000  O
  O28      1.0000 0.38561  0.59800  0.49986  Biso   1.000  O
  O29      1.0000 0.88561  0.90200  0.99986  Biso   1.000  O
  O30      1.0000 0.38561  0.40200  0.99986  Biso   1.000  O
  O31      1.0000 0.11439  0.90200  0.50014  Biso   1.000  O
  O32      1.0000 0.61439  0.40200  0.50014  Biso   1.000  O
  O33      1.0000 0.11165  0.14800  0.75755  Biso   1.000  O
  O34      1.0000 0.61165  0.64800  0.75755  Biso   1.000  O
  O35      1.0000 0.88835  0.14800  0.74245  Biso   1.000  O
  O36      1.0000 0.38835  0.64800  0.74245  Biso   1.000  O
  O37      1.0000 0.88835  0.85200  0.24245  Biso   1.000  O
  O38      1.0000 0.38835  0.35200  0.24245  Biso   1.000  O
  O39      1.0000 0.11165  0.85200  0.25755  Biso   1.000  O
  O40      1.0000 0.61165  0.35200  0.25755  Biso   1.000  O
  O41      1.0000 0.19612  0.40390  0.00954  Biso   1.000  O
  O42      1.0000 0.69612  0.90390  0.00954  Biso   1.000  O
  O43      1.0000 0.80388  0.40390  0.49046  Biso   1.000  O
  O44      1.0000 0.30388  0.90390  0.49046  Biso   1.000  O
  O45      1.0000 0.80388  0.59610  0.99046  Biso   1.000  O
  O46      1.0000 0.30388  0.09610  0.99046  Biso   1.000  O
  O47      1.0000 0.19612  0.59610  0.50954  Biso   1.000  O
  O48      1.0000 0.69612  0.09610  0.50954  Biso   1.000  O
  O49      1.0000 0.95047  0.08040  0.20978  Biso   1.000  O
  O50      1.0000 0.45047  0.58040  0.20978  Biso   1.000  O
  O51      1.0000 0.04953  0.08040  0.29022  Biso   1.000  O
  O52      1.0000 0.54953  0.58040  0.29022  Biso   1.000  O
  O53      1.0000 0.04953  0.91960  0.79022  Biso   1.000  O
  O54      1.0000 0.54953  0.41960  0.79022  Biso   1.000  O
  O55      1.0000 0.95047  0.91960  0.70978  Biso   1.000  O
  O56      1.0000 0.45047  0.41960  0.70978  Biso   1.000  O
  C1       1.0000 0.07686  0.39770  0.10021  Biso   1.000  C
  C2       1.0000 0.57686  0.89770  0.10021  Biso   1.000  C
  C3       1.0000 0.92314  0.39770  0.39979  Biso   1.000  C
  C4       1.0000 0.42314  0.89770  0.39979  Biso   1.000  C
  C5       1.0000 0.92314  0.60230  0.89979  Biso   1.000  C
  C6       1.0000 0.42314  0.10230  0.89979  Biso   1.000  C
  C7       1.0000 0.07686  0.60230  0.60021  Biso   1.000  C
  C8       1.0000 0.57686  0.10230  0.60021  Biso   1.000  C
  C9       1.0000 0.04388  0.53840  0.08750  Biso   1.000  C
  C10      1.0000 0.54388  0.03840  0.08750  Biso   1.000  C
  C11      1.0000 0.95612  0.53840  0.41250  Biso   1.000  C
  C12      1.0000 0.45612  0.03840  0.41250  Biso   1.000  C
  C13      1.0000 0.95612  0.46160  0.91250  Biso   1.000  C
  C14      1.0000 0.45612  0.96160  0.91250  Biso   1.000  C
  C15      1.0000 0.04388  0.46160  0.58750  Biso   1.000  C
  C16      1.0000 0.54388  0.96160  0.58750  Biso   1.000  C
  C17      1.0000 0.11185  0.35650  0.99215  Biso   1.000  C
  C18      1.0000 0.61185  0.85650  0.99215  Biso   1.000  C
  C19      1.0000 0.88815  0.35650  0.50785  Biso   1.000  C
  C20      1.0000 0.38815  0.85650  0.50785  Biso   1.000  C
  C21      1.0000 0.88815  0.64350  0.00785  Biso   1.000  C
  C22      1.0000 0.38815  0.14350  0.00785  Biso   1.000  C
  C23      1.0000 0.11185  0.64350  0.49215  Biso   1.000  C
  C24      1.0000 0.61185  0.14350  0.49215  Biso   1.000  C
  C25      1.0000 0.19432  0.07510  0.87762  Biso   1.000  C
  C26      1.0000 0.69432  0.57510  0.87762  Biso   1.000  C
  C27      1.0000 0.80568  0.07510  0.62238  Biso   1.000  C
  C28      1.0000 0.30568  0.57510  0.62238  Biso   1.000  C
  C29      1.0000 0.80568  0.92490  0.12238  Biso   1.000  C
  C30      1.0000 0.30568  0.42490  0.12238  Biso   1.000  C
  C31      1.0000 0.19432  0.92490  0.37762  Biso   1.000  C
  C32      1.0000 0.69432  0.42490  0.37762  Biso   1.000  C
  C33      1.0000 0.13927  0.16140  0.80808  Biso   1.000  C
  C34      1.0000 0.63927  0.66140  0.80808  Biso   1.000  C
  C35      1.0000 0.86073  0.16140  0.69192  Biso   1.000  C
  C36      1.0000 0.36073  0.66140  0.69192  Biso   1.000  C
  C37      1.0000 0.86073  0.83860  0.19192  Biso   1.000  C
  C38      1.0000 0.36073  0.33860  0.19192  Biso   1.000  C
  C39      1.0000 0.13927  0.83860  0.30808  Biso   1.000  C
  C40      1.0000 0.63927  0.33860  0.30808  Biso   1.000  C
  C41      1.0000 0.18199  0.28790  0.93587  Biso   1.000  C
  C42      1.0000 0.68199  0.78790  0.93587  Biso   1.000  C
  C43      1.0000 0.81801  0.28790  0.56413  Biso   1.000  C
  C44      1.0000 0.31801  0.78790  0.56413  Biso   1.000  C
  C45      1.0000 0.81801  0.71210  0.06413  Biso   1.000  C
  C46      1.0000 0.31801  0.21210  0.06413  Biso   1.000  C
  C47      1.0000 0.18199  0.71210  0.43587  Biso   1.000  C
  C48      1.0000 0.68199  0.21210  0.43587  Biso   1.000  C
  C49      1.0000 0.12774  0.51450  0.92416  Biso   1.000  C
  C50      1.0000 0.62774  0.01450  0.92416  Biso   1.000  C
  C51      1.0000 0.87226  0.51450  0.57584  Biso   1.000  C
  C52      1.0000 0.37226  0.01450  0.57584  Biso   1.000  C
  C53      1.0000 0.87226  0.48550  0.07584  Biso   1.000  C
  C54      1.0000 0.37226  0.98550  0.07584  Biso   1.000  C
  C55      1.0000 0.12774  0.48550  0.42416  Biso   1.000  C
  C56      1.0000 0.62774  0.98550  0.42416  Biso   1.000  C
  C57      1.0000 0.16868  0.00400  0.79970  Biso   1.000  C
  C58      1.0000 0.66868  0.50400  0.79970  Biso   1.000  C
  C59      1.0000 0.83132  0.00400  0.70030  Biso   1.000  C
  C60      1.0000 0.33132  0.50400  0.70030  Biso   1.000  C
  C61      1.0000 0.83132  0.99600  0.20030  Biso   1.000  C
  C62      1.0000 0.33132  0.49600  0.20030  Biso   1.000  C
  C63      1.0000 0.16868  0.99600  0.29970  Biso   1.000  C
  C64      1.0000 0.66868  0.49600  0.29970  Biso   1.000  C
  C65      1.0000 0.22486  0.95720  0.89013  Biso   1.000  C
  C66      1.0000 0.72486  0.45720  0.89013  Biso   1.000  C
  C67      1.0000 0.77514  0.95720  0.60987  Biso   1.000  C
  C68      1.0000 0.27514  0.45720  0.60987  Biso   1.000  C
  C69      1.0000 0.77514  0.04280  0.10987  Biso   1.000  C
  C70      1.0000 0.27514  0.54280  0.10987  Biso   1.000  C
  C71      1.0000 0.22486  0.04280  0.39013  Biso   1.000  C
  C72      1.0000 0.72486  0.54280  0.39013  Biso   1.000  C
  C73      1.0000 0.22897  0.76400  0.82120  Biso   1.000  C
  C74      1.0000 0.72897  0.26400  0.82120  Biso   1.000  C
  C75      1.0000 0.77103  0.76400  0.67880  Biso   1.000  C
  C76      1.0000 0.27103  0.26400  0.67880  Biso   1.000  C
  C77      1.0000 0.77103  0.23600  0.17880  Biso   1.000  C
  C78      1.0000 0.27103  0.73600  0.17880  Biso   1.000  C
  C79      1.0000 0.22897  0.23600  0.32120  Biso   1.000  C
  C80      1.0000 0.72897  0.73600  0.32120  Biso   1.000  C
  C81      1.0000 0.17281  0.81390  0.73078  Biso   1.000  C
  C82      1.0000 0.67281  0.31390  0.73078  Biso   1.000  C
  C83      1.0000 0.82719  0.81390  0.76922  Biso   1.000  C
  C84      1.0000 0.32719  0.31390  0.76922  Biso   1.000  C
  C85      1.0000 0.82719  0.18610  0.26922  Biso   1.000  C
  C86      1.0000 0.32719  0.68610  0.26922  Biso   1.000  C
  C87      1.0000 0.17281  0.18610  0.23078  Biso   1.000  C
  C88      1.0000 0.67281  0.68610  0.23078  Biso   1.000  C
  C89      1.0000 0.20373  0.69580  0.74318  Biso   1.000  C
  C90      1.0000 0.70373  0.19580  0.74318  Biso   1.000  C
  C91      1.0000 0.79627  0.69580  0.75682  Biso   1.000  C
  C92      1.0000 0.29627  0.19580  0.75682  Biso   1.000  C
  C93      1.0000 0.79627  0.30420  0.25682  Biso   1.000  C
  C94      1.0000 0.29627  0.80420  0.25682  Biso   1.000  C
  C95      1.0000 0.20373  0.30420  0.24318  Biso   1.000  C
  C96      1.0000 0.70373  0.80420  0.24318  Biso   1.000  C
  N1       1.0000 0.14936  0.33420  0.88807  Biso   1.000  N
  N2       1.0000 0.64936  0.83420  0.88807  Biso   1.000  N
  N3       1.0000 0.85064  0.33420  0.61193  Biso   1.000  N
  N4       1.0000 0.35064  0.83420  0.61193  Biso   1.000  N
  N5       1.0000 0.85064  0.66580  0.11193  Biso   1.000  N
  N6       1.0000 0.35064  0.16580  0.11193  Biso   1.000  N
  N7       1.0000 0.14936  0.66580  0.38807  Biso   1.000  N
  N8       1.0000 0.64936  0.16580  0.38807  Biso   1.000  N
  N9       1.0000 0.09601  0.51680  0.04039  Biso   1.000  N
  N10      1.0000 0.59601  0.01680  0.04039  Biso   1.000  N
  N11      1.0000 0.90399  0.51680  0.45961  Biso   1.000  N
  N12      1.0000 0.40399  0.01680  0.45961  Biso   1.000  N
  N13      1.0000 0.90399  0.48320  0.95961  Biso   1.000  N
  N14      1.0000 0.40399  0.98320  0.95961  Biso   1.000  N
  N15      1.0000 0.09601  0.48320  0.54039  Biso   1.000  N
  N16      1.0000 0.59601  0.98320  0.54039  Biso   1.000  N
  H1       1.0000 0.23910  0.99400  0.95200  Biso   1.000  H
  H2       1.0000 0.73910  0.49400  0.95200  Biso   1.000  H
  H3       1.0000 0.76090  0.99400  0.54800  Biso   1.000  H
  H4       1.0000 0.26090  0.49400  0.54800  Biso   1.000  H
  H5       1.0000 0.76090  0.00600  0.04800  Biso   1.000  H
  H6       1.0000 0.26090  0.50600  0.04800  Biso   1.000  H
  H7       1.0000 0.23910  0.00600  0.45200  Biso   1.000  H
  H8       1.0000 0.73910  0.50600  0.45200  Biso   1.000  H
  H9       1.0000 0.24930  0.68600  0.82760  Biso   1.000  H
  H10      1.0000 0.74930  0.18600  0.82760  Biso   1.000  H
  H11      1.0000 0.75070  0.68600  0.67240  Biso   1.000  H
  H12      1.0000 0.25070  0.18600  0.67240  Biso   1.000  H
  H13      1.0000 0.75070  0.31400  0.17240  Biso   1.000  H
  H14      1.0000 0.25070  0.81400  0.17240  Biso   1.000  H
  H15      1.0000 0.24930  0.31400  0.32760  Biso   1.000  H
  H16      1.0000 0.74930  0.81400  0.32760  Biso   1.000  H
  H17      1.0000 0.20720  0.56400  0.70100  Biso   1.000  H
  H18      1.0000 0.70720  0.06400  0.70100  Biso   1.000  H
  H19      1.0000 0.79280  0.56400  0.79900  Biso   1.000  H
  H20      1.0000 0.29280  0.06400  0.79900  Biso   1.000  H
  H21      1.0000 0.79280  0.43600  0.29900  Biso   1.000  H
  H22      1.0000 0.29280  0.93600  0.29900  Biso   1.000  H
  H23      1.0000 0.20720  0.43600  0.20100  Biso   1.000  H
  H24      1.0000 0.70720  0.93600  0.20100  Biso   1.000  H
  H25      1.0000 0.13810  0.65400  0.95600  Biso   1.000  H
  H26      1.0000 0.63810  0.15400  0.95600  Biso   1.000  H
  H27      1.0000 0.86190  0.65400  0.54400  Biso   1.000  H
  H28      1.0000 0.36190  0.15400  0.54400  Biso   1.000  H
  H29      1.0000 0.86190  0.34600  0.04400  Biso   1.000  H
  H30      1.0000 0.36190  0.84600  0.04400  Biso   1.000  H
  H31      1.0000 0.13810  0.34600  0.45600  Biso   1.000  H
  H32      1.0000 0.63810  0.84600  0.45600  Biso   1.000  H
  H33      1.0000 0.08770  0.42000  0.16500  Biso   1.000  H
  H34      1.0000 0.58770  0.92000  0.16500  Biso   1.000  H
  H35      1.0000 0.91230  0.42000  0.33500  Biso   1.000  H
  H36      1.0000 0.41230  0.92000  0.33500  Biso   1.000  H
  H37      1.0000 0.91230  0.58000  0.83500  Biso   1.000  H
  H38      1.0000 0.41230  0.08000  0.83500  Biso   1.000  H
  H39      1.0000 0.08770  0.58000  0.66500  Biso   1.000  H
  H40      1.0000 0.58770  0.08000  0.66500  Biso   1.000  H
  H41      1.0000 0.15690  0.78300  0.68200  Biso   1.000  H
  H42      1.0000 0.65690  0.28300  0.68200  Biso   1.000  H
  H43      1.0000 0.84310  0.78300  0.81800  Biso   1.000  H
  H44      1.0000 0.34310  0.28300  0.81800  Biso   1.000  H
  H45      1.0000 0.84310  0.21700  0.31800  Biso   1.000  H
  H46      1.0000 0.34310  0.71700  0.31800  Biso   1.000  H
  H47      1.0000 0.15690  0.21700  0.18200  Biso   1.000  H
  H48      1.0000 0.65690  0.71700  0.18200  Biso   1.000  H
  H49      1.0000 0.07330  0.19900  0.08540  Biso   1.000  H
  H50      1.0000 0.57330  0.69900  0.08540  Biso   1.000  H
  H51      1.0000 0.92670  0.19900  0.41460  Biso   1.000  H
  H52      1.0000 0.42670  0.69900  0.41460  Biso   1.000  H
  H53      1.0000 0.92670  0.80100  0.91460  Biso   1.000  H
  H54      1.0000 0.42670  0.30100  0.91460  Biso   1.000  H
  H55      1.0000 0.07330  0.80100  0.58540  Biso   1.000  H
  H56      1.0000 0.57330  0.30100  0.58540  Biso   1.000  H
  H57      1.0000 0.11290  0.59800  0.87900  Biso   1.000  H
  H58      1.0000 0.61290  0.09800  0.87900  Biso   1.000  H
  H59      1.0000 0.88710  0.59800  0.62100  Biso   1.000  H
  H60      1.0000 0.38710  0.09800  0.62100  Biso   1.000  H
  H61      1.0000 0.88710  0.40200  0.12100  Biso   1.000  H
  H62      1.0000 0.38710  0.90200  0.12100  Biso   1.000  H
  H63      1.0000 0.11290  0.40200  0.37900  Biso   1.000  H
  H64      1.0000 0.61290  0.90200  0.37900  Biso   1.000  H
  H65      1.0000 0.09690  0.68200  0.03070  Biso   1.000  H
  H66      1.0000 0.59690  0.18200  0.03070  Biso   1.000  H
  H67      1.0000 0.90310  0.68200  0.46930  Biso   1.000  H
  H68      1.0000 0.40310  0.18200  0.46930  Biso   1.000  H
  H69      1.0000 0.90310  0.31800  0.96930  Biso   1.000  H
  H70      1.0000 0.40310  0.81800  0.96930  Biso   1.000  H
  H71      1.0000 0.09690  0.31800  0.53070  Biso   1.000  H
  H72      1.0000 0.59690  0.81800  0.53070  Biso   1.000  H
  H73      1.0000 0.97470  0.91300  0.13000  Biso   1.000  H
  H74      1.0000 0.47470  0.41300  0.13000  Biso   1.000  H
  H75      1.0000 0.02530  0.91300  0.37000  Biso   1.000  H
  H76      1.0000 0.52530  0.41300  0.37000  Biso   1.000  H
  H77      1.0000 0.02530  0.08700  0.87000  Biso   1.000  H
  H78      1.0000 0.52530  0.58700  0.87000  Biso   1.000  H
  H79      1.0000 0.97470  0.08700  0.63000  Biso   1.000  H
  H80      1.0000 0.47470  0.58700  0.63000  Biso   1.000  H
  H81      1.0000 0.99170  0.69700  0.11300  Biso   1.000  H
  H82      1.0000 0.49170  0.19700  0.11300  Biso   1.000  H
  H83      1.0000 0.00830  0.69700  0.38700  Biso   1.000  H
  H84      1.0000 0.50830  0.19700  0.38700  Biso   1.000  H
  H85      1.0000 0.00830  0.30300  0.88700  Biso   1.000  H
  H86      1.0000 0.50830  0.80300  0.88700  Biso   1.000  H
  H87      1.0000 0.99170  0.30300  0.61300  Biso   1.000  H
  H88      1.0000 0.49170  0.80300  0.61300  Biso   1.000  H
  H89      1.0000 0.93520  0.00100  0.21200  Biso   1.000  H
  H90      1.0000 0.43520  0.50100  0.21200  Biso   1.000  H
  H91      1.0000 0.06480  0.00100  0.28800  Biso   1.000  H
  H92      1.0000 0.56480  0.50100  0.28800  Biso   1.000  H
  H93      1.0000 0.06480  0.99900  0.78800  Biso   1.000  H
  H94      1.0000 0.56480  0.49900  0.78800  Biso   1.000  H
  H95      1.0000 0.93520  0.99900  0.71200  Biso   1.000  H
  H96      1.0000 0.43520  0.49900  0.71200  Biso   1.000  H
  H97      1.0000 0.95920  0.16500  0.25200  Biso   1.000  H
  H98      1.0000 0.45920  0.66500  0.25200  Biso   1.000  H
  H99      1.0000 0.04080  0.16500  0.24800  Biso   1.000  H
  H100     1.0000 0.54080  0.66500  0.24800  Biso   1.000  H
  H101     1.0000 0.04080  0.83500  0.74800  Biso   1.000  H
  H102     1.0000 0.54080  0.33500  0.74800  Biso   1.000  H
  H103     1.0000 0.95920  0.83500  0.75200  Biso   1.000  H
  H104     1.0000 0.45920  0.33500  0.75200  Biso   1.000  H
