data_image0
_cell_length_a       9.4497
_cell_length_b       10.1253
_cell_length_c       13.6282
_cell_angle_alpha    87.028
_cell_angle_beta     83.596
_cell_angle_gamma    82.969

_symmetry_space_group_name_H-M    "P 1"
_symmetry_int_tables_number       1

loop_
  _symmetry_equiv_pos_as_xyz
  'x, y, z'

loop_
  _atom_site_label
  _atom_site_occupancy
  _atom_site_fract_x
  _atom_site_fract_y
  _atom_site_fract_z
  _atom_site_thermal_displace_type
  _atom_site_B_iso_or_equiv
  _atom_site_type_symbol
  C1       1.0000 0.69100  0.50740  0.18368  Biso   1.000  C
  C2       1.0000 0.30900  0.49260  0.81632  Biso   1.000  C
  H1       1.0000 0.66610  0.59420  0.20420  Biso   1.000  H
  H2       1.0000 0.33390  0.40580  0.79580  Biso   1.000  H
  C3       1.0000 0.60220  0.45320  0.12512  Biso   1.000  C
  C4       1.0000 0.39780  0.54680  0.87488  Biso   1.000  C
  H3       1.0000 0.51970  0.50370  0.10670  Biso   1.000  H
  H4       1.0000 0.48030  0.49630  0.89330  Biso   1.000  H
  C5       1.0000 0.63690  0.32580  0.09503  Biso   1.000  C
  C6       1.0000 0.36310  0.67420  0.90497  Biso   1.000  C
  H5       1.0000 0.57910  0.28990  0.05500  Biso   1.000  H
  H6       1.0000 0.42090  0.71010  0.94500  Biso   1.000  H
  C7       1.0000 0.75930  0.24960  0.12445  Biso   1.000  C
  C8       1.0000 0.24070  0.75040  0.87555  Biso   1.000  C
  C9       1.0000 0.80040  0.10970  0.10191  Biso   1.000  C
  C10      1.0000 0.19960  0.89030  0.89809  Biso   1.000  C
  C11      1.0000 0.76300  0.92200  0.02759  Biso   1.000  C
  C12      1.0000 0.23700  0.07800  0.97241  Biso   1.000  C
  C13      1.0000 0.68460  0.85400  0.96726  Biso   1.000  C
  C14      1.0000 0.31540  0.14600  0.03274  Biso   1.000  C
  H7       1.0000 0.60370  0.89810  0.94170  Biso   1.000  H
  H8       1.0000 0.39630  0.10190  0.05830  Biso   1.000  H
  C15      1.0000 0.72830  0.72420  0.94701  Biso   1.000  C
  C16      1.0000 0.27170  0.27580  0.05299  Biso   1.000  C
  H9       1.0000 0.67680  0.68040  0.90710  Biso   1.000  H
  H10      1.0000 0.32320  0.31960  0.09290  Biso   1.000  H
  C17      1.0000 0.84950  0.65500  0.98512  Biso   1.000  C
  C18      1.0000 0.15050  0.34500  0.01488  Biso   1.000  C
  H11      1.0000 0.87760  0.56650  0.96970  Biso   1.000  H
  H12      1.0000 0.12240  0.43350  0.03030  Biso   1.000  H
  C19      1.0000 0.92680  0.71600  0.04465  Biso   1.000  C
  C20      1.0000 0.07320  0.28400  0.95535  Biso   1.000  C
  H13      1.0000 0.00600  0.66910  0.07060  Biso   1.000  H
  H14      1.0000 0.99400  0.33090  0.92940  Biso   1.000  H
  C21      1.0000 0.88530  0.85070  0.06630  Biso   1.000  C
  C22      1.0000 0.11470  0.14930  0.93370  Biso   1.000  C
  C23      1.0000 0.92280  0.03780  0.14075  Biso   1.000  C
  C24      1.0000 0.07720  0.96220  0.85925  Biso   1.000  C
  C25      1.0000 0.00700  0.10480  0.20269  Biso   1.000  C
  C26      1.0000 0.99300  0.89520  0.79731  Biso   1.000  C
  C27      1.0000 0.12250  0.03840  0.24847  Biso   1.000  C
  C28      1.0000 0.87750  0.96160  0.75153  Biso   1.000  C
  H15      1.0000 0.14980  0.94790  0.24050  Biso   1.000  H
  H16      1.0000 0.85020  0.05210  0.75950  Biso   1.000  H
  C29      1.0000 0.19470  0.10980  0.30532  Biso   1.000  C
  C30      1.0000 0.80530  0.89020  0.69468  Biso   1.000  C
  H17      1.0000 0.26970  0.06720  0.33820  Biso   1.000  H
  H18      1.0000 0.73030  0.93280  0.66180  Biso   1.000  H
  C31      1.0000 0.15570  0.24530  0.31369  Biso   1.000  C
  C32      1.0000 0.84430  0.75470  0.68631  Biso   1.000  C
  H19      1.0000 0.20860  0.29290  0.34990  Biso   1.000  H
  H20      1.0000 0.79140  0.70710  0.65010  Biso   1.000  H
  C33      1.0000 0.97060  0.23900  0.21820  Biso   1.000  C
  C34      1.0000 0.02940  0.76100  0.78180  Biso   1.000  C
  C35      1.0000 0.84290  0.31160  0.18242  Biso   1.000  C
  C36      1.0000 0.15710  0.68840  0.81758  Biso   1.000  C
  C37      1.0000 0.33360  0.67450  0.26865  Biso   1.000  C
  C38      1.0000 0.66640  0.32550  0.73135  Biso   1.000  C
  C39      1.0000 0.38760  0.66160  0.36005  Biso   1.000  C
  C40      1.0000 0.61240  0.33840  0.63995  Biso   1.000  C
  H21      1.0000 0.35310  0.60170  0.40830  Biso   1.000  H
  H22      1.0000 0.64690  0.39830  0.59170  Biso   1.000  H
  C41      1.0000 0.49270  0.73810  0.37886  Biso   1.000  C
  C42      1.0000 0.50730  0.26190  0.62114  Biso   1.000  C
  H23      1.0000 0.53090  0.72600  0.43910  Biso   1.000  H
  H24      1.0000 0.46910  0.27400  0.56090  Biso   1.000  H
  C43      1.0000 0.54220  0.83150  0.31089  Biso   1.000  C
  C44      1.0000 0.45780  0.16850  0.68911  Biso   1.000  C
  C45      1.0000 0.48740  0.84430  0.22008  Biso   1.000  C
  C46      1.0000 0.51260  0.15570  0.77992  Biso   1.000  C
  H25      1.0000 0.51890  0.90690  0.17290  Biso   1.000  H
  H26      1.0000 0.48110  0.09310  0.82710  Biso   1.000  H
  C47      1.0000 0.38610  0.76490  0.19893  Biso   1.000  C
  C48      1.0000 0.61390  0.23510  0.80107  Biso   1.000  C
  H27      1.0000 0.35310  0.77260  0.13690  Biso   1.000  H
  H28      1.0000 0.64690  0.22740  0.86310  Biso   1.000  H
  C49      1.0000 0.64130  0.92360  0.33985  Biso   1.000  C
  C50      1.0000 0.35870  0.07640  0.66015  Biso   1.000  C
  C51      1.0000 0.76590  0.87790  0.38320  Biso   1.000  C
  C52      1.0000 0.23410  0.12210  0.61680  Biso   1.000  C
  C53      1.0000 0.83890  0.96870  0.42490  Biso   1.000  C
  C54      1.0000 0.16110  0.03130  0.57510  Biso   1.000  C
  H29      1.0000 0.91980  0.93770  0.45630  Biso   1.000  H
  H30      1.0000 0.08020  0.06230  0.54370  Biso   1.000  H
  C55      1.0000 0.79430  0.10260  0.42080  Biso   1.000  C
  C56      1.0000 0.20570  0.89740  0.57920  Biso   1.000  C
  H31      1.0000 0.84420  0.16150  0.44950  Biso   1.000  H
  H32      1.0000 0.15580  0.83850  0.55050  Biso   1.000  H
  C57      1.0000 0.67600  0.14910  0.37430  Biso   1.000  C
  C58      1.0000 0.32400  0.85090  0.62570  Biso   1.000  C
  H33      1.0000 0.64690  0.24010  0.36980  Biso   1.000  H
  H34      1.0000 0.35310  0.75990  0.63020  Biso   1.000  H
  C59      1.0000 0.59970  0.06080  0.33400  Biso   1.000  C
  C60      1.0000 0.40030  0.93920  0.66600  Biso   1.000  C
  H35      1.0000 0.51930  0.09330  0.30260  Biso   1.000  H
  H36      1.0000 0.48070  0.90670  0.69740  Biso   1.000  H
  C61      1.0000 0.21370  0.59680  0.24790  Biso   1.000  C
  C62      1.0000 0.78630  0.40320  0.75210  Biso   1.000  C
  C63      1.0000 0.82770  0.73500  0.38720  Biso   1.000  C
  C64      1.0000 0.17230  0.26500  0.61280  Biso   1.000  C
  N1       1.0000 0.80989  0.43843  0.21084  Biso   1.000  N
  N2       1.0000 0.19011  0.56157  0.78916  Biso   1.000  N
  N3       1.0000 0.04520  0.30998  0.27194  Biso   1.000  N
  N4       1.0000 0.95480  0.69002  0.72806  Biso   1.000  N
  N5       1.0000 0.72094  0.05180  0.04617  Biso   1.000  N
  N6       1.0000 0.27906  0.94820  0.95383  Biso   1.000  N
  N7       1.0000 0.96456  0.91115  0.12323  Biso   1.000  N
  N8       1.0000 0.03544  0.08885  0.87677  Biso   1.000  N
  O1       1.0000 0.13274  0.56084  0.32356  Biso   1.000  O
  O2       1.0000 0.86726  0.43916  0.67644  Biso   1.000  O
  O3       1.0000 0.19997  0.57395  0.16213  Biso   1.000  O
  O4       1.0000 0.80003  0.42605  0.83787  Biso   1.000  O
  O5       1.0000 0.87290  0.41910  0.44785  Biso   1.000  O
  O6       1.0000 0.12710  0.58090  0.55215  Biso   1.000  O
  O7       1.0000 0.84486  0.67256  0.30793  Biso   1.000  O
  O8       1.0000 0.15514  0.32744  0.69207  Biso   1.000  O
  O9       1.0000 0.86310  0.68687  0.46792  Biso   1.000  O
  O10      1.0000 0.13690  0.31313  0.53208  Biso   1.000  O
  Cu1      1.0000 0.95674  0.49841  0.29273  Biso   1.000  Cu
  Cu2      1.0000 0.04326  0.50159  0.70727  Biso   1.000  Cu
  H37      1.0000 0.93500  0.38000  0.48600  Biso   1.000  H
  H38      1.0000 0.06500  0.62000  0.51400  Biso   1.000  H
  H39      1.0000 0.84800  0.50300  0.46900  Biso   1.000  H
  H40      1.0000 0.15200  0.49700  0.53100  Biso   1.000  H
