data_image0
_cell_length_a       7.165
_cell_length_b       22.07
_cell_length_c       10.934
_cell_angle_alpha    90
_cell_angle_beta     125.97
_cell_angle_gamma    90

_symmetry_space_group_name_H-M    "P 1"
_symmetry_int_tables_number       1

loop_
  _symmetry_equiv_pos_as_xyz
  'x, y, z'

loop_
  _atom_site_label
  _atom_site_occupancy
  _atom_site_fract_x
  _atom_site_fract_y
  _atom_site_fract_z
  _atom_site_thermal_displace_type
  _atom_site_B_iso_or_equiv
  _atom_site_type_symbol
  O1       1.0000 0.64710  0.24250  0.51390  Biso   1.000  O
  O2       1.0000 0.35290  0.74250  0.98610  Biso   1.000  O
  O3       1.0000 0.35290  0.75750  0.48610  Biso   1.000  O
  O4       1.0000 0.64710  0.25750  0.01390  Biso   1.000  O
  H1       1.0000 0.57420  0.25800  0.54700  Biso   1.000  H
  H2       1.0000 0.42580  0.75800  0.95300  Biso   1.000  H
  H3       1.0000 0.42580  0.74200  0.45300  Biso   1.000  H
  H4       1.0000 0.57420  0.24200  0.04700  Biso   1.000  H
  H5       1.0000 0.76780  0.25870  0.53020  Biso   1.000  H
  H6       1.0000 0.23220  0.75870  0.96980  Biso   1.000  H
  H7       1.0000 0.23220  0.74130  0.46980  Biso   1.000  H
  H8       1.0000 0.76780  0.24130  0.03020  Biso   1.000  H
  Cu1      1.0000 0.40417  0.12060  0.16378  Biso   1.000  Cu
  Cu2      1.0000 0.59583  0.62060  0.33622  Biso   1.000  Cu
  Cu3      1.0000 0.59583  0.87940  0.83622  Biso   1.000  Cu
  Cu4      1.0000 0.40417  0.37940  0.66378  Biso   1.000  Cu
  O5       1.0000 0.39990  0.20630  0.12350  Biso   1.000  O
  O6       1.0000 0.60010  0.70630  0.37650  Biso   1.000  O
  O7       1.0000 0.60010  0.79370  0.87650  Biso   1.000  O
  O8       1.0000 0.39990  0.29370  0.62350  Biso   1.000  O
  O9       1.0000 0.04660  0.20510  0.06570  Biso   1.000  O
  O10      1.0000 0.95340  0.70510  0.43430  Biso   1.000  O
  O11      1.0000 0.95340  0.79490  0.93430  Biso   1.000  O
  O12      1.0000 0.04660  0.29490  0.56570  Biso   1.000  O
  O13      1.0000 0.13130  0.40400  0.86430  Biso   1.000  O
  O14      1.0000 0.86870  0.90400  0.63570  Biso   1.000  O
  O15      1.0000 0.86870  0.59600  0.13570  Biso   1.000  O
  O16      1.0000 0.13130  0.09600  0.36430  Biso   1.000  O
  O17      1.0000 0.76110  0.39800  0.74910  Biso   1.000  O
  O18      1.0000 0.23890  0.89800  0.75090  Biso   1.000  O
  O19      1.0000 0.23890  0.60200  0.25090  Biso   1.000  O
  O20      1.0000 0.76110  0.10200  0.24910  Biso   1.000  O
  O21      1.0000 0.47640  0.13540  0.36700  Biso   1.000  O
  O22      1.0000 0.52360  0.63540  0.13300  Biso   1.000  O
  O23      1.0000 0.52360  0.86460  0.63300  Biso   1.000  O
  O24      1.0000 0.47640  0.36460  0.86700  Biso   1.000  O
  H9       1.0000 0.36150  0.12160  0.35390  Biso   1.000  H
  H10      1.0000 0.63850  0.62160  0.14610  Biso   1.000  H
  H11      1.0000 0.63850  0.87840  0.64610  Biso   1.000  H
  H12      1.0000 0.36150  0.37840  0.85390  Biso   1.000  H
  H13      1.0000 0.52770  0.16800  0.40100  Biso   1.000  H
  H14      1.0000 0.47230  0.66800  0.09900  Biso   1.000  H
  H15      1.0000 0.47230  0.83200  0.59900  Biso   1.000  H
  H16      1.0000 0.52770  0.33200  0.90100  Biso   1.000  H
  N1       1.0000 0.36750  0.03010  0.17750  Biso   1.000  N
  N2       1.0000 0.63250  0.53010  0.32250  Biso   1.000  N
  N3       1.0000 0.63250  0.96990  0.82250  Biso   1.000  N
  N4       1.0000 0.36750  0.46990  0.67750  Biso   1.000  N
  N5       1.0000 0.24850  0.09880  0.95070  Biso   1.000  N
  N6       1.0000 0.75150  0.59880  0.54930  Biso   1.000  N
  N7       1.0000 0.75150  0.90120  0.04930  Biso   1.000  N
  N8       1.0000 0.24850  0.40120  0.45070  Biso   1.000  N
  N9       1.0000 0.10230  0.02550  0.77780  Biso   1.000  N
  N10      1.0000 0.89770  0.52550  0.72220  Biso   1.000  N
  N11      1.0000 0.89770  0.97450  0.22220  Biso   1.000  N
  N12      1.0000 0.10230  0.47450  0.27780  Biso   1.000  N
  H17      1.0000 0.06360  0.98910  0.74400  Biso   1.000  H
  H18      1.0000 0.93640  0.48910  0.75600  Biso   1.000  H
  H19      1.0000 0.93640  0.01090  0.25600  Biso   1.000  H
  H20      1.0000 0.06360  0.51090  0.24400  Biso   1.000  H
  C1       1.0000 0.43850  0.99680  0.29960  Biso   1.000  C
  C2       1.0000 0.56150  0.49680  0.20040  Biso   1.000  C
  C3       1.0000 0.56150  0.00320  0.70040  Biso   1.000  C
  C4       1.0000 0.43850  0.50320  0.79960  Biso   1.000  C
  H21      1.0000 0.51130  0.01620  0.39240  Biso   1.000  H
  H22      1.0000 0.48870  0.51620  0.10760  Biso   1.000  H
  H23      1.0000 0.48870  0.98380  0.60760  Biso   1.000  H
  H24      1.0000 0.51130  0.48380  0.89240  Biso   1.000  H
  C5       1.0000 0.40920  0.93550  0.29480  Biso   1.000  C
  C6       1.0000 0.59080  0.43550  0.20520  Biso   1.000  C
  C7       1.0000 0.59080  0.06450  0.70520  Biso   1.000  C
  C8       1.0000 0.40920  0.56450  0.79480  Biso   1.000  C
  H25      1.0000 0.45770  0.91410  0.38200  Biso   1.000  H
  H26      1.0000 0.54230  0.41410  0.11800  Biso   1.000  H
  H27      1.0000 0.54230  0.08590  0.61800  Biso   1.000  H
  H28      1.0000 0.45770  0.58590  0.88200  Biso   1.000  H
  C9       1.0000 0.30990  0.90680  0.16290  Biso   1.000  C
  C10      1.0000 0.69010  0.40680  0.33710  Biso   1.000  C
  C11      1.0000 0.69010  0.09320  0.83710  Biso   1.000  C
  C12      1.0000 0.30990  0.59320  0.66290  Biso   1.000  C
  H29      1.0000 0.28650  0.86510  0.15740  Biso   1.000  H
  H30      1.0000 0.71350  0.36510  0.34260  Biso   1.000  H
  H31      1.0000 0.71350  0.13490  0.84260  Biso   1.000  H
  H32      1.0000 0.28650  0.63490  0.65740  Biso   1.000  H
  C13      1.0000 0.24160  0.93940  0.03370  Biso   1.000  C
  C14      1.0000 0.75840  0.43940  0.46630  Biso   1.000  C
  C15      1.0000 0.75840  0.06060  0.96630  Biso   1.000  C
  C16      1.0000 0.24160  0.56060  0.53370  Biso   1.000  C
  H33      1.0000 0.17740  0.91980  0.94180  Biso   1.000  H
  H34      1.0000 0.82260  0.41980  0.55820  Biso   1.000  H
  H35      1.0000 0.82260  0.08020  0.05820  Biso   1.000  H
  H36      1.0000 0.17740  0.58020  0.44180  Biso   1.000  H
  C17      1.0000 0.27080  0.00030  0.04520  Biso   1.000  C
  C18      1.0000 0.72920  0.50030  0.45480  Biso   1.000  C
  C19      1.0000 0.72920  0.99970  0.95480  Biso   1.000  C
  C20      1.0000 0.27080  0.49970  0.54520  Biso   1.000  C
  C21      1.0000 0.20560  0.04180  0.91920  Biso   1.000  C
  C22      1.0000 0.79440  0.54180  0.58080  Biso   1.000  C
  C23      1.0000 0.79440  0.95820  0.08080  Biso   1.000  C
  C24      1.0000 0.20560  0.45820  0.41920  Biso   1.000  C
  C25      1.0000 0.06350  0.07870  0.68750  Biso   1.000  C
  C26      1.0000 0.93650  0.57870  0.81250  Biso   1.000  C
  C27      1.0000 0.93650  0.92130  0.31250  Biso   1.000  C
  C28      1.0000 0.06350  0.42130  0.18750  Biso   1.000  C
  H37      1.0000 0.90060  0.08450  0.60840  Biso   1.000  H
  H38      1.0000 0.09940  0.58450  0.89160  Biso   1.000  H
  H39      1.0000 0.09940  0.91550  0.39160  Biso   1.000  H
  H40      1.0000 0.90060  0.41550  0.10840  Biso   1.000  H
  H41      1.0000 0.14590  0.07570  0.64220  Biso   1.000  H
  H42      1.0000 0.85410  0.57570  0.85780  Biso   1.000  H
  H43      1.0000 0.85410  0.92430  0.35780  Biso   1.000  H
  H44      1.0000 0.14590  0.42430  0.14220  Biso   1.000  H
  C29      1.0000 0.16300  0.13160  0.80820  Biso   1.000  C
  C30      1.0000 0.83700  0.63160  0.69180  Biso   1.000  C
  C31      1.0000 0.83700  0.86840  0.19180  Biso   1.000  C
  C32      1.0000 0.16300  0.36840  0.30820  Biso   1.000  C
  H45      1.0000 0.28730  0.15280  0.81480  Biso   1.000  H
  H46      1.0000 0.71270  0.65280  0.68520  Biso   1.000  H
  H47      1.0000 0.71270  0.84720  0.18520  Biso   1.000  H
  H48      1.0000 0.28730  0.34720  0.31480  Biso   1.000  H
  H49      1.0000 0.04350  0.16040  0.78380  Biso   1.000  H
  H50      1.0000 0.95650  0.66040  0.71620  Biso   1.000  H
  H51      1.0000 0.95650  0.83960  0.21620  Biso   1.000  H
  H52      1.0000 0.04350  0.33960  0.28380  Biso   1.000  H
  C33      1.0000 0.20370  0.23120  0.07080  Biso   1.000  C
  C34      1.0000 0.79630  0.73120  0.42920  Biso   1.000  C
  C35      1.0000 0.79630  0.76880  0.92920  Biso   1.000  C
  C36      1.0000 0.20370  0.26880  0.57080  Biso   1.000  C
  C37      1.0000 0.17570  0.29240  0.00910  Biso   1.000  C
  C38      1.0000 0.82430  0.79240  0.49090  Biso   1.000  C
  C39      1.0000 0.82430  0.70760  0.99090  Biso   1.000  C
  C40      1.0000 0.17570  0.20760  0.50910  Biso   1.000  C
  H53      1.0000 0.30730  0.31610  0.05150  Biso   1.000  H
  H54      1.0000 0.69270  0.81610  0.44850  Biso   1.000  H
  H55      1.0000 0.69270  0.68390  0.94850  Biso   1.000  H
  H56      1.0000 0.30730  0.18390  0.55150  Biso   1.000  H
  C41      1.0000 0.98150  0.31560  0.90020  Biso   1.000  C
  C42      1.0000 0.01850  0.81560  0.59980  Biso   1.000  C
  C43      1.0000 0.01850  0.68440  0.09980  Biso   1.000  C
  C44      1.0000 0.98150  0.18440  0.40020  Biso   1.000  C
  H57      1.0000 0.84800  0.29310  0.86170  Biso   1.000  H
  H58      1.0000 0.15200  0.79310  0.63830  Biso   1.000  H
  H59      1.0000 0.15200  0.70690  0.13830  Biso   1.000  H
  H60      1.0000 0.84800  0.20690  0.36170  Biso   1.000  H
  C45      1.0000 0.95830  0.37640  0.83260  Biso   1.000  C
  C46      1.0000 0.04170  0.87640  0.66740  Biso   1.000  C
  C47      1.0000 0.04170  0.62360  0.16740  Biso   1.000  C
  C48      1.0000 0.95830  0.12360  0.33260  Biso   1.000  C
