data_image0
_cell_length_a       7.6075
_cell_length_b       22.281
_cell_length_c       9.8205
_cell_angle_alpha    90
_cell_angle_beta     108.15
_cell_angle_gamma    90

_symmetry_space_group_name_H-M    "P 1"
_symmetry_int_tables_number       1

loop_
  _symmetry_equiv_pos_as_xyz
  'x, y, z'

loop_
  _atom_site_label
  _atom_site_occupancy
  _atom_site_fract_x
  _atom_site_fract_y
  _atom_site_fract_z
  _atom_site_thermal_displace_type
  _atom_site_B_iso_or_equiv
  _atom_site_type_symbol
  Cu1      1.0000 0.65447  0.92590  0.03002  Biso   1.000  Cu
  Cu2      1.0000 0.34553  0.42590  0.96998  Biso   1.000  Cu
  Cu3      1.0000 0.64748  0.85102  0.52764  Biso   1.000  Cu
  Cu4      1.0000 0.35252  0.35102  0.47236  Biso   1.000  Cu
  O1       1.0000 0.35190  0.96530  0.02910  Biso   1.000  O
  O2       1.0000 0.64810  0.46530  0.97090  Biso   1.000  O
  H1       1.0000 0.28660  0.94840  0.08600  Biso   1.000  H
  H2       1.0000 0.71340  0.44840  0.91400  Biso   1.000  H
  H3       1.0000 0.27080  0.96940  0.94660  Biso   1.000  H
  H4       1.0000 0.72920  0.46940  0.05340  Biso   1.000  H
  O3       1.0000 0.31370  0.82040  0.52680  Biso   1.000  O
  O4       1.0000 0.68630  0.32040  0.47320  Biso   1.000  O
  H5       1.0000 0.24910  0.83750  0.57340  Biso   1.000  H
  H6       1.0000 0.75090  0.33750  0.42660  Biso   1.000  H
  H7       1.0000 0.25020  0.82510  0.43680  Biso   1.000  H
  H8       1.0000 0.74980  0.32510  0.56320  Biso   1.000  H
  O5       1.0000 0.67620  0.89237  0.22270  Biso   1.000  O
  O6       1.0000 0.32380  0.39237  0.77730  Biso   1.000  O
  O7       1.0000 0.56880  0.81943  0.33070  Biso   1.000  O
  O8       1.0000 0.43120  0.31943  0.66930  Biso   1.000  O
  O9       1.0000 0.02030  0.58760  0.24080  Biso   1.000  O
  O10      1.0000 0.97970  0.08760  0.75920  Biso   1.000  O
  H9       1.0000 0.97910  0.55070  0.23260  Biso   1.000  H
  H10      1.0000 0.02090  0.05070  0.76740  Biso   1.000  H
  O11      1.0000 0.65940  0.88055  0.71870  Biso   1.000  O
  O12      1.0000 0.34060  0.38055  0.28130  Biso   1.000  O
  O13      1.0000 0.60680  0.95966  0.83660  Biso   1.000  O
  O14      1.0000 0.39320  0.45966  0.16340  Biso   1.000  O
  O15      1.0000 0.56280  0.22702  0.28120  Biso   1.000  O
  O16      1.0000 0.43720  0.72702  0.71880  Biso   1.000  O
  H11      1.0000 0.60720  0.25570  0.34030  Biso   1.000  H
  H12      1.0000 0.39280  0.75570  0.65970  Biso   1.000  H
  O17      1.0000 0.97060  0.87910  0.05350  Biso   1.000  O
  O18      1.0000 0.02940  0.37910  0.94650  Biso   1.000  O
  O19      1.0000 0.10010  0.82570  0.24120  Biso   1.000  O
  O20      1.0000 0.89990  0.32570  0.75880  Biso   1.000  O
  O21      1.0000 0.18330  0.91790  0.23090  Biso   1.000  O
  O22      1.0000 0.81670  0.41790  0.76910  Biso   1.000  O
  O23      1.0000 0.96650  0.91960  0.55610  Biso   1.000  O
  O24      1.0000 0.03350  0.41960  0.44390  Biso   1.000  O
  O25      1.0000 0.06820  0.96740  0.75940  Biso   1.000  O
  O26      1.0000 0.93180  0.46740  0.24060  Biso   1.000  O
  O27      1.0000 0.19890  0.88800  0.72130  Biso   1.000  O
  O28      1.0000 0.80110  0.38800  0.27870  Biso   1.000  O
  N1       1.0000 0.78490  0.00170  0.11480  Biso   1.000  N
  N2       1.0000 0.21510  0.50170  0.88520  Biso   1.000  N
  N3       1.0000 0.20320  0.27840  0.39380  Biso   1.000  N
  N4       1.0000 0.79680  0.77840  0.60620  Biso   1.000  N
  N5       1.0000 0.53820  0.84610  0.96400  Biso   1.000  N
  N6       1.0000 0.46180  0.34610  0.03600  Biso   1.000  N
  H13      1.0000 0.44610  0.85040  0.88080  Biso   1.000  H
  H14      1.0000 0.55390  0.35040  0.11920  Biso   1.000  H
  H15      1.0000 0.62290  0.82090  0.94920  Biso   1.000  H
  H16      1.0000 0.37710  0.32090  0.05080  Biso   1.000  H
  N7       1.0000 0.54790  0.93130  0.46560  Biso   1.000  N
  N8       1.0000 0.45210  0.43130  0.53440  Biso   1.000  N
  H17      1.0000 0.60380  0.94640  0.40480  Biso   1.000  H
  H18      1.0000 0.39620  0.44640  0.59520  Biso   1.000  H
  H19      1.0000 0.42610  0.92840  0.41840  Biso   1.000  H
  H20      1.0000 0.57390  0.42840  0.58160  Biso   1.000  H
  N9       1.0000 0.08480  0.87480  0.17570  Biso   1.000  N
  N10      1.0000 0.91520  0.37480  0.82430  Biso   1.000  N
  N11      1.0000 0.07910  0.92490  0.67820  Biso   1.000  N
  N12      1.0000 0.92090  0.42490  0.32180  Biso   1.000  N
  C1       1.0000 0.78810  0.02090  0.24390  Biso   1.000  C
  C2       1.0000 0.21190  0.52090  0.75610  Biso   1.000  C
  H21      1.0000 0.73750  0.99620  0.29830  Biso   1.000  H
  H22      1.0000 0.26250  0.49620  0.70170  Biso   1.000  H
  C3       1.0000 0.86160  0.07530  0.30240  Biso   1.000  C
  C4       1.0000 0.13840  0.57530  0.69760  Biso   1.000  C
  H23      1.0000 0.85810  0.08650  0.39270  Biso   1.000  H
  H24      1.0000 0.14190  0.58650  0.60730  Biso   1.000  H
  C5       1.0000 0.93850  0.11190  0.22730  Biso   1.000  C
  C6       1.0000 0.06150  0.61190  0.77270  Biso   1.000  C
  C7       1.0000 0.93820  0.09230  0.09420  Biso   1.000  C
  C8       1.0000 0.06180  0.59230  0.90580  Biso   1.000  C
  H25      1.0000 0.99020  0.11600  0.03880  Biso   1.000  H
  H26      1.0000 0.00980  0.61600  0.96120  Biso   1.000  H
  C9       1.0000 0.86130  0.03780  0.04320  Biso   1.000  C
  C10      1.0000 0.13870  0.53780  0.95680  Biso   1.000  C
  H27      1.0000 0.86320  0.02570  0.95310  Biso   1.000  H
  H28      1.0000 0.13680  0.52570  0.04690  Biso   1.000  H
  C11      1.0000 0.17880  0.23480  0.48110  Biso   1.000  C
  C12      1.0000 0.82120  0.73480  0.51890  Biso   1.000  C
  H29      1.0000 0.22390  0.24070  0.57970  Biso   1.000  H
  H30      1.0000 0.77610  0.74070  0.42030  Biso   1.000  H
  C13      1.0000 0.08960  0.18150  0.43010  Biso   1.000  C
  C14      1.0000 0.91040  0.68150  0.56990  Biso   1.000  C
  H31      1.0000 0.07610  0.15250  0.49420  Biso   1.000  H
  H32      1.0000 0.92390  0.65250  0.50580  Biso   1.000  H
  C15      1.0000 0.02010  0.17110  0.28420  Biso   1.000  C
  C16      1.0000 0.97990  0.67110  0.71580  Biso   1.000  C
  C17      1.0000 0.03890  0.21700  0.19460  Biso   1.000  C
  C18      1.0000 0.96110  0.71700  0.80540  Biso   1.000  C
  H33      1.0000 0.99210  0.21250  0.09570  Biso   1.000  H
  H34      1.0000 0.00790  0.71250  0.90430  Biso   1.000  H
  C19      1.0000 0.12840  0.27000  0.25330  Biso   1.000  C
  C20      1.0000 0.87160  0.77000  0.74670  Biso   1.000  C
  H35      1.0000 0.13610  0.30080  0.19160  Biso   1.000  H
  H36      1.0000 0.86390  0.80080  0.80840  Biso   1.000  H
  C21      1.0000 0.57930  0.84560  0.22090  Biso   1.000  C
  C22      1.0000 0.42070  0.34560  0.77910  Biso   1.000  C
  C23      1.0000 0.46480  0.82140  0.07390  Biso   1.000  C
  C24      1.0000 0.53520  0.32140  0.92610  Biso   1.000  C
  H37      1.0000 0.34280  0.84000  0.05500  Biso   1.000  H
  H38      1.0000 0.65720  0.34000  0.94500  Biso   1.000  H
  C25      1.0000 0.42780  0.75440  0.06580  Biso   1.000  C
  C26      1.0000 0.57220  0.25440  0.93420  Biso   1.000  C
  H39      1.0000 0.35350  0.74560  0.12760  Biso   1.000  H
  H40      1.0000 0.64650  0.24560  0.87240  Biso   1.000  H
  H41      1.0000 0.35270  0.74520  0.96860  Biso   1.000  H
  H42      1.0000 0.64730  0.24520  0.03140  Biso   1.000  H
  C27      1.0000 0.59010  0.71190  0.10500  Biso   1.000  C
  C28      1.0000 0.40990  0.21190  0.89500  Biso   1.000  C
  C29      1.0000 0.55580  0.65050  0.10260  Biso   1.000  C
  C30      1.0000 0.44420  0.15050  0.89740  Biso   1.000  C
  H43      1.0000 0.43360  0.63740  0.07220  Biso   1.000  H
  H44      1.0000 0.56640  0.13740  0.92780  Biso   1.000  H
  C31      1.0000 0.69300  0.60830  0.14290  Biso   1.000  C
  C32      1.0000 0.30700  0.10830  0.85710  Biso   1.000  C
  H45      1.0000 0.66380  0.56770  0.13700  Biso   1.000  H
  H46      1.0000 0.33620  0.06770  0.86300  Biso   1.000  H
  C33      1.0000 0.87550  0.62680  0.19240  Biso   1.000  C
  C34      1.0000 0.12450  0.12680  0.80760  Biso   1.000  C
  C35      1.0000 0.91700  0.68640  0.19110  Biso   1.000  C
  C36      1.0000 0.08300  0.18640  0.80890  Biso   1.000  C
  H47      1.0000 0.03980  0.69890  0.21950  Biso   1.000  H
  H48      1.0000 0.96020  0.19890  0.78050  Biso   1.000  H
  C37      1.0000 0.77350  0.72900  0.14670  Biso   1.000  C
  C38      1.0000 0.22650  0.22900  0.85330  Biso   1.000  C
  H49      1.0000 0.80300  0.76940  0.14550  Biso   1.000  H
  H50      1.0000 0.19700  0.26940  0.85450  Biso   1.000  H
  C39      1.0000 0.61440  0.93440  0.72520  Biso   1.000  C
  C40      1.0000 0.38560  0.43440  0.27480  Biso   1.000  C
  C41      1.0000 0.57690  0.97270  0.59000  Biso   1.000  C
  C42      1.0000 0.42310  0.47270  0.41000  Biso   1.000  C
  H51      1.0000 0.69110  0.99490  0.59870  Biso   1.000  H
  H52      1.0000 0.30890  0.49490  0.40130  Biso   1.000  H
  C43      1.0000 0.42300  0.01950  0.56600  Biso   1.000  C
  C44      1.0000 0.57700  0.51950  0.43400  Biso   1.000  C
  H53      1.0000 0.30630  0.00150  0.51150  Biso   1.000  H
  H54      1.0000 0.69370  0.50150  0.48850  Biso   1.000  H
  H55      1.0000 0.41290  0.03180  0.65810  Biso   1.000  H
  H56      1.0000 0.58710  0.53180  0.34190  Biso   1.000  H
  C45      1.0000 0.45780  0.07410  0.48730  Biso   1.000  C
  C46      1.0000 0.54220  0.57410  0.51270  Biso   1.000  C
  C47      1.0000 0.55720  0.12210  0.56600  Biso   1.000  C
  C48      1.0000 0.44280  0.62210  0.43400  Biso   1.000  C
  H57      1.0000 0.60090  0.11950  0.66550  Biso   1.000  H
  H58      1.0000 0.39910  0.61950  0.33450  Biso   1.000  H
  C49      1.0000 0.59220  0.17360  0.49950  Biso   1.000  C
  C50      1.0000 0.40780  0.67360  0.50050  Biso   1.000  C
  H59      1.0000 0.65690  0.20540  0.55360  Biso   1.000  H
  H60      1.0000 0.34310  0.70540  0.44640  Biso   1.000  H
  C51      1.0000 0.52900  0.17700  0.35010  Biso   1.000  C
  C52      1.0000 0.47100  0.67700  0.64990  Biso   1.000  C
  C53      1.0000 0.43570  0.12950  0.27290  Biso   1.000  C
  C54      1.0000 0.56430  0.62950  0.72710  Biso   1.000  C
  H61      1.0000 0.39660  0.13140  0.17340  Biso   1.000  H
  H62      1.0000 0.60340  0.63140  0.82660  Biso   1.000  H
  C55      1.0000 0.39820  0.07870  0.33950  Biso   1.000  C
  C56      1.0000 0.60180  0.57870  0.66050  Biso   1.000  C
  H63      1.0000 0.33220  0.04720  0.28450  Biso   1.000  H
  H64      1.0000 0.66780  0.54720  0.71550  Biso   1.000  H
