data_image0
_cell_length_a       7.2192
_cell_length_b       8.3899
_cell_length_c       11.191
_cell_angle_alpha    74.81
_cell_angle_beta     84.38
_cell_angle_gamma    74.77

_symmetry_space_group_name_H-M    "P 1"
_symmetry_int_tables_number       1

loop_
  _symmetry_equiv_pos_as_xyz
  'x, y, z'

loop_
  _atom_site_label
  _atom_site_occupancy
  _atom_site_fract_x
  _atom_site_fract_y
  _atom_site_fract_z
  _atom_site_thermal_displace_type
  _atom_site_B_iso_or_equiv
  _atom_site_type_symbol
  Cu1      1.0000 0.50000  0.50000  0.50000  Biso   1.000  Cu
  Cu2      1.0000 0.60502  0.14889  0.67727  Biso   1.000  Cu
  Cu3      1.0000 0.39498  0.85111  0.32273  Biso   1.000  Cu
  O1       1.0000 0.41370  0.53960  0.66260  Biso   1.000  O
  O2       1.0000 0.58630  0.46040  0.33740  Biso   1.000  O
  O3       1.0000 0.49230  0.28400  0.79680  Biso   1.000  O
  O4       1.0000 0.50770  0.71600  0.20320  Biso   1.000  O
  O5       1.0000 0.25450  0.88840  0.66560  Biso   1.000  O
  O6       1.0000 0.74550  0.11160  0.33440  Biso   1.000  O
  O7       1.0000 0.03640  0.75450  0.64310  Biso   1.000  O
  O8       1.0000 0.96360  0.24550  0.35690  Biso   1.000  O
  N1       1.0000 0.92400  0.89920  0.91380  Biso   1.000  N
  N2       1.0000 0.07600  0.10080  0.08620  Biso   1.000  N
  O9       1.0000 0.90860  0.99010  0.80740  Biso   1.000  O
  O10      1.0000 0.09140  0.00990  0.19260  Biso   1.000  O
  O11      1.0000 0.81720  0.93540  0.00030  Biso   1.000  O
  O12      1.0000 0.18280  0.06460  0.99970  Biso   1.000  O
  C1       1.0000 0.41250  0.44050  0.76850  Biso   1.000  C
  C2       1.0000 0.58750  0.55950  0.23150  Biso   1.000  C
  C3       1.0000 0.30400  0.51730  0.86830  Biso   1.000  C
  C4       1.0000 0.69600  0.48270  0.13170  Biso   1.000  C
  C5       1.0000 0.32380  0.42480  0.99190  Biso   1.000  C
  C6       1.0000 0.67620  0.57520  0.00810  Biso   1.000  C
  H1       1.0000 0.40590  0.31630  0.01020  Biso   1.000  H
  H2       1.0000 0.59410  0.68370  0.98980  Biso   1.000  H
  C7       1.0000 0.22590  0.48920  0.08650  Biso   1.000  C
  C8       1.0000 0.77410  0.51080  0.91350  Biso   1.000  C
  H3       1.0000 0.24560  0.42670  0.16820  Biso   1.000  H
  H4       1.0000 0.75440  0.57330  0.83180  Biso   1.000  H
  C9       1.0000 0.09720  0.64780  0.06050  Biso   1.000  C
  C10      1.0000 0.90280  0.35220  0.93950  Biso   1.000  C
  H5       1.0000 0.02780  0.69250  0.12390  Biso   1.000  H
  H6       1.0000 0.97220  0.30750  0.87610  Biso   1.000  H
  C11      1.0000 0.07420  0.73890  0.93710  Biso   1.000  C
  C12      1.0000 0.92580  0.26110  0.06290  Biso   1.000  C
  C13      1.0000 0.17800  0.68090  0.83900  Biso   1.000  C
  C14      1.0000 0.82200  0.31910  0.16100  Biso   1.000  C
  C15      1.0000 0.15520  0.78220  0.70510  Biso   1.000  C
  C16      1.0000 0.84480  0.21780  0.29490  Biso   1.000  C
  O13      1.0000 0.28140  0.67830  0.42600  Biso   1.000  O
  O14      1.0000 0.71860  0.32170  0.57400  Biso   1.000  O
  H7       1.0000 0.21550  0.71250  0.48510  Biso   1.000  H
  H8       1.0000 0.78450  0.28750  0.51490  Biso   1.000  H
  H9       1.0000 0.22100  0.64300  0.38070  Biso   1.000  H
  H10      1.0000 0.77900  0.35700  0.61930  Biso   1.000  H
  O15      1.0000 0.34260  0.26980  0.54840  Biso   1.000  O
  O16      1.0000 0.65740  0.73020  0.45160  Biso   1.000  O
  H11      1.0000 0.30770  0.21920  0.50200  Biso   1.000  H
  H12      1.0000 0.69230  0.78080  0.49800  Biso   1.000  H
  O17      1.0000 0.49090  0.97040  0.79090  Biso   1.000  O
  O18      1.0000 0.50910  0.02960  0.20910  Biso   1.000  O
  H13      1.0000 0.41760  0.94250  0.75000  Biso   1.000  H
  H14      1.0000 0.58240  0.05750  0.25000  Biso   1.000  H
  H15      1.0000 0.43470  0.02900  0.84070  Biso   1.000  H
  H16      1.0000 0.56530  0.97100  0.15930  Biso   1.000  H
  O19      1.0000 0.71430  0.98400  0.57460  Biso   1.000  O
  O20      1.0000 0.28570  0.01600  0.42540  Biso   1.000  O
  H17      1.0000 0.72140  0.02920  0.49700  Biso   1.000  H
  H18      1.0000 0.27860  0.97080  0.50300  Biso   1.000  H
  H19      1.0000 0.82440  0.92550  0.60220  Biso   1.000  H
  H20      1.0000 0.17560  0.07450  0.39780  Biso   1.000  H
  O21      1.0000 0.01550  0.40780  0.65590  Biso   1.000  O
  O22      1.0000 0.98450  0.59220  0.34410  Biso   1.000  O
  H21      1.0000 0.10770  0.36450  0.61170  Biso   1.000  H
  H22      1.0000 0.89230  0.63550  0.38830  Biso   1.000  H
  H23      1.0000 0.01350  0.51140  0.64700  Biso   1.000  H
  H24      1.0000 0.98650  0.48860  0.35300  Biso   1.000  H
