data_image0
_cell_length_a       23.431
_cell_length_b       9.456
_cell_length_c       19.838
_cell_angle_alpha    90
_cell_angle_beta     123.444
_cell_angle_gamma    90

_symmetry_space_group_name_H-M    "P 1"
_symmetry_int_tables_number       1

loop_
  _symmetry_equiv_pos_as_xyz
  'x, y, z'

loop_
  _atom_site_label
  _atom_site_occupancy
  _atom_site_fract_x
  _atom_site_fract_y
  _atom_site_fract_z
  _atom_site_thermal_displace_type
  _atom_site_B_iso_or_equiv
  _atom_site_type_symbol
  Cu1      1.0000 0.25000  0.25000  0.50000  Biso   1.000  Cu
  Cu2      1.0000 0.75000  0.75000  0.50000  Biso   1.000  Cu
  Cu3      1.0000 0.75000  0.25000  0.00000  Biso   1.000  Cu
  Cu4      1.0000 0.25000  0.75000  0.00000  Biso   1.000  Cu
  Cl1      1.0000 0.17848  0.49735  0.49205  Biso   1.000  Cl
  Cl2      1.0000 0.67848  0.99735  0.49205  Biso   1.000  Cl
  Cl3      1.0000 0.82152  0.49735  0.00795  Biso   1.000  Cl
  Cl4      1.0000 0.32152  0.99735  0.00795  Biso   1.000  Cl
  Cl5      1.0000 0.82152  0.50265  0.50795  Biso   1.000  Cl
  Cl6      1.0000 0.32152  0.00265  0.50795  Biso   1.000  Cl
  Cl7      1.0000 0.17848  0.50265  0.99205  Biso   1.000  Cl
  Cl8      1.0000 0.67848  0.00265  0.99205  Biso   1.000  Cl
  F1       1.0000 0.99890  0.27820  0.06243  Biso   1.000  F
  F2       1.0000 0.49890  0.77820  0.06243  Biso   1.000  F
  F3       1.0000 0.00110  0.27820  0.43757  Biso   1.000  F
  F4       1.0000 0.50110  0.77820  0.43757  Biso   1.000  F
  F5       1.0000 0.00110  0.72180  0.93757  Biso   1.000  F
  F6       1.0000 0.50110  0.22180  0.93757  Biso   1.000  F
  F7       1.0000 0.99890  0.72180  0.56243  Biso   1.000  F
  F8       1.0000 0.49890  0.22180  0.56243  Biso   1.000  F
  F9       1.0000 0.03625  0.75470  0.13294  Biso   1.000  F
  F10      1.0000 0.53625  0.25470  0.13294  Biso   1.000  F
  F11      1.0000 0.96375  0.75470  0.36706  Biso   1.000  F
  F12      1.0000 0.46375  0.25470  0.36706  Biso   1.000  F
  F13      1.0000 0.96375  0.24530  0.86706  Biso   1.000  F
  F14      1.0000 0.46375  0.74530  0.86706  Biso   1.000  F
  F15      1.0000 0.03625  0.24530  0.63294  Biso   1.000  F
  F16      1.0000 0.53625  0.74530  0.63294  Biso   1.000  F
  O1       1.0000 0.21283  0.20490  0.19749  Biso   1.000  O
  O2       1.0000 0.71283  0.70490  0.19749  Biso   1.000  O
  O3       1.0000 0.78717  0.20490  0.30251  Biso   1.000  O
  O4       1.0000 0.28717  0.70490  0.30251  Biso   1.000  O
  O5       1.0000 0.78717  0.79510  0.80251  Biso   1.000  O
  O6       1.0000 0.28717  0.29510  0.80251  Biso   1.000  O
  O7       1.0000 0.21283  0.79510  0.69749  Biso   1.000  O
  O8       1.0000 0.71283  0.29510  0.69749  Biso   1.000  O
  H1       1.0000 0.22990  0.24630  0.17640  Biso   1.000  H
  H2       1.0000 0.72990  0.74630  0.17640  Biso   1.000  H
  H3       1.0000 0.77010  0.24630  0.32360  Biso   1.000  H
  H4       1.0000 0.27010  0.74630  0.32360  Biso   1.000  H
  H5       1.0000 0.77010  0.75370  0.82360  Biso   1.000  H
  H6       1.0000 0.27010  0.25370  0.82360  Biso   1.000  H
  H7       1.0000 0.22990  0.75370  0.67640  Biso   1.000  H
  H8       1.0000 0.72990  0.25370  0.67640  Biso   1.000  H
  N1       1.0000 0.12916  0.15020  0.25809  Biso   1.000  N
  N2       1.0000 0.62916  0.65020  0.25809  Biso   1.000  N
  N3       1.0000 0.87084  0.15020  0.24191  Biso   1.000  N
  N4       1.0000 0.37084  0.65020  0.24191  Biso   1.000  N
  N5       1.0000 0.87084  0.84980  0.74191  Biso   1.000  N
  N6       1.0000 0.37084  0.34980  0.74191  Biso   1.000  N
  N7       1.0000 0.12916  0.84980  0.75809  Biso   1.000  N
  N8       1.0000 0.62916  0.34980  0.75809  Biso   1.000  N
  N9       1.0000 0.07749  0.19900  0.26390  Biso   1.000  N
  N10      1.0000 0.57749  0.69900  0.26390  Biso   1.000  N
  N11      1.0000 0.92251  0.19900  0.23610  Biso   1.000  N
  N12      1.0000 0.42251  0.69900  0.23610  Biso   1.000  N
  N13      1.0000 0.92251  0.80100  0.73610  Biso   1.000  N
  N14      1.0000 0.42251  0.30100  0.73610  Biso   1.000  N
  N15      1.0000 0.07749  0.80100  0.76390  Biso   1.000  N
  N16      1.0000 0.57749  0.30100  0.76390  Biso   1.000  N
  N17      1.0000 0.17782  0.21430  0.38275  Biso   1.000  N
  N18      1.0000 0.67782  0.71430  0.38275  Biso   1.000  N
  N19      1.0000 0.82218  0.21430  0.11725  Biso   1.000  N
  N20      1.0000 0.32218  0.71430  0.11725  Biso   1.000  N
  N21      1.0000 0.82218  0.78570  0.61725  Biso   1.000  N
  N22      1.0000 0.32218  0.28570  0.61725  Biso   1.000  N
  N23      1.0000 0.17782  0.78570  0.88275  Biso   1.000  N
  N24      1.0000 0.67782  0.28570  0.88275  Biso   1.000  N
  N25      1.0000 0.14313  0.03430  0.05186  Biso   1.000  N
  N26      1.0000 0.64313  0.53430  0.05186  Biso   1.000  N
  N27      1.0000 0.85687  0.03430  0.44814  Biso   1.000  N
  N28      1.0000 0.35687  0.53430  0.44814  Biso   1.000  N
  N29      1.0000 0.85687  0.96570  0.94814  Biso   1.000  N
  N30      1.0000 0.35687  0.46570  0.94814  Biso   1.000  N
  N31      1.0000 0.14313  0.96570  0.55186  Biso   1.000  N
  N32      1.0000 0.64313  0.46570  0.55186  Biso   1.000  N
  N33      1.0000 0.11163  0.91480  0.05224  Biso   1.000  N
  N34      1.0000 0.61163  0.41480  0.05224  Biso   1.000  N
  N35      1.0000 0.88837  0.91480  0.44776  Biso   1.000  N
  N36      1.0000 0.38837  0.41480  0.44776  Biso   1.000  N
  N37      1.0000 0.88837  0.08520  0.94776  Biso   1.000  N
  N38      1.0000 0.38837  0.58520  0.94776  Biso   1.000  N
  N39      1.0000 0.11163  0.08520  0.55224  Biso   1.000  N
  N40      1.0000 0.61163  0.58520  0.55224  Biso   1.000  N
  N41      1.0000 0.19451  0.86430  0.03193  Biso   1.000  N
  N42      1.0000 0.69451  0.36430  0.03193  Biso   1.000  N
  N43      1.0000 0.80549  0.86430  0.46807  Biso   1.000  N
  N44      1.0000 0.30549  0.36430  0.46807  Biso   1.000  N
  N45      1.0000 0.80549  0.13570  0.96807  Biso   1.000  N
  N46      1.0000 0.30549  0.63570  0.96807  Biso   1.000  N
  N47      1.0000 0.19451  0.13570  0.53193  Biso   1.000  N
  N48      1.0000 0.69451  0.63570  0.53193  Biso   1.000  N
  C1       1.0000 0.11287  0.35740  0.14292  Biso   1.000  C
  C2       1.0000 0.61287  0.85740  0.14292  Biso   1.000  C
  C3       1.0000 0.88713  0.35740  0.35708  Biso   1.000  C
  C4       1.0000 0.38713  0.85740  0.35708  Biso   1.000  C
  C5       1.0000 0.88713  0.64260  0.85708  Biso   1.000  C
  C6       1.0000 0.38713  0.14260  0.85708  Biso   1.000  C
  C7       1.0000 0.11287  0.64260  0.64292  Biso   1.000  C
  C8       1.0000 0.61287  0.14260  0.64292  Biso   1.000  C
  C9       1.0000 0.04358  0.38640  0.10155  Biso   1.000  C
  C10      1.0000 0.54358  0.88640  0.10155  Biso   1.000  C
  C11      1.0000 0.95642  0.38640  0.39845  Biso   1.000  C
  C12      1.0000 0.45642  0.88640  0.39845  Biso   1.000  C
  C13      1.0000 0.95642  0.61360  0.89845  Biso   1.000  C
  C14      1.0000 0.45642  0.11360  0.89845  Biso   1.000  C
  C15      1.0000 0.04358  0.61360  0.60155  Biso   1.000  C
  C16      1.0000 0.54358  0.11360  0.60155  Biso   1.000  C
  C17      1.0000 0.01623  0.51610  0.09773  Biso   1.000  C
  C18      1.0000 0.51623  0.01610  0.09773  Biso   1.000  C
  C19      1.0000 0.98377  0.51610  0.40227  Biso   1.000  C
  C20      1.0000 0.48377  0.01610  0.40227  Biso   1.000  C
  C21      1.0000 0.98377  0.48390  0.90227  Biso   1.000  C
  C22      1.0000 0.48377  0.98390  0.90227  Biso   1.000  C
  C23      1.0000 0.01623  0.48390  0.59773  Biso   1.000  C
  C24      1.0000 0.51623  0.98390  0.59773  Biso   1.000  C
  H9       1.0000 0.96920  0.53000  0.07010  Biso   1.000  H
  H10      1.0000 0.46920  0.03000  0.07010  Biso   1.000  H
  H11      1.0000 0.03080  0.53000  0.42990  Biso   1.000  H
  H12      1.0000 0.53080  0.03000  0.42990  Biso   1.000  H
  H13      1.0000 0.03080  0.47000  0.92990  Biso   1.000  H
  H14      1.0000 0.53080  0.97000  0.92990  Biso   1.000  H
  H15      1.0000 0.96920  0.47000  0.57010  Biso   1.000  H
  H16      1.0000 0.46920  0.97000  0.57010  Biso   1.000  H
  C25      1.0000 0.06131  0.62380  0.13650  Biso   1.000  C
  C26      1.0000 0.56131  0.12380  0.13650  Biso   1.000  C
  C27      1.0000 0.93869  0.62380  0.36350  Biso   1.000  C
  C28      1.0000 0.43869  0.12380  0.36350  Biso   1.000  C
  C29      1.0000 0.93869  0.37620  0.86350  Biso   1.000  C
  C30      1.0000 0.43869  0.87620  0.86350  Biso   1.000  C
  C31      1.0000 0.06131  0.37620  0.63650  Biso   1.000  C
  C32      1.0000 0.56131  0.87620  0.63650  Biso   1.000  C
  C33      1.0000 0.13050  0.60490  0.17890  Biso   1.000  C
  C34      1.0000 0.63050  0.10490  0.17890  Biso   1.000  C
  C35      1.0000 0.86950  0.60490  0.32110  Biso   1.000  C
  C36      1.0000 0.36950  0.10490  0.32110  Biso   1.000  C
  C37      1.0000 0.86950  0.39510  0.82110  Biso   1.000  C
  C38      1.0000 0.36950  0.89510  0.82110  Biso   1.000  C
  C39      1.0000 0.13050  0.39510  0.67890  Biso   1.000  C
  C40      1.0000 0.63050  0.89510  0.67890  Biso   1.000  C
  H17      1.0000 0.16010  0.68060  0.20480  Biso   1.000  H
  H18      1.0000 0.66010  0.18060  0.20480  Biso   1.000  H
  H19      1.0000 0.83990  0.68060  0.29520  Biso   1.000  H
  H20      1.0000 0.33990  0.18060  0.29520  Biso   1.000  H
  H21      1.0000 0.83990  0.31940  0.79520  Biso   1.000  H
  H22      1.0000 0.33990  0.81940  0.79520  Biso   1.000  H
  H23      1.0000 0.16010  0.31940  0.70480  Biso   1.000  H
  H24      1.0000 0.66010  0.81940  0.70480  Biso   1.000  H
  C41      1.0000 0.15554  0.47180  0.18244  Biso   1.000  C
  C42      1.0000 0.65554  0.97180  0.18244  Biso   1.000  C
  C43      1.0000 0.84446  0.47180  0.31756  Biso   1.000  C
  C44      1.0000 0.34446  0.97180  0.31756  Biso   1.000  C
  C45      1.0000 0.84446  0.52820  0.81756  Biso   1.000  C
  C46      1.0000 0.34446  0.02820  0.81756  Biso   1.000  C
  C47      1.0000 0.15554  0.52820  0.68244  Biso   1.000  C
  C48      1.0000 0.65554  0.02820  0.68244  Biso   1.000  C
  H25      1.0000 0.20260  0.45800  0.21230  Biso   1.000  H
  H26      1.0000 0.70260  0.95800  0.21230  Biso   1.000  H
  H27      1.0000 0.79740  0.45800  0.28770  Biso   1.000  H
  H28      1.0000 0.29740  0.95800  0.28770  Biso   1.000  H
  H29      1.0000 0.79740  0.54200  0.78770  Biso   1.000  H
  H30      1.0000 0.29740  0.04200  0.78770  Biso   1.000  H
  H31      1.0000 0.20260  0.54200  0.71230  Biso   1.000  H
  H32      1.0000 0.70260  0.04200  0.71230  Biso   1.000  H
  C49      1.0000 0.14085  0.20980  0.14548  Biso   1.000  C
  C50      1.0000 0.64085  0.70980  0.14548  Biso   1.000  C
  C51      1.0000 0.85915  0.20980  0.35452  Biso   1.000  C
  C52      1.0000 0.35915  0.70980  0.35452  Biso   1.000  C
  C53      1.0000 0.85915  0.79020  0.85452  Biso   1.000  C
  C54      1.0000 0.35915  0.29020  0.85452  Biso   1.000  C
  C55      1.0000 0.14085  0.79020  0.64548  Biso   1.000  C
  C56      1.0000 0.64085  0.29020  0.64548  Biso   1.000  C
  C57      1.0000 0.11578  0.10070  0.18068  Biso   1.000  C
  C58      1.0000 0.61578  0.60070  0.18068  Biso   1.000  C
  C59      1.0000 0.88422  0.10070  0.31932  Biso   1.000  C
  C60      1.0000 0.38422  0.60070  0.31932  Biso   1.000  C
  C61      1.0000 0.88422  0.89930  0.81932  Biso   1.000  C
  C62      1.0000 0.38422  0.39930  0.81932  Biso   1.000  C
  C63      1.0000 0.11578  0.89930  0.68068  Biso   1.000  C
  C64      1.0000 0.61578  0.39930  0.68068  Biso   1.000  C
  H33      1.0000 0.06710  0.08520  0.14310  Biso   1.000  H
  H34      1.0000 0.56710  0.58520  0.14310  Biso   1.000  H
  H35      1.0000 0.93290  0.08520  0.35690  Biso   1.000  H
  H36      1.0000 0.43290  0.58520  0.35690  Biso   1.000  H
  H37      1.0000 0.93290  0.91480  0.85690  Biso   1.000  H
  H38      1.0000 0.43290  0.41480  0.85690  Biso   1.000  H
  H39      1.0000 0.06710  0.91480  0.64310  Biso   1.000  H
  H40      1.0000 0.56710  0.41480  0.64310  Biso   1.000  H
  H41      1.0000 0.13900  0.01140  0.18840  Biso   1.000  H
  H42      1.0000 0.63900  0.51140  0.18840  Biso   1.000  H
  H43      1.0000 0.86100  0.01140  0.31160  Biso   1.000  H
  H44      1.0000 0.36100  0.51140  0.31160  Biso   1.000  H
  H45      1.0000 0.86100  0.98860  0.81160  Biso   1.000  H
  H46      1.0000 0.36100  0.48860  0.81160  Biso   1.000  H
  H47      1.0000 0.13900  0.98860  0.68840  Biso   1.000  H
  H48      1.0000 0.63900  0.48860  0.68840  Biso   1.000  H
  C65      1.0000 0.18762  0.16070  0.32870  Biso   1.000  C
  C66      1.0000 0.68762  0.66070  0.32870  Biso   1.000  C
  C67      1.0000 0.81238  0.16070  0.17130  Biso   1.000  C
  C68      1.0000 0.31238  0.66070  0.17130  Biso   1.000  C
  C69      1.0000 0.81238  0.83930  0.67130  Biso   1.000  C
  C70      1.0000 0.31238  0.33930  0.67130  Biso   1.000  C
  C71      1.0000 0.18762  0.83930  0.82870  Biso   1.000  C
  C72      1.0000 0.68762  0.33930  0.82870  Biso   1.000  C
  H49      1.0000 0.22990  0.13400  0.33890  Biso   1.000  H
  H50      1.0000 0.72990  0.63400  0.33890  Biso   1.000  H
  H51      1.0000 0.77010  0.13400  0.16110  Biso   1.000  H
  H52      1.0000 0.27010  0.63400  0.16110  Biso   1.000  H
  H53      1.0000 0.77010  0.86600  0.66110  Biso   1.000  H
  H54      1.0000 0.27010  0.36600  0.66110  Biso   1.000  H
  H55      1.0000 0.22990  0.86600  0.83890  Biso   1.000  H
  H56      1.0000 0.72990  0.36600  0.83890  Biso   1.000  H
  C73      1.0000 0.10957  0.23540  0.33970  Biso   1.000  C
  C74      1.0000 0.60957  0.73540  0.33970  Biso   1.000  C
  C75      1.0000 0.89043  0.23540  0.16030  Biso   1.000  C
  C76      1.0000 0.39043  0.73540  0.16030  Biso   1.000  C
  C77      1.0000 0.89043  0.76460  0.66030  Biso   1.000  C
  C78      1.0000 0.39043  0.26460  0.66030  Biso   1.000  C
  C79      1.0000 0.10957  0.76460  0.83970  Biso   1.000  C
  C80      1.0000 0.60957  0.26460  0.83970  Biso   1.000  C
  H57      1.0000 0.08720  0.27300  0.36240  Biso   1.000  H
  H58      1.0000 0.58720  0.77300  0.36240  Biso   1.000  H
  H59      1.0000 0.91280  0.27300  0.13760  Biso   1.000  H
  H60      1.0000 0.41280  0.77300  0.13760  Biso   1.000  H
  H61      1.0000 0.91280  0.72700  0.63760  Biso   1.000  H
  H62      1.0000 0.41280  0.22700  0.63760  Biso   1.000  H
  H63      1.0000 0.08720  0.72700  0.86240  Biso   1.000  H
  H64      1.0000 0.58720  0.22700  0.86240  Biso   1.000  H
  C81      1.0000 0.11819  0.17130  0.05826  Biso   1.000  C
  C82      1.0000 0.61819  0.67130  0.05826  Biso   1.000  C
  C83      1.0000 0.88181  0.17130  0.44174  Biso   1.000  C
  C84      1.0000 0.38181  0.67130  0.44174  Biso   1.000  C
  C85      1.0000 0.88181  0.82870  0.94174  Biso   1.000  C
  C86      1.0000 0.38181  0.32870  0.94174  Biso   1.000  C
  C87      1.0000 0.11819  0.82870  0.55826  Biso   1.000  C
  C88      1.0000 0.61819  0.32870  0.55826  Biso   1.000  C
  H65      1.0000 0.06860  0.17130  0.02400  Biso   1.000  H
  H66      1.0000 0.56860  0.67130  0.02400  Biso   1.000  H
  H67      1.0000 0.93140  0.17130  0.47600  Biso   1.000  H
  H68      1.0000 0.43140  0.67130  0.47600  Biso   1.000  H
  H69      1.0000 0.93140  0.82870  0.97600  Biso   1.000  H
  H70      1.0000 0.43140  0.32870  0.97600  Biso   1.000  H
  H71      1.0000 0.06860  0.82870  0.52400  Biso   1.000  H
  H72      1.0000 0.56860  0.32870  0.52400  Biso   1.000  H
  H73      1.0000 0.13460  0.24360  0.03820  Biso   1.000  H
  H74      1.0000 0.63460  0.74360  0.03820  Biso   1.000  H
  H75      1.0000 0.86540  0.24360  0.46180  Biso   1.000  H
  H76      1.0000 0.36540  0.74360  0.46180  Biso   1.000  H
  H77      1.0000 0.86540  0.75640  0.96180  Biso   1.000  H
  H78      1.0000 0.36540  0.25640  0.96180  Biso   1.000  H
  H79      1.0000 0.13460  0.75640  0.53820  Biso   1.000  H
  H80      1.0000 0.63460  0.25640  0.53820  Biso   1.000  H
  C89      1.0000 0.14453  0.81530  0.04040  Biso   1.000  C
  C90      1.0000 0.64453  0.31530  0.04040  Biso   1.000  C
  C91      1.0000 0.85547  0.81530  0.45960  Biso   1.000  C
  C92      1.0000 0.35547  0.31530  0.45960  Biso   1.000  C
  C93      1.0000 0.85547  0.18470  0.95960  Biso   1.000  C
  C94      1.0000 0.35547  0.68470  0.95960  Biso   1.000  C
  C95      1.0000 0.14453  0.18470  0.54040  Biso   1.000  C
  C96      1.0000 0.64453  0.68470  0.54040  Biso   1.000  C
  H81      1.0000 0.13430  0.71970  0.03810  Biso   1.000  H
  H82      1.0000 0.63430  0.21970  0.03810  Biso   1.000  H
  H83      1.0000 0.86570  0.71970  0.46190  Biso   1.000  H
  H84      1.0000 0.36570  0.21970  0.46190  Biso   1.000  H
  H85      1.0000 0.86570  0.28030  0.96190  Biso   1.000  H
  H86      1.0000 0.36570  0.78030  0.96190  Biso   1.000  H
  H87      1.0000 0.13430  0.28030  0.53810  Biso   1.000  H
  H88      1.0000 0.63430  0.78030  0.53810  Biso   1.000  H
  C97      1.0000 0.19197  0.00210  0.03952  Biso   1.000  C
  C98      1.0000 0.69197  0.50210  0.03952  Biso   1.000  C
  C99      1.0000 0.80803  0.00210  0.46048  Biso   1.000  C
  C100     1.0000 0.30803  0.50210  0.46048  Biso   1.000  C
  C101     1.0000 0.80803  0.99790  0.96048  Biso   1.000  C
  C102     1.0000 0.30803  0.49790  0.96048  Biso   1.000  C
  C103     1.0000 0.19197  0.99790  0.53952  Biso   1.000  C
  C104     1.0000 0.69197  0.49790  0.53952  Biso   1.000  C
  H89      1.0000 0.22020  0.06750  0.03670  Biso   1.000  H
  H90      1.0000 0.72020  0.56750  0.03670  Biso   1.000  H
  H91      1.0000 0.77980  0.06750  0.46330  Biso   1.000  H
  H92      1.0000 0.27980  0.56750  0.46330  Biso   1.000  H
  H93      1.0000 0.77980  0.93250  0.96330  Biso   1.000  H
  H94      1.0000 0.27980  0.43250  0.96330  Biso   1.000  H
  H95      1.0000 0.22020  0.93250  0.53670  Biso   1.000  H
  H96      1.0000 0.72020  0.43250  0.53670  Biso   1.000  H
  O9       1.0000 0.27952  0.33220  0.14117  Biso   1.000  O
  O10      1.0000 0.77952  0.83220  0.14117  Biso   1.000  O
  O11      1.0000 0.72048  0.33220  0.35883  Biso   1.000  O
  O12      1.0000 0.22048  0.83220  0.35883  Biso   1.000  O
  O13      1.0000 0.72048  0.66780  0.85883  Biso   1.000  O
  O14      1.0000 0.22048  0.16780  0.85883  Biso   1.000  O
  O15      1.0000 0.27952  0.66780  0.64117  Biso   1.000  O
  O16      1.0000 0.77952  0.16780  0.64117  Biso   1.000  O
  O17      1.0000 0.37250  0.25780  0.12180  Biso   1.000  O
  O18      1.0000 0.87250  0.75780  0.12180  Biso   1.000  O
  O19      1.0000 0.62750  0.25780  0.37820  Biso   1.000  O
  O20      1.0000 0.12750  0.75780  0.37820  Biso   1.000  O
  O21      1.0000 0.62750  0.74220  0.87820  Biso   1.000  O
  O22      1.0000 0.12750  0.24220  0.87820  Biso   1.000  O
  O23      1.0000 0.37250  0.74220  0.62180  Biso   1.000  O
  O24      1.0000 0.87250  0.24220  0.62180  Biso   1.000  O
  O25      1.0000 0.42970  0.29000  0.17180  Biso   1.000  O
  O26      1.0000 0.92970  0.79000  0.17180  Biso   1.000  O
  O27      1.0000 0.57030  0.29000  0.32820  Biso   1.000  O
  O28      1.0000 0.07030  0.79000  0.32820  Biso   1.000  O
  O29      1.0000 0.57030  0.71000  0.82820  Biso   1.000  O
  O30      1.0000 0.07030  0.21000  0.82820  Biso   1.000  O
  O31      1.0000 0.42970  0.71000  0.67180  Biso   1.000  O
  O32      1.0000 0.92970  0.21000  0.67180  Biso   1.000  O
  O33      1.0000 0.34730  0.29890  0.14930  Biso   1.000  O
  O34      1.0000 0.84730  0.79890  0.14930  Biso   1.000  O
  O35      1.0000 0.65270  0.29890  0.35070  Biso   1.000  O
  O36      1.0000 0.15270  0.79890  0.35070  Biso   1.000  O
  O37      1.0000 0.65270  0.70110  0.85070  Biso   1.000  O
  O38      1.0000 0.15270  0.20110  0.85070  Biso   1.000  O
  O39      1.0000 0.34730  0.70110  0.64930  Biso   1.000  O
  O40      1.0000 0.84730  0.20110  0.64930  Biso   1.000  O
