data_image0
_cell_length_a       10.294
_cell_length_b       11.974
_cell_length_c       12.262
_cell_angle_alpha    97.93
_cell_angle_beta     91.71
_cell_angle_gamma    111.36

_symmetry_space_group_name_H-M    "P 1"
_symmetry_int_tables_number       1

loop_
  _symmetry_equiv_pos_as_xyz
  'x, y, z'

loop_
  _atom_site_label
  _atom_site_occupancy
  _atom_site_fract_x
  _atom_site_fract_y
  _atom_site_fract_z
  _atom_site_thermal_displace_type
  _atom_site_B_iso_or_equiv
  _atom_site_type_symbol
  Cu1      1.0000 0.67170  0.29927  0.06264  Biso   1.000  Cu
  Cu2      1.0000 0.32830  0.70073  0.93736  Biso   1.000  Cu
  Cu3      1.0000 0.77846  0.75888  0.03286  Biso   1.000  Cu
  Cu4      1.0000 0.22154  0.24112  0.96714  Biso   1.000  Cu
  Cl1      1.0000 0.77000  0.70098  0.66409  Biso   1.000  Cl
  Cl2      1.0000 0.23000  0.29902  0.33591  Biso   1.000  Cl
  Cl3      1.0000 0.66520  0.53701  0.43679  Biso   1.000  Cl
  Cl4      1.0000 0.33480  0.46299  0.56321  Biso   1.000  Cl
  Cl5      1.0000 0.55616  0.25480  0.41957  Biso   1.000  Cl
  Cl6      1.0000 0.44384  0.74520  0.58043  Biso   1.000  Cl
  Cl7      1.0000 0.57697  0.14022  0.62716  Biso   1.000  Cl
  Cl8      1.0000 0.42303  0.85978  0.37284  Biso   1.000  Cl
  Cl9      1.0000 0.76235  0.83676  0.40390  Biso   1.000  Cl
  Cl10     1.0000 0.23765  0.16324  0.59610  Biso   1.000  Cl
  Cl11     1.0000 0.86463  0.02348  0.62181  Biso   1.000  Cl
  Cl12     1.0000 0.13537  0.97652  0.37819  Biso   1.000  Cl
  Cl13     1.0000 0.96301  0.30064  0.61175  Biso   1.000  Cl
  Cl14     1.0000 0.03699  0.69936  0.38825  Biso   1.000  Cl
  Cl15     1.0000 0.93290  0.38744  0.38887  Biso   1.000  Cl
  Cl16     1.0000 0.06710  0.61256  0.61113  Biso   1.000  Cl
  O1       1.0000 0.57190  0.42480  0.16990  Biso   1.000  O
  O2       1.0000 0.42810  0.57520  0.83010  Biso   1.000  O
  H1       1.0000 0.59950  0.43220  0.23750  Biso   1.000  H
  H2       1.0000 0.40050  0.56780  0.76250  Biso   1.000  H
  H3       1.0000 0.48340  0.38820  0.16320  Biso   1.000  H
  H4       1.0000 0.51660  0.61180  0.83680  Biso   1.000  H
  O3       1.0000 0.76460  0.25530  0.85050  Biso   1.000  O
  O4       1.0000 0.23540  0.74470  0.14950  Biso   1.000  O
  O5       1.0000 0.63070  0.34820  0.92460  Biso   1.000  O
  O6       1.0000 0.36930  0.65180  0.07540  Biso   1.000  O
  O7       1.0000 0.48150  0.17740  0.04250  Biso   1.000  O
  O8       1.0000 0.51850  0.82260  0.95750  Biso   1.000  O
  H5       1.0000 0.42810  0.21050  0.07200  Biso   1.000  H
  H6       1.0000 0.57190  0.78950  0.92800  Biso   1.000  H
  H7       1.0000 0.48000  0.12120  0.07850  Biso   1.000  H
  H8       1.0000 0.52000  0.87880  0.92150  Biso   1.000  H
  O9       1.0000 0.85230  0.43690  0.08970  Biso   1.000  O
  O10      1.0000 0.14770  0.56310  0.91030  Biso   1.000  O
  H9       1.0000 0.91870  0.41130  0.09600  Biso   1.000  H
  H10      1.0000 0.08130  0.58870  0.90400  Biso   1.000  H
  H11      1.0000 0.85350  0.48260  0.14960  Biso   1.000  H
  H12      1.0000 0.14650  0.51740  0.85040  Biso   1.000  H
  O11      1.0000 0.88840  0.57530  0.90290  Biso   1.000  O
  O12      1.0000 0.11160  0.42470  0.09710  Biso   1.000  O
  O13      1.0000 0.70930  0.63540  0.90130  Biso   1.000  O
  O14      1.0000 0.29070  0.36460  0.09870  Biso   1.000  O
  O15      1.0000 0.62500  0.92190  0.15510  Biso   1.000  O
  O16      1.0000 0.37500  0.07810  0.84490  Biso   1.000  O
  O17      1.0000 0.90410  0.87090  0.94250  Biso   1.000  O
  O18      1.0000 0.09590  0.12910  0.05750  Biso   1.000  O
  H13      1.0000 0.95730  0.84340  0.91320  Biso   1.000  H
  H14      1.0000 0.04270  0.15660  0.08680  Biso   1.000  H
  H15      1.0000 0.92410  0.91940  0.97270  Biso   1.000  H
  H16      1.0000 0.07590  0.08060  0.02730  Biso   1.000  H
  O19      1.0000 0.82660  0.89270  0.15450  Biso   1.000  O
  O20      1.0000 0.17340  0.10730  0.84550  Biso   1.000  O
  O21      1.0000 0.94410  0.71280  0.12590  Biso   1.000  O
  O22      1.0000 0.05590  0.28720  0.87410  Biso   1.000  O
  H17      1.0000 0.98500  0.68030  0.07960  Biso   1.000  H
  H18      1.0000 0.01500  0.31970  0.92040  Biso   1.000  H
  H19      1.0000 0.00380  0.77750  0.16270  Biso   1.000  H
  H20      1.0000 0.99620  0.22250  0.83730  Biso   1.000  H
  O23      1.0000 0.63350  0.65690  0.11660  Biso   1.000  O
  O24      1.0000 0.36650  0.34310  0.88340  Biso   1.000  O
  H21      1.0000 0.56440  0.65120  0.10530  Biso   1.000  H
  H22      1.0000 0.43560  0.34880  0.89470  Biso   1.000  H
  H23      1.0000 0.62370  0.58410  0.13760  Biso   1.000  H
  H24      1.0000 0.37630  0.41590  0.86240  Biso   1.000  H
  O25      1.0000 0.86840  0.17530  0.11020  Biso   1.000  O
  O26      1.0000 0.13160  0.82470  0.88980  Biso   1.000  O
  O27      1.0000 0.71290  0.23790  0.19070  Biso   1.000  O
  O28      1.0000 0.28710  0.76210  0.80930  Biso   1.000  O
  C1       1.0000 0.71480  0.54580  0.65530  Biso   1.000  C
  C2       1.0000 0.28520  0.45420  0.34470  Biso   1.000  C
  C3       1.0000 0.66770  0.47280  0.55290  Biso   1.000  C
  C4       1.0000 0.33230  0.52720  0.44710  Biso   1.000  C
  C5       1.0000 0.62130  0.34620  0.54470  Biso   1.000  C
  C6       1.0000 0.37870  0.65380  0.45530  Biso   1.000  C
  C7       1.0000 0.63060  0.29570  0.63940  Biso   1.000  C
  C8       1.0000 0.36940  0.70430  0.36060  Biso   1.000  C
  C9       1.0000 0.68100  0.36970  0.74130  Biso   1.000  C
  C10      1.0000 0.31900  0.63030  0.25870  Biso   1.000  C
  C11      1.0000 0.72090  0.49440  0.74960  Biso   1.000  C
  C12      1.0000 0.27910  0.50560  0.25040  Biso   1.000  C
  C13      1.0000 0.69540  0.31770  0.84470  Biso   1.000  C
  C14      1.0000 0.30460  0.68230  0.15530  Biso   1.000  C
  C15      1.0000 0.77950  0.57480  0.85970  Biso   1.000  C
  C16      1.0000 0.22050  0.42520  0.14030  Biso   1.000  C
  C17      1.0000 0.80890  0.99010  0.40020  Biso   1.000  C
  C18      1.0000 0.19110  0.00990  0.59980  Biso   1.000  C
  C19      1.0000 0.85740  0.07270  0.49700  Biso   1.000  C
  C20      1.0000 0.14260  0.92730  0.50300  Biso   1.000  C
  C21      1.0000 0.89710  0.19640  0.49340  Biso   1.000  C
  C22      1.0000 0.10290  0.80360  0.50660  Biso   1.000  C
  C23      1.0000 0.88280  0.23510  0.39410  Biso   1.000  C
  C24      1.0000 0.11720  0.76490  0.60590  Biso   1.000  C
  C25      1.0000 0.83010  0.15210  0.29720  Biso   1.000  C
  C26      1.0000 0.16990  0.84790  0.70280  Biso   1.000  C
  C27      1.0000 0.79710  0.02850  0.29990  Biso   1.000  C
  C28      1.0000 0.20290  0.97150  0.70010  Biso   1.000  C
  C29      1.0000 0.74320  0.93930  0.19450  Biso   1.000  C
  C30      1.0000 0.25680  0.06070  0.80550  Biso   1.000  C
  C31      1.0000 0.80440  0.19200  0.19000  Biso   1.000  C
  C32      1.0000 0.19560  0.80800  0.81000  Biso   1.000  C
  O29      1.0000 0.42490  0.03220  0.19210  Biso   1.000  O
  O30      1.0000 0.57510  0.96780  0.80790  Biso   1.000  O
  H25      1.0000 0.34180  0.98000  0.18030  Biso   1.000  H
  H26      1.0000 0.65820  0.02000  0.81970  Biso   1.000  H
  H27      1.0000 0.43690  0.07150  0.25720  Biso   1.000  H
  H28      1.0000 0.56310  0.92850  0.74280  Biso   1.000  H
  O31      1.0000 0.81130  0.03120  0.89160  Biso   1.000  O
  O32      1.0000 0.18870  0.96880  0.10840  Biso   1.000  O
  H29      1.0000 0.86600  0.07050  0.84770  Biso   1.000  H
  H30      1.0000 0.13400  0.92950  0.15230  Biso   1.000  H
  H31      1.0000 0.81850  0.08100  0.95010  Biso   1.000  H
  H32      1.0000 0.18150  0.91900  0.04990  Biso   1.000  H
