data_image0
_cell_length_a       13.532
_cell_length_b       15.185
_cell_length_c       26.133
_cell_angle_alpha    90
_cell_angle_beta     90
_cell_angle_gamma    90

_symmetry_space_group_name_H-M    "P 1"
_symmetry_int_tables_number       1

loop_
  _symmetry_equiv_pos_as_xyz
  'x, y, z'

loop_
  _atom_site_label
  _atom_site_occupancy
  _atom_site_fract_x
  _atom_site_fract_y
  _atom_site_fract_z
  _atom_site_thermal_displace_type
  _atom_site_B_iso_or_equiv
  _atom_site_type_symbol
  Cu1      1.0000 0.30811  0.75943  0.42683  Biso   1.000  Cu
  Cu2      1.0000 0.19189  0.24057  0.92683  Biso   1.000  Cu
  Cu3      1.0000 0.69189  0.25943  0.07317  Biso   1.000  Cu
  Cu4      1.0000 0.80811  0.74057  0.57317  Biso   1.000  Cu
  Cu5      1.0000 0.69189  0.24057  0.57317  Biso   1.000  Cu
  Cu6      1.0000 0.80811  0.75943  0.07317  Biso   1.000  Cu
  Cu7      1.0000 0.30811  0.74057  0.92683  Biso   1.000  Cu
  Cu8      1.0000 0.19189  0.25943  0.42683  Biso   1.000  Cu
  Cu9      1.0000 0.42499  0.02294  0.68329  Biso   1.000  Cu
  Cu10     1.0000 0.07501  0.97706  0.18329  Biso   1.000  Cu
  Cu11     1.0000 0.57501  0.52294  0.81671  Biso   1.000  Cu
  Cu12     1.0000 0.92499  0.47706  0.31671  Biso   1.000  Cu
  Cu13     1.0000 0.57501  0.97706  0.31671  Biso   1.000  Cu
  Cu14     1.0000 0.92499  0.02294  0.81671  Biso   1.000  Cu
  Cu15     1.0000 0.42499  0.47706  0.18329  Biso   1.000  Cu
  Cu16     1.0000 0.07501  0.52294  0.68329  Biso   1.000  Cu
  O1       1.0000 0.32650  0.63460  0.41558  Biso   1.000  O
  O2       1.0000 0.17350  0.36540  0.91558  Biso   1.000  O
  O3       1.0000 0.67350  0.13460  0.08442  Biso   1.000  O
  O4       1.0000 0.82650  0.86540  0.58442  Biso   1.000  O
  O5       1.0000 0.67350  0.36540  0.58442  Biso   1.000  O
  O6       1.0000 0.82650  0.63460  0.08442  Biso   1.000  O
  O7       1.0000 0.32650  0.86540  0.91558  Biso   1.000  O
  O8       1.0000 0.17350  0.13460  0.41558  Biso   1.000  O
  O9       1.0000 0.33590  0.53329  0.35474  Biso   1.000  O
  O10      1.0000 0.16410  0.46671  0.85474  Biso   1.000  O
  O11      1.0000 0.66410  0.03329  0.14526  Biso   1.000  O
  O12      1.0000 0.83590  0.96671  0.64526  Biso   1.000  O
  O13      1.0000 0.66410  0.46671  0.64526  Biso   1.000  O
  O14      1.0000 0.83590  0.53329  0.14526  Biso   1.000  O
  O15      1.0000 0.33590  0.96671  0.85474  Biso   1.000  O
  O16      1.0000 0.16410  0.03329  0.35474  Biso   1.000  O
  O17      1.0000 0.39400  0.56871  0.23297  Biso   1.000  O
  O18      1.0000 0.10600  0.43129  0.73297  Biso   1.000  O
  O19      1.0000 0.60600  0.06871  0.26703  Biso   1.000  O
  O20      1.0000 0.89400  0.93129  0.76703  Biso   1.000  O
  O21      1.0000 0.60600  0.43129  0.76703  Biso   1.000  O
  O22      1.0000 0.89400  0.56871  0.26703  Biso   1.000  O
  O23      1.0000 0.39400  0.93129  0.73297  Biso   1.000  O
  O24      1.0000 0.10600  0.06871  0.23297  Biso   1.000  O
  O25      1.0000 0.23510  0.53550  0.24646  Biso   1.000  O
  O26      1.0000 0.26490  0.46450  0.74646  Biso   1.000  O
  O27      1.0000 0.76490  0.03550  0.25354  Biso   1.000  O
  O28      1.0000 0.73510  0.96450  0.75354  Biso   1.000  O
  O29      1.0000 0.76490  0.46450  0.75354  Biso   1.000  O
  O30      1.0000 0.73510  0.53550  0.25354  Biso   1.000  O
  O31      1.0000 0.23510  0.96450  0.74646  Biso   1.000  O
  O32      1.0000 0.26490  0.03550  0.24646  Biso   1.000  O
  O33      1.0000 0.32890  0.88426  0.43931  Biso   1.000  O
  O34      1.0000 0.17110  0.11574  0.93931  Biso   1.000  O
  O35      1.0000 0.67110  0.38426  0.06069  Biso   1.000  O
  O36      1.0000 0.82890  0.61574  0.56069  Biso   1.000  O
  O37      1.0000 0.67110  0.11574  0.56069  Biso   1.000  O
  O38      1.0000 0.82890  0.88426  0.06069  Biso   1.000  O
  O39      1.0000 0.32890  0.61574  0.93931  Biso   1.000  O
  O40      1.0000 0.17110  0.38426  0.43931  Biso   1.000  O
  O41      1.0000 0.35500  0.98040  0.50232  Biso   1.000  O
  O42      1.0000 0.14500  0.01960  0.00232  Biso   1.000  O
  O43      1.0000 0.64500  0.48040  0.99768  Biso   1.000  O
  O44      1.0000 0.85500  0.51960  0.49768  Biso   1.000  O
  O45      1.0000 0.64500  0.01960  0.49768  Biso   1.000  O
  O46      1.0000 0.85500  0.98040  0.99768  Biso   1.000  O
  O47      1.0000 0.35500  0.51960  0.00232  Biso   1.000  O
  O48      1.0000 0.14500  0.48040  0.50232  Biso   1.000  O
  O49      1.0000 0.40870  0.93870  0.62758  Biso   1.000  O
  O50      1.0000 0.09130  0.06130  0.12758  Biso   1.000  O
  O51      1.0000 0.59130  0.43870  0.87242  Biso   1.000  O
  O52      1.0000 0.90870  0.56130  0.37242  Biso   1.000  O
  O53      1.0000 0.59130  0.06130  0.37242  Biso   1.000  O
  O54      1.0000 0.90870  0.93870  0.87242  Biso   1.000  O
  O55      1.0000 0.40870  0.56130  0.12758  Biso   1.000  O
  O56      1.0000 0.09130  0.43870  0.62758  Biso   1.000  O
  O57      1.0000 0.25090  0.96630  0.61007  Biso   1.000  O
  O58      1.0000 0.24910  0.03370  0.11007  Biso   1.000  O
  O59      1.0000 0.74910  0.46630  0.88993  Biso   1.000  O
  O60      1.0000 0.75090  0.53370  0.38993  Biso   1.000  O
  O61      1.0000 0.74910  0.03370  0.38993  Biso   1.000  O
  O62      1.0000 0.75090  0.96630  0.88993  Biso   1.000  O
  O63      1.0000 0.25090  0.53370  0.11007  Biso   1.000  O
  O64      1.0000 0.24910  0.46630  0.61007  Biso   1.000  O
  O65      1.0000 0.14650  0.76510  0.43728  Biso   1.000  O
  O66      1.0000 0.35350  0.23490  0.93728  Biso   1.000  O
  O67      1.0000 0.85350  0.26510  0.06272  Biso   1.000  O
  O68      1.0000 0.64650  0.73490  0.56272  Biso   1.000  O
  O69      1.0000 0.85350  0.23490  0.56272  Biso   1.000  O
  O70      1.0000 0.64650  0.76510  0.06272  Biso   1.000  O
  O71      1.0000 0.14650  0.73490  0.93728  Biso   1.000  O
  O72      1.0000 0.35350  0.26510  0.43728  Biso   1.000  O
  H1       1.0000 0.11450  0.72220  0.42940  Biso   1.000  H
  H2       1.0000 0.38550  0.27780  0.92940  Biso   1.000  H
  H3       1.0000 0.88550  0.22220  0.07060  Biso   1.000  H
  H4       1.0000 0.61450  0.77780  0.57060  Biso   1.000  H
  H5       1.0000 0.88550  0.27780  0.57060  Biso   1.000  H
  H6       1.0000 0.61450  0.72220  0.07060  Biso   1.000  H
  H7       1.0000 0.11450  0.77780  0.92940  Biso   1.000  H
  H8       1.0000 0.38550  0.22220  0.42940  Biso   1.000  H
  H9       1.0000 0.14000  0.80820  0.41450  Biso   1.000  H
  H10      1.0000 0.36000  0.19180  0.91450  Biso   1.000  H
  H11      1.0000 0.86000  0.30820  0.08550  Biso   1.000  H
  H12      1.0000 0.64000  0.69180  0.58550  Biso   1.000  H
  H13      1.0000 0.86000  0.19180  0.58550  Biso   1.000  H
  H14      1.0000 0.64000  0.80820  0.08550  Biso   1.000  H
  H15      1.0000 0.14000  0.69180  0.91450  Biso   1.000  H
  H16      1.0000 0.36000  0.30820  0.41450  Biso   1.000  H
  O73      1.0000 0.58780  0.98190  0.68186  Biso   1.000  O
  O74      1.0000 0.91220  0.01810  0.18186  Biso   1.000  O
  O75      1.0000 0.41220  0.48190  0.81814  Biso   1.000  O
  O76      1.0000 0.08780  0.51810  0.31814  Biso   1.000  O
  O77      1.0000 0.41220  0.01810  0.31814  Biso   1.000  O
  O78      1.0000 0.08780  0.98190  0.81814  Biso   1.000  O
  O79      1.0000 0.58780  0.51810  0.18186  Biso   1.000  O
  O80      1.0000 0.91220  0.48190  0.68186  Biso   1.000  O
  H17      1.0000 0.60710  0.96930  0.65870  Biso   1.000  H
  H18      1.0000 0.89290  0.03070  0.15870  Biso   1.000  H
  H19      1.0000 0.39290  0.46930  0.84130  Biso   1.000  H
  H20      1.0000 0.10710  0.53070  0.34130  Biso   1.000  H
  H21      1.0000 0.39290  0.03070  0.34130  Biso   1.000  H
  H22      1.0000 0.10710  0.96930  0.84130  Biso   1.000  H
  H23      1.0000 0.60710  0.53070  0.15870  Biso   1.000  H
  H24      1.0000 0.89290  0.46930  0.65870  Biso   1.000  H
  H25      1.0000 0.63150  0.97200  0.70250  Biso   1.000  H
  H26      1.0000 0.86850  0.02800  0.20250  Biso   1.000  H
  H27      1.0000 0.36850  0.47200  0.79750  Biso   1.000  H
  H28      1.0000 0.13150  0.52800  0.29750  Biso   1.000  H
  H29      1.0000 0.36850  0.02800  0.29750  Biso   1.000  H
  H30      1.0000 0.13150  0.97200  0.79750  Biso   1.000  H
  H31      1.0000 0.63150  0.52800  0.20250  Biso   1.000  H
  H32      1.0000 0.86850  0.47200  0.70250  Biso   1.000  H
  N1       1.0000 0.30300  0.76280  0.35099  Biso   1.000  N
  N2       1.0000 0.19700  0.23720  0.85099  Biso   1.000  N
  N3       1.0000 0.69700  0.26280  0.14901  Biso   1.000  N
  N4       1.0000 0.80300  0.73720  0.64901  Biso   1.000  N
  N5       1.0000 0.69700  0.23720  0.64901  Biso   1.000  N
  N6       1.0000 0.80300  0.76280  0.14901  Biso   1.000  N
  N7       1.0000 0.30300  0.73720  0.85099  Biso   1.000  N
  N8       1.0000 0.19700  0.26280  0.35099  Biso   1.000  N
  N9       1.0000 0.28690  0.73970  0.24674  Biso   1.000  N
  N10      1.0000 0.21310  0.26030  0.74674  Biso   1.000  N
  N11      1.0000 0.71310  0.23970  0.25326  Biso   1.000  N
  N12      1.0000 0.78690  0.76030  0.75326  Biso   1.000  N
  N13      1.0000 0.71310  0.26030  0.75326  Biso   1.000  N
  N14      1.0000 0.78690  0.73970  0.25326  Biso   1.000  N
  N15      1.0000 0.28690  0.76030  0.74674  Biso   1.000  N
  N16      1.0000 0.21310  0.23970  0.24674  Biso   1.000  N
  N17      1.0000 0.32370  0.75060  0.50141  Biso   1.000  N
  N18      1.0000 0.17630  0.24940  0.00141  Biso   1.000  N
  N19      1.0000 0.67630  0.25060  0.99859  Biso   1.000  N
  N20      1.0000 0.82370  0.74940  0.49859  Biso   1.000  N
  N21      1.0000 0.67630  0.24940  0.49859  Biso   1.000  N
  N22      1.0000 0.82370  0.75060  0.99859  Biso   1.000  N
  N23      1.0000 0.32370  0.74940  0.00141  Biso   1.000  N
  N24      1.0000 0.17630  0.25060  0.50141  Biso   1.000  N
  N25      1.0000 0.32110  0.76490  0.60640  Biso   1.000  N
  N26      1.0000 0.17890  0.23510  0.10640  Biso   1.000  N
  N27      1.0000 0.67890  0.26490  0.89360  Biso   1.000  N
  N28      1.0000 0.82110  0.73510  0.39360  Biso   1.000  N
  N29      1.0000 0.67890  0.23510  0.39360  Biso   1.000  N
  N30      1.0000 0.82110  0.76490  0.89360  Biso   1.000  N
  N31      1.0000 0.32110  0.73510  0.10640  Biso   1.000  N
  N32      1.0000 0.17890  0.26490  0.60640  Biso   1.000  N
  N33      1.0000 0.44530  0.11610  0.73552  Biso   1.000  N
  N34      1.0000 0.05470  0.88390  0.23552  Biso   1.000  N
  N35      1.0000 0.55470  0.61610  0.76448  Biso   1.000  N
  N36      1.0000 0.94530  0.38390  0.26448  Biso   1.000  N
  N37      1.0000 0.55470  0.88390  0.26448  Biso   1.000  N
  N38      1.0000 0.94530  0.11610  0.76448  Biso   1.000  N
  N39      1.0000 0.44530  0.38390  0.23552  Biso   1.000  N
  N40      1.0000 0.05470  0.61610  0.73552  Biso   1.000  N
  N41      1.0000 0.43220  0.12730  0.63706  Biso   1.000  N
  N42      1.0000 0.06780  0.87270  0.13706  Biso   1.000  N
  N43      1.0000 0.56780  0.62730  0.86294  Biso   1.000  N
  N44      1.0000 0.93220  0.37270  0.36294  Biso   1.000  N
  N45      1.0000 0.56780  0.87270  0.36294  Biso   1.000  N
  N46      1.0000 0.93220  0.12730  0.86294  Biso   1.000  N
  N47      1.0000 0.43220  0.37270  0.13706  Biso   1.000  N
  N48      1.0000 0.06780  0.62730  0.63706  Biso   1.000  N
  C1       1.0000 0.30890  0.68110  0.33064  Biso   1.000  C
  C2       1.0000 0.19110  0.31890  0.83064  Biso   1.000  C
  C3       1.0000 0.69110  0.18110  0.16936  Biso   1.000  C
  C4       1.0000 0.80890  0.81890  0.66936  Biso   1.000  C
  C5       1.0000 0.69110  0.31890  0.66936  Biso   1.000  C
  C6       1.0000 0.80890  0.68110  0.16936  Biso   1.000  C
  C7       1.0000 0.30890  0.81890  0.83064  Biso   1.000  C
  C8       1.0000 0.19110  0.18110  0.33064  Biso   1.000  C
  C9       1.0000 0.30080  0.67030  0.27813  Biso   1.000  C
  C10      1.0000 0.19920  0.32970  0.77813  Biso   1.000  C
  C11      1.0000 0.69920  0.17030  0.22187  Biso   1.000  C
  C12      1.0000 0.80080  0.82970  0.72187  Biso   1.000  C
  C13      1.0000 0.69920  0.32970  0.72187  Biso   1.000  C
  C14      1.0000 0.80080  0.67030  0.22187  Biso   1.000  C
  C15      1.0000 0.30080  0.82970  0.77813  Biso   1.000  C
  C16      1.0000 0.19920  0.17030  0.27813  Biso   1.000  C
  C17      1.0000 0.28240  0.81930  0.26823  Biso   1.000  C
  C18      1.0000 0.21760  0.18070  0.76823  Biso   1.000  C
  C19      1.0000 0.71760  0.31930  0.23177  Biso   1.000  C
  C20      1.0000 0.78240  0.68070  0.73177  Biso   1.000  C
  C21      1.0000 0.71760  0.18070  0.73177  Biso   1.000  C
  C22      1.0000 0.78240  0.81930  0.23177  Biso   1.000  C
  C23      1.0000 0.28240  0.68070  0.76823  Biso   1.000  C
  C24      1.0000 0.21760  0.31930  0.26823  Biso   1.000  C
  H33      1.0000 0.27430  0.86840  0.24740  Biso   1.000  H
  H34      1.0000 0.22570  0.13160  0.74740  Biso   1.000  H
  H35      1.0000 0.72570  0.36840  0.25260  Biso   1.000  H
  H36      1.0000 0.77430  0.63160  0.75260  Biso   1.000  H
  H37      1.0000 0.72570  0.13160  0.75260  Biso   1.000  H
  H38      1.0000 0.77430  0.86840  0.25260  Biso   1.000  H
  H39      1.0000 0.27430  0.63160  0.74740  Biso   1.000  H
  H40      1.0000 0.22570  0.36840  0.24740  Biso   1.000  H
  C25      1.0000 0.28950  0.83100  0.32007  Biso   1.000  C
  C26      1.0000 0.21050  0.16900  0.82007  Biso   1.000  C
  C27      1.0000 0.71050  0.33100  0.17993  Biso   1.000  C
  C28      1.0000 0.78950  0.66900  0.67993  Biso   1.000  C
  C29      1.0000 0.71050  0.16900  0.67993  Biso   1.000  C
  C30      1.0000 0.78950  0.83100  0.17993  Biso   1.000  C
  C31      1.0000 0.28950  0.66900  0.82007  Biso   1.000  C
  C32      1.0000 0.21050  0.33100  0.32007  Biso   1.000  C
  H41      1.0000 0.28480  0.88740  0.33370  Biso   1.000  H
  H42      1.0000 0.21520  0.11260  0.83370  Biso   1.000  H
  H43      1.0000 0.71520  0.38740  0.16630  Biso   1.000  H
  H44      1.0000 0.78480  0.61260  0.66630  Biso   1.000  H
  H45      1.0000 0.71520  0.11260  0.66630  Biso   1.000  H
  H46      1.0000 0.78480  0.88740  0.16630  Biso   1.000  H
  H47      1.0000 0.28480  0.61260  0.83370  Biso   1.000  H
  H48      1.0000 0.21520  0.38740  0.33370  Biso   1.000  H
  C33      1.0000 0.32530  0.60910  0.36934  Biso   1.000  C
  C34      1.0000 0.17470  0.39090  0.86934  Biso   1.000  C
  C35      1.0000 0.67470  0.10910  0.13066  Biso   1.000  C
  C36      1.0000 0.82530  0.89090  0.63066  Biso   1.000  C
  C37      1.0000 0.67470  0.39090  0.63066  Biso   1.000  C
  C38      1.0000 0.82530  0.60910  0.13066  Biso   1.000  C
  C39      1.0000 0.32530  0.89090  0.86934  Biso   1.000  C
  C40      1.0000 0.17470  0.10910  0.36934  Biso   1.000  C
  C41      1.0000 0.30920  0.58160  0.25051  Biso   1.000  C
  C42      1.0000 0.19080  0.41840  0.75051  Biso   1.000  C
  C43      1.0000 0.69080  0.08160  0.24949  Biso   1.000  C
  C44      1.0000 0.80920  0.91840  0.74949  Biso   1.000  C
  C45      1.0000 0.69080  0.41840  0.74949  Biso   1.000  C
  C46      1.0000 0.80920  0.58160  0.24949  Biso   1.000  C
  C47      1.0000 0.30920  0.91840  0.75051  Biso   1.000  C
  C48      1.0000 0.19080  0.08160  0.25051  Biso   1.000  C
  C49      1.0000 0.32830  0.83120  0.52361  Biso   1.000  C
  C50      1.0000 0.17170  0.16880  0.02361  Biso   1.000  C
  C51      1.0000 0.67170  0.33120  0.97639  Biso   1.000  C
  C52      1.0000 0.82830  0.66880  0.47639  Biso   1.000  C
  C53      1.0000 0.67170  0.16880  0.47639  Biso   1.000  C
  C54      1.0000 0.82830  0.83120  0.97639  Biso   1.000  C
  C55      1.0000 0.32830  0.66880  0.02361  Biso   1.000  C
  C56      1.0000 0.17170  0.33120  0.52361  Biso   1.000  C
  C57      1.0000 0.32590  0.83690  0.57653  Biso   1.000  C
  C58      1.0000 0.17410  0.16310  0.07653  Biso   1.000  C
  C59      1.0000 0.67410  0.33690  0.92347  Biso   1.000  C
  C60      1.0000 0.82590  0.66310  0.42347  Biso   1.000  C
  C61      1.0000 0.67410  0.16310  0.42347  Biso   1.000  C
  C62      1.0000 0.82590  0.83690  0.92347  Biso   1.000  C
  C63      1.0000 0.32590  0.66310  0.07653  Biso   1.000  C
  C64      1.0000 0.17410  0.33690  0.57653  Biso   1.000  C
  C65      1.0000 0.31720  0.68760  0.58303  Biso   1.000  C
  C66      1.0000 0.18280  0.31240  0.08303  Biso   1.000  C
  C67      1.0000 0.68280  0.18760  0.91697  Biso   1.000  C
  C68      1.0000 0.81720  0.81240  0.41697  Biso   1.000  C
  C69      1.0000 0.68280  0.31240  0.41697  Biso   1.000  C
  C70      1.0000 0.81720  0.68760  0.91697  Biso   1.000  C
  C71      1.0000 0.31720  0.81240  0.08303  Biso   1.000  C
  C72      1.0000 0.18280  0.18760  0.58303  Biso   1.000  C
  H49      1.0000 0.31500  0.63680  0.60290  Biso   1.000  H
  H50      1.0000 0.18500  0.36320  0.10290  Biso   1.000  H
  H51      1.0000 0.68500  0.13680  0.89710  Biso   1.000  H
  H52      1.0000 0.81500  0.86320  0.39710  Biso   1.000  H
  H53      1.0000 0.68500  0.36320  0.39710  Biso   1.000  H
  H54      1.0000 0.81500  0.63680  0.89710  Biso   1.000  H
  H55      1.0000 0.31500  0.86320  0.10290  Biso   1.000  H
  H56      1.0000 0.18500  0.13680  0.60290  Biso   1.000  H
  C73      1.0000 0.31630  0.67920  0.53074  Biso   1.000  C
  C74      1.0000 0.18370  0.32080  0.03074  Biso   1.000  C
  C75      1.0000 0.68370  0.17920  0.96926  Biso   1.000  C
  C76      1.0000 0.81630  0.82080  0.46926  Biso   1.000  C
  C77      1.0000 0.68370  0.32080  0.46926  Biso   1.000  C
  C78      1.0000 0.81630  0.67920  0.96926  Biso   1.000  C
  C79      1.0000 0.31630  0.82080  0.03074  Biso   1.000  C
  C80      1.0000 0.18370  0.17920  0.53074  Biso   1.000  C
  H57      1.0000 0.31060  0.62380  0.51580  Biso   1.000  H
  H58      1.0000 0.18940  0.37620  0.01580  Biso   1.000  H
  H59      1.0000 0.68940  0.12380  0.98420  Biso   1.000  H
  H60      1.0000 0.81060  0.87620  0.48420  Biso   1.000  H
  H61      1.0000 0.68940  0.37620  0.48420  Biso   1.000  H
  H62      1.0000 0.81060  0.62380  0.98420  Biso   1.000  H
  H63      1.0000 0.31060  0.87620  0.01580  Biso   1.000  H
  H64      1.0000 0.18940  0.12380  0.51580  Biso   1.000  H
  C81      1.0000 0.33750  0.90660  0.48611  Biso   1.000  C
  C82      1.0000 0.16250  0.09340  0.98611  Biso   1.000  C
  C83      1.0000 0.66250  0.40660  0.01389  Biso   1.000  C
  C84      1.0000 0.83750  0.59340  0.51389  Biso   1.000  C
  C85      1.0000 0.66250  0.09340  0.51389  Biso   1.000  C
  C86      1.0000 0.83750  0.90660  0.01389  Biso   1.000  C
  C87      1.0000 0.33750  0.59340  0.98611  Biso   1.000  C
  C88      1.0000 0.16250  0.40660  0.48611  Biso   1.000  C
  C89      1.0000 0.32620  0.92300  0.60627  Biso   1.000  C
  C90      1.0000 0.17380  0.07700  0.10627  Biso   1.000  C
  C91      1.0000 0.67380  0.42300  0.89373  Biso   1.000  C
  C92      1.0000 0.82620  0.57700  0.39373  Biso   1.000  C
  C93      1.0000 0.67380  0.07700  0.39373  Biso   1.000  C
  C94      1.0000 0.82620  0.92300  0.89373  Biso   1.000  C
  C95      1.0000 0.32620  0.57700  0.10627  Biso   1.000  C
  C96      1.0000 0.17380  0.42300  0.60627  Biso   1.000  C
  C97      1.0000 0.45820  0.10310  0.78517  Biso   1.000  C
  C98      1.0000 0.04180  0.89690  0.28517  Biso   1.000  C
  C99      1.0000 0.54180  0.60310  0.71483  Biso   1.000  C
  C100     1.0000 0.95820  0.39690  0.21483  Biso   1.000  C
  C101     1.0000 0.54180  0.89690  0.21483  Biso   1.000  C
  C102     1.0000 0.95820  0.10310  0.71483  Biso   1.000  C
  C103     1.0000 0.45820  0.39690  0.28517  Biso   1.000  C
  C104     1.0000 0.04180  0.60310  0.78517  Biso   1.000  C
  H65      1.0000 0.45580  0.04590  0.79790  Biso   1.000  H
  H66      1.0000 0.04420  0.95410  0.29790  Biso   1.000  H
  H67      1.0000 0.54420  0.54590  0.70210  Biso   1.000  H
  H68      1.0000 0.95580  0.45410  0.20210  Biso   1.000  H
  H69      1.0000 0.54420  0.95410  0.20210  Biso   1.000  H
  H70      1.0000 0.95580  0.04590  0.70210  Biso   1.000  H
  H71      1.0000 0.45580  0.45410  0.29790  Biso   1.000  H
  H72      1.0000 0.04420  0.54590  0.79790  Biso   1.000  H
  C105     1.0000 0.47500  0.17170  0.81850  Biso   1.000  C
  C106     1.0000 0.02500  0.82830  0.31850  Biso   1.000  C
  C107     1.0000 0.52500  0.67170  0.68150  Biso   1.000  C
  C108     1.0000 0.97500  0.32830  0.18150  Biso   1.000  C
  C109     1.0000 0.52500  0.82830  0.18150  Biso   1.000  C
  C110     1.0000 0.97500  0.17170  0.68150  Biso   1.000  C
  C111     1.0000 0.47500  0.32830  0.31850  Biso   1.000  C
  C112     1.0000 0.02500  0.67170  0.81850  Biso   1.000  C
  H73      1.0000 0.48390  0.16060  0.85320  Biso   1.000  H
  H74      1.0000 0.01610  0.83940  0.35320  Biso   1.000  H
  H75      1.0000 0.51610  0.66060  0.64680  Biso   1.000  H
  H76      1.0000 0.98390  0.33940  0.14680  Biso   1.000  H
  H77      1.0000 0.51610  0.83940  0.14680  Biso   1.000  H
  H78      1.0000 0.98390  0.16060  0.64680  Biso   1.000  H
  H79      1.0000 0.48390  0.33940  0.35320  Biso   1.000  H
  H80      1.0000 0.01610  0.66060  0.85320  Biso   1.000  H
  C113     1.0000 0.47870  0.25570  0.80050  Biso   1.000  C
  C114     1.0000 0.02130  0.74430  0.30050  Biso   1.000  C
  C115     1.0000 0.52130  0.75570  0.69950  Biso   1.000  C
  C116     1.0000 0.97870  0.24430  0.19950  Biso   1.000  C
  C117     1.0000 0.52130  0.74430  0.19950  Biso   1.000  C
  C118     1.0000 0.97870  0.25570  0.69950  Biso   1.000  C
  C119     1.0000 0.47870  0.24430  0.30050  Biso   1.000  C
  C120     1.0000 0.02130  0.75570  0.80050  Biso   1.000  C
  H81      1.0000 0.49130  0.30240  0.82260  Biso   1.000  H
  H82      1.0000 0.00870  0.69760  0.32260  Biso   1.000  H
  H83      1.0000 0.50870  0.80240  0.67740  Biso   1.000  H
  H84      1.0000 0.99130  0.19760  0.17740  Biso   1.000  H
  H85      1.0000 0.50870  0.69760  0.17740  Biso   1.000  H
  H86      1.0000 0.99130  0.30240  0.67740  Biso   1.000  H
  H87      1.0000 0.49130  0.19760  0.32260  Biso   1.000  H
  H88      1.0000 0.00870  0.80240  0.82260  Biso   1.000  H
  C121     1.0000 0.46340  0.27060  0.74896  Biso   1.000  C
  C122     1.0000 0.03660  0.72940  0.24896  Biso   1.000  C
  C123     1.0000 0.53660  0.77060  0.75104  Biso   1.000  C
  C124     1.0000 0.96340  0.22940  0.25104  Biso   1.000  C
  C125     1.0000 0.53660  0.72940  0.25104  Biso   1.000  C
  C126     1.0000 0.96340  0.27060  0.75104  Biso   1.000  C
  C127     1.0000 0.46340  0.22940  0.24896  Biso   1.000  C
  C128     1.0000 0.03660  0.77060  0.74896  Biso   1.000  C
  H89      1.0000 0.46320  0.32770  0.73600  Biso   1.000  H
  H90      1.0000 0.03680  0.67230  0.23600  Biso   1.000  H
  H91      1.0000 0.53680  0.82770  0.76400  Biso   1.000  H
  H92      1.0000 0.96320  0.17230  0.26400  Biso   1.000  H
  H93      1.0000 0.53680  0.67230  0.26400  Biso   1.000  H
  H94      1.0000 0.96320  0.32770  0.76400  Biso   1.000  H
  H95      1.0000 0.46320  0.17230  0.23600  Biso   1.000  H
  H96      1.0000 0.03680  0.82770  0.73600  Biso   1.000  H
  C129     1.0000 0.43980  0.28380  0.63380  Biso   1.000  C
  C130     1.0000 0.06020  0.71620  0.13380  Biso   1.000  C
  C131     1.0000 0.56020  0.78380  0.86620  Biso   1.000  C
  C132     1.0000 0.93980  0.21620  0.36620  Biso   1.000  C
  C133     1.0000 0.56020  0.71620  0.36620  Biso   1.000  C
  C134     1.0000 0.93980  0.28380  0.86620  Biso   1.000  C
  C135     1.0000 0.43980  0.21620  0.13380  Biso   1.000  C
  C136     1.0000 0.06020  0.78380  0.63380  Biso   1.000  C
  H97      1.0000 0.44080  0.33740  0.65100  Biso   1.000  H
  H98      1.0000 0.05920  0.66260  0.15100  Biso   1.000  H
  H99      1.0000 0.55920  0.83740  0.84900  Biso   1.000  H
  H100     1.0000 0.94080  0.16260  0.34900  Biso   1.000  H
  H101     1.0000 0.55920  0.66260  0.34900  Biso   1.000  H
  H102     1.0000 0.94080  0.33740  0.84900  Biso   1.000  H
  H103     1.0000 0.44080  0.16260  0.15100  Biso   1.000  H
  H104     1.0000 0.05920  0.83740  0.65100  Biso   1.000  H
  C137     1.0000 0.43880  0.28090  0.58130  Biso   1.000  C
  C138     1.0000 0.06120  0.71910  0.08130  Biso   1.000  C
  C139     1.0000 0.56120  0.78090  0.91870  Biso   1.000  C
  C140     1.0000 0.93880  0.21910  0.41870  Biso   1.000  C
  C141     1.0000 0.56120  0.71910  0.41870  Biso   1.000  C
  C142     1.0000 0.93880  0.28090  0.91870  Biso   1.000  C
  C143     1.0000 0.43880  0.21910  0.08130  Biso   1.000  C
  C144     1.0000 0.06120  0.78090  0.58130  Biso   1.000  C
  H105     1.0000 0.44190  0.33260  0.56230  Biso   1.000  H
  H106     1.0000 0.05810  0.66740  0.06230  Biso   1.000  H
  H107     1.0000 0.55810  0.83260  0.93770  Biso   1.000  H
  H108     1.0000 0.94190  0.16740  0.43770  Biso   1.000  H
  H109     1.0000 0.55810  0.66740  0.43770  Biso   1.000  H
  H110     1.0000 0.94190  0.33260  0.93770  Biso   1.000  H
  H111     1.0000 0.44190  0.16740  0.06230  Biso   1.000  H
  H112     1.0000 0.05810  0.83260  0.56230  Biso   1.000  H
  C145     1.0000 0.43330  0.20120  0.55720  Biso   1.000  C
  C146     1.0000 0.06670  0.79880  0.05720  Biso   1.000  C
  C147     1.0000 0.56670  0.70120  0.94280  Biso   1.000  C
  C148     1.0000 0.93330  0.29880  0.44280  Biso   1.000  C
  C149     1.0000 0.56670  0.79880  0.44280  Biso   1.000  C
  C150     1.0000 0.93330  0.20120  0.94280  Biso   1.000  C
  C151     1.0000 0.43330  0.29880  0.05720  Biso   1.000  C
  C152     1.0000 0.06670  0.70120  0.55720  Biso   1.000  C
  H113     1.0000 0.43200  0.19820  0.52170  Biso   1.000  H
  H114     1.0000 0.06800  0.80180  0.02170  Biso   1.000  H
  H115     1.0000 0.56800  0.69820  0.97830  Biso   1.000  H
  H116     1.0000 0.93200  0.30180  0.47830  Biso   1.000  H
  H117     1.0000 0.56800  0.80180  0.47830  Biso   1.000  H
  H118     1.0000 0.93200  0.19820  0.97830  Biso   1.000  H
  H119     1.0000 0.43200  0.30180  0.02170  Biso   1.000  H
  H120     1.0000 0.06800  0.69820  0.52170  Biso   1.000  H
  C153     1.0000 0.42960  0.12600  0.58581  Biso   1.000  C
  C154     1.0000 0.07040  0.87400  0.08581  Biso   1.000  C
  C155     1.0000 0.57040  0.62600  0.91419  Biso   1.000  C
  C156     1.0000 0.92960  0.37400  0.41419  Biso   1.000  C
  C157     1.0000 0.57040  0.87400  0.41419  Biso   1.000  C
  C158     1.0000 0.92960  0.12600  0.91419  Biso   1.000  C
  C159     1.0000 0.42960  0.37400  0.08581  Biso   1.000  C
  C160     1.0000 0.07040  0.62600  0.58581  Biso   1.000  C
  H121     1.0000 0.42530  0.07210  0.56910  Biso   1.000  H
  H122     1.0000 0.07470  0.92790  0.06910  Biso   1.000  H
  H123     1.0000 0.57470  0.57210  0.93090  Biso   1.000  H
  H124     1.0000 0.92530  0.42790  0.43090  Biso   1.000  H
  H125     1.0000 0.57470  0.92790  0.43090  Biso   1.000  H
  H126     1.0000 0.92530  0.07210  0.93090  Biso   1.000  H
  H127     1.0000 0.42530  0.42790  0.06910  Biso   1.000  H
  H128     1.0000 0.07470  0.57210  0.56910  Biso   1.000  H
  C161     1.0000 0.44820  0.19920  0.71697  Biso   1.000  C
  C162     1.0000 0.05180  0.80080  0.21697  Biso   1.000  C
  C163     1.0000 0.55180  0.69920  0.78303  Biso   1.000  C
  C164     1.0000 0.94820  0.30080  0.28303  Biso   1.000  C
  C165     1.0000 0.55180  0.80080  0.28303  Biso   1.000  C
  C166     1.0000 0.94820  0.19920  0.78303  Biso   1.000  C
  C167     1.0000 0.44820  0.30080  0.21697  Biso   1.000  C
  C168     1.0000 0.05180  0.69920  0.71697  Biso   1.000  C
  C169     1.0000 0.43920  0.20530  0.66082  Biso   1.000  C
  C170     1.0000 0.06080  0.79470  0.16082  Biso   1.000  C
  C171     1.0000 0.56080  0.70530  0.83918  Biso   1.000  C
  C172     1.0000 0.93920  0.29470  0.33918  Biso   1.000  C
  C173     1.0000 0.56080  0.79470  0.33918  Biso   1.000  C
  C174     1.0000 0.93920  0.20530  0.83918  Biso   1.000  C
  C175     1.0000 0.43920  0.29470  0.16082  Biso   1.000  C
  C176     1.0000 0.06080  0.70530  0.66082  Biso   1.000  C
  O81      1.0000 0.07690  0.93460  0.43583  Biso   1.000  O
  O82      1.0000 0.42310  0.06540  0.93583  Biso   1.000  O
  O83      1.0000 0.92310  0.43460  0.06417  Biso   1.000  O
  O84      1.0000 0.57690  0.56540  0.56417  Biso   1.000  O
  O85      1.0000 0.92310  0.06540  0.56417  Biso   1.000  O
  O86      1.0000 0.57690  0.93460  0.06417  Biso   1.000  O
  O87      1.0000 0.07690  0.56540  0.93583  Biso   1.000  O
  O88      1.0000 0.42310  0.43460  0.43583  Biso   1.000  O
  H129     1.0000 0.14210  0.96640  0.43530  Biso   1.000  H
  H130     1.0000 0.35790  0.03360  0.93530  Biso   1.000  H
  H131     1.0000 0.85790  0.46640  0.06470  Biso   1.000  H
  H132     1.0000 0.64210  0.53360  0.56470  Biso   1.000  H
  H133     1.0000 0.85790  0.03360  0.56470  Biso   1.000  H
  H134     1.0000 0.64210  0.96640  0.06470  Biso   1.000  H
  H135     1.0000 0.14210  0.53360  0.93530  Biso   1.000  H
  H136     1.0000 0.35790  0.46640  0.43530  Biso   1.000  H
  H137     1.0000 0.02160  0.94850  0.43080  Biso   1.000  H
  H138     1.0000 0.47840  0.05150  0.93080  Biso   1.000  H
  H139     1.0000 0.97840  0.44850  0.06920  Biso   1.000  H
  H140     1.0000 0.52160  0.55150  0.56920  Biso   1.000  H
  H141     1.0000 0.97840  0.05150  0.56920  Biso   1.000  H
  H142     1.0000 0.52160  0.94850  0.06920  Biso   1.000  H
  H143     1.0000 0.02160  0.55150  0.93080  Biso   1.000  H
  H144     1.0000 0.47840  0.44850  0.43080  Biso   1.000  H
  O89      1.0000 0.08580  0.59690  0.42225  Biso   1.000  O
  O90      1.0000 0.41420  0.40310  0.92225  Biso   1.000  O
  O91      1.0000 0.91420  0.09690  0.07775  Biso   1.000  O
  O92      1.0000 0.58580  0.90310  0.57775  Biso   1.000  O
  O93      1.0000 0.91420  0.40310  0.57775  Biso   1.000  O
  O94      1.0000 0.58580  0.59690  0.07775  Biso   1.000  O
  O95      1.0000 0.08580  0.90310  0.92225  Biso   1.000  O
  O96      1.0000 0.41420  0.09690  0.42225  Biso   1.000  O
  H145     1.0000 0.03260  0.58970  0.41380  Biso   1.000  H
  H146     1.0000 0.46740  0.41030  0.91380  Biso   1.000  H
  H147     1.0000 0.96740  0.08970  0.08620  Biso   1.000  H
  H148     1.0000 0.53260  0.91030  0.58620  Biso   1.000  H
  H149     1.0000 0.96740  0.41030  0.58620  Biso   1.000  H
  H150     1.0000 0.53260  0.58970  0.08620  Biso   1.000  H
  H151     1.0000 0.03260  0.91030  0.91380  Biso   1.000  H
  H152     1.0000 0.46740  0.08970  0.41380  Biso   1.000  H
  H153     1.0000 0.10780  0.56100  0.44470  Biso   1.000  H
  H154     1.0000 0.39220  0.43900  0.94470  Biso   1.000  H
  H155     1.0000 0.89220  0.06100  0.05530  Biso   1.000  H
  H156     1.0000 0.60780  0.93900  0.55530  Biso   1.000  H
  H157     1.0000 0.89220  0.43900  0.55530  Biso   1.000  H
  H158     1.0000 0.60780  0.56100  0.05530  Biso   1.000  H
  H159     1.0000 0.10780  0.93900  0.94470  Biso   1.000  H
  H160     1.0000 0.39220  0.06100  0.44470  Biso   1.000  H
  O97      1.0000 0.10340  0.98030  0.53750  Biso   1.000  O
  O98      1.0000 0.39660  0.01970  0.03750  Biso   1.000  O
  O99      1.0000 0.89660  0.48030  0.96250  Biso   1.000  O
  O100     1.0000 0.60340  0.51970  0.46250  Biso   1.000  O
  O101     1.0000 0.89660  0.01970  0.46250  Biso   1.000  O
  O102     1.0000 0.60340  0.98030  0.96250  Biso   1.000  O
  O103     1.0000 0.10340  0.51970  0.03750  Biso   1.000  O
  O104     1.0000 0.39660  0.48030  0.53750  Biso   1.000  O
  H161     1.0000 0.15520  0.97740  0.56700  Biso   1.000  H
  H162     1.0000 0.34480  0.02260  0.06700  Biso   1.000  H
  H163     1.0000 0.84480  0.47740  0.93300  Biso   1.000  H
  H164     1.0000 0.65520  0.52260  0.43300  Biso   1.000  H
  H165     1.0000 0.84480  0.02260  0.43300  Biso   1.000  H
  H166     1.0000 0.65520  0.97740  0.93300  Biso   1.000  H
  H167     1.0000 0.15520  0.52260  0.06700  Biso   1.000  H
  H168     1.0000 0.34480  0.47740  0.56700  Biso   1.000  H
  H169     1.0000 0.05920  0.99240  0.55080  Biso   1.000  H
  H170     1.0000 0.44080  0.00760  0.05080  Biso   1.000  H
  H171     1.0000 0.94080  0.49240  0.94920  Biso   1.000  H
  H172     1.0000 0.55920  0.50760  0.44920  Biso   1.000  H
  H173     1.0000 0.94080  0.00760  0.44920  Biso   1.000  H
  H174     1.0000 0.55920  0.99240  0.94920  Biso   1.000  H
  H175     1.0000 0.05920  0.50760  0.05080  Biso   1.000  H
  H176     1.0000 0.44080  0.49240  0.55080  Biso   1.000  H
