data_image0
_cell_length_a       7.7713
_cell_length_b       27.478
_cell_length_c       13.2621
_cell_angle_alpha    90
_cell_angle_beta     100.694
_cell_angle_gamma    90

_symmetry_space_group_name_H-M    "P 1"
_symmetry_int_tables_number       1

loop_
  _symmetry_equiv_pos_as_xyz
  'x, y, z'

loop_
  _atom_site_label
  _atom_site_occupancy
  _atom_site_fract_x
  _atom_site_fract_y
  _atom_site_fract_z
  _atom_site_thermal_displace_type
  _atom_site_B_iso_or_equiv
  _atom_site_type_symbol
  C1       1.0000 0.30590  0.65375  0.26270  Biso   1.000  C
  C2       1.0000 0.69410  0.15375  0.23730  Biso   1.000  C
  C3       1.0000 0.69410  0.34625  0.73730  Biso   1.000  C
  C4       1.0000 0.30590  0.84625  0.76270  Biso   1.000  C
  H1       1.0000 0.20410  0.63520  0.24950  Biso   1.000  H
  H2       1.0000 0.79590  0.13520  0.25050  Biso   1.000  H
  H3       1.0000 0.79590  0.36480  0.75050  Biso   1.000  H
  H4       1.0000 0.20410  0.86480  0.74950  Biso   1.000  H
  C5       1.0000 0.29400  0.70367  0.25990  Biso   1.000  C
  C6       1.0000 0.70600  0.20367  0.24010  Biso   1.000  C
  C7       1.0000 0.70600  0.29633  0.74010  Biso   1.000  C
  C8       1.0000 0.29400  0.79633  0.75990  Biso   1.000  C
  H5       1.0000 0.18510  0.71880  0.24600  Biso   1.000  H
  H6       1.0000 0.81490  0.21880  0.25400  Biso   1.000  H
  H7       1.0000 0.81490  0.28120  0.75400  Biso   1.000  H
  H8       1.0000 0.18510  0.78120  0.74600  Biso   1.000  H
  C9       1.0000 0.44470  0.73104  0.27780  Biso   1.000  C
  C10      1.0000 0.55530  0.23104  0.22220  Biso   1.000  C
  C11      1.0000 0.55530  0.26896  0.72220  Biso   1.000  C
  C12      1.0000 0.44470  0.76896  0.77780  Biso   1.000  C
  H9       1.0000 0.43800  0.76480  0.27630  Biso   1.000  H
  H10      1.0000 0.56200  0.26480  0.22370  Biso   1.000  H
  H11      1.0000 0.56200  0.23520  0.72370  Biso   1.000  H
  H12      1.0000 0.43800  0.73520  0.77630  Biso   1.000  H
  C13      1.0000 0.60800  0.70810  0.29820  Biso   1.000  C
  C14      1.0000 0.39200  0.20810  0.20180  Biso   1.000  C
  C15      1.0000 0.39200  0.29190  0.70180  Biso   1.000  C
  C16      1.0000 0.60800  0.79190  0.79820  Biso   1.000  C
  C17      1.0000 0.60980  0.65772  0.30140  Biso   1.000  C
  C18      1.0000 0.39020  0.15772  0.19860  Biso   1.000  C
  C19      1.0000 0.39020  0.34228  0.69860  Biso   1.000  C
  C20      1.0000 0.60980  0.84228  0.80140  Biso   1.000  C
  C21      1.0000 0.77280  0.62670  0.32550  Biso   1.000  C
  C22      1.0000 0.22720  0.12670  0.17450  Biso   1.000  C
  C23      1.0000 0.22720  0.37330  0.67450  Biso   1.000  C
  C24      1.0000 0.77280  0.87330  0.82550  Biso   1.000  C
  C25      1.0000 0.77150  0.73929  0.31180  Biso   1.000  C
  C26      1.0000 0.22850  0.23929  0.18820  Biso   1.000  C
  C27      1.0000 0.22850  0.26071  0.68820  Biso   1.000  C
  C28      1.0000 0.77150  0.76071  0.81180  Biso   1.000  C
  C29      1.0000 0.39610  0.46602  0.23990  Biso   1.000  C
  C30      1.0000 0.60390  0.96602  0.26010  Biso   1.000  C
  C31      1.0000 0.60390  0.53398  0.76010  Biso   1.000  C
  C32      1.0000 0.39610  0.03398  0.73990  Biso   1.000  C
  C33      1.0000 0.39470  0.41578  0.23130  Biso   1.000  C
  C34      1.0000 0.60530  0.91578  0.26870  Biso   1.000  C
  C35      1.0000 0.60530  0.58422  0.76870  Biso   1.000  C
  C36      1.0000 0.39470  0.08422  0.73130  Biso   1.000  C
  C37      1.0000 0.55510  0.39198  0.25190  Biso   1.000  C
  C38      1.0000 0.44490  0.89198  0.24810  Biso   1.000  C
  C39      1.0000 0.44490  0.60802  0.74810  Biso   1.000  C
  C40      1.0000 0.55510  0.10802  0.75190  Biso   1.000  C
  H13      1.0000 0.55940  0.35830  0.24550  Biso   1.000  H
  H14      1.0000 0.44060  0.85830  0.25450  Biso   1.000  H
  H15      1.0000 0.44060  0.64170  0.75450  Biso   1.000  H
  H16      1.0000 0.55940  0.14170  0.74550  Biso   1.000  H
  C41      1.0000 0.70770  0.41791  0.28160  Biso   1.000  C
  C42      1.0000 0.29230  0.91791  0.21840  Biso   1.000  C
  C43      1.0000 0.29230  0.58209  0.71840  Biso   1.000  C
  C44      1.0000 0.70770  0.08209  0.78160  Biso   1.000  C
  H17      1.0000 0.81510  0.40200  0.29540  Biso   1.000  H
  H18      1.0000 0.18490  0.90200  0.20460  Biso   1.000  H
  H19      1.0000 0.18490  0.59800  0.70460  Biso   1.000  H
  H20      1.0000 0.81510  0.09800  0.79540  Biso   1.000  H
  C45      1.0000 0.69910  0.46756  0.29070  Biso   1.000  C
  C46      1.0000 0.30090  0.96756  0.20930  Biso   1.000  C
  C47      1.0000 0.30090  0.53244  0.70930  Biso   1.000  C
  C48      1.0000 0.69910  0.03244  0.79070  Biso   1.000  C
  H21      1.0000 0.80160  0.48520  0.31190  Biso   1.000  H
  H22      1.0000 0.19840  0.98520  0.18810  Biso   1.000  H
  H23      1.0000 0.19840  0.51480  0.68810  Biso   1.000  H
  H24      1.0000 0.80160  0.01480  0.81190  Biso   1.000  H
  C49      1.0000 0.23700  0.49861  0.21500  Biso   1.000  C
  C50      1.0000 0.76300  0.99861  0.28500  Biso   1.000  C
  C51      1.0000 0.76300  0.50139  0.78500  Biso   1.000  C
  C52      1.0000 0.23700  0.00139  0.71500  Biso   1.000  C
  C53      1.0000 0.22790  0.38567  0.20710  Biso   1.000  C
  C54      1.0000 0.77210  0.88567  0.29290  Biso   1.000  C
  C55      1.0000 0.77210  0.61433  0.79290  Biso   1.000  C
  C56      1.0000 0.22790  0.11433  0.70710  Biso   1.000  C
  C57      1.0000 0.16240  0.72099  0.49350  Biso   1.000  C
  C58      1.0000 0.83760  0.22099  0.00650  Biso   1.000  C
  C59      1.0000 0.83760  0.27901  0.50650  Biso   1.000  C
  C60      1.0000 0.16240  0.77901  0.99350  Biso   1.000  C
  H25      1.0000 0.05250  0.70640  0.48190  Biso   1.000  H
  H26      1.0000 0.94750  0.20640  0.01810  Biso   1.000  H
  H27      1.0000 0.94750  0.29360  0.51810  Biso   1.000  H
  H28      1.0000 0.05250  0.79360  0.98190  Biso   1.000  H
  C61      1.0000 0.30970  0.69204  0.52240  Biso   1.000  C
  C62      1.0000 0.69030  0.19204  0.97760  Biso   1.000  C
  C63      1.0000 0.69030  0.30796  0.47760  Biso   1.000  C
  C64      1.0000 0.30970  0.80796  0.02240  Biso   1.000  C
  H29      1.0000 0.29870  0.65860  0.53060  Biso   1.000  H
  H30      1.0000 0.70130  0.15860  0.96940  Biso   1.000  H
  H31      1.0000 0.70130  0.34140  0.46940  Biso   1.000  H
  H32      1.0000 0.29870  0.84140  0.03060  Biso   1.000  H
  C65      1.0000 0.47160  0.71352  0.53860  Biso   1.000  C
  C66      1.0000 0.52840  0.21352  0.96140  Biso   1.000  C
  C67      1.0000 0.52840  0.28648  0.46140  Biso   1.000  C
  C68      1.0000 0.47160  0.78648  0.03860  Biso   1.000  C
  H33      1.0000 0.57190  0.69460  0.55670  Biso   1.000  H
  H34      1.0000 0.42810  0.19460  0.94330  Biso   1.000  H
  H35      1.0000 0.42810  0.30540  0.44330  Biso   1.000  H
  H36      1.0000 0.57190  0.80540  0.05670  Biso   1.000  H
  C69      1.0000 0.48530  0.76329  0.52800  Biso   1.000  C
  C70      1.0000 0.51470  0.26329  0.97200  Biso   1.000  C
  C71      1.0000 0.51470  0.23671  0.47200  Biso   1.000  C
  C72      1.0000 0.48530  0.73671  0.02800  Biso   1.000  C
  H37      1.0000 0.59440  0.77840  0.53930  Biso   1.000  H
  H38      1.0000 0.40560  0.27840  0.96070  Biso   1.000  H
  H39      1.0000 0.40560  0.22160  0.46070  Biso   1.000  H
  H40      1.0000 0.59440  0.72160  0.03930  Biso   1.000  H
  C73      1.0000 0.33300  0.79043  0.50000  Biso   1.000  C
  C74      1.0000 0.66700  0.29043  0.00000  Biso   1.000  C
  C75      1.0000 0.66700  0.20957  0.50000  Biso   1.000  C
  C76      1.0000 0.33300  0.70957  0.00000  Biso   1.000  C
  C77      1.0000 0.32970  0.84401  0.49290  Biso   1.000  C
  C78      1.0000 0.67030  0.34401  0.00710  Biso   1.000  C
  C79      1.0000 0.67030  0.15599  0.50710  Biso   1.000  C
  C80      1.0000 0.32970  0.65599  0.99290  Biso   1.000  C
  C81      1.0000 0.47750  0.87321  0.51360  Biso   1.000  C
  C82      1.0000 0.52250  0.37321  0.98640  Biso   1.000  C
  C83      1.0000 0.52250  0.12679  0.48640  Biso   1.000  C
  C84      1.0000 0.47750  0.62679  0.01360  Biso   1.000  C
  H41      1.0000 0.58840  0.85940  0.53010  Biso   1.000  H
  H42      1.0000 0.41160  0.35940  0.96990  Biso   1.000  H
  H43      1.0000 0.41160  0.14060  0.46990  Biso   1.000  H
  H44      1.0000 0.58840  0.64060  0.03010  Biso   1.000  H
  C85      1.0000 0.45730  0.92303  0.50930  Biso   1.000  C
  C86      1.0000 0.54270  0.42303  0.99070  Biso   1.000  C
  C87      1.0000 0.54270  0.07697  0.49070  Biso   1.000  C
  C88      1.0000 0.45730  0.57697  0.00930  Biso   1.000  C
  H45      1.0000 0.55480  0.94320  0.52360  Biso   1.000  H
  H46      1.0000 0.44520  0.44320  0.97640  Biso   1.000  H
  H47      1.0000 0.44520  0.05680  0.47640  Biso   1.000  H
  H48      1.0000 0.55480  0.55680  0.02360  Biso   1.000  H
  C89      1.0000 0.29300  0.94259  0.48400  Biso   1.000  C
  C90      1.0000 0.70700  0.44259  0.01600  Biso   1.000  C
  C91      1.0000 0.70700  0.05741  0.51600  Biso   1.000  C
  C92      1.0000 0.29300  0.55741  0.98400  Biso   1.000  C
  H49      1.0000 0.27730  0.97610  0.48160  Biso   1.000  H
  H50      1.0000 0.72270  0.47610  0.01840  Biso   1.000  H
  H51      1.0000 0.72270  0.02390  0.51840  Biso   1.000  H
  H52      1.0000 0.27730  0.52390  0.98160  Biso   1.000  H
  C93      1.0000 0.15080  0.91165  0.46210  Biso   1.000  C
  C94      1.0000 0.84920  0.41165  0.03790  Biso   1.000  C
  C95      1.0000 0.84920  0.08835  0.53790  Biso   1.000  C
  C96      1.0000 0.15080  0.58835  0.96210  Biso   1.000  C
  H53      1.0000 0.03930  0.92500  0.44380  Biso   1.000  H
  H54      1.0000 0.96070  0.42500  0.05620  Biso   1.000  H
  H55      1.0000 0.96070  0.07500  0.55620  Biso   1.000  H
  H56      1.0000 0.03930  0.57500  0.94380  Biso   1.000  H
  Cu1      1.0000 0.97468  0.81484  0.43093  Biso   1.000  Cu
  Cu2      1.0000 0.02532  0.31484  0.06907  Biso   1.000  Cu
  Cu3      1.0000 0.02532  0.18516  0.56907  Biso   1.000  Cu
  Cu4      1.0000 0.97468  0.68516  0.93093  Biso   1.000  Cu
  Cu5      1.0000 0.50262  0.56079  0.29127  Biso   1.000  Cu
  Cu6      1.0000 0.49738  0.06079  0.20873  Biso   1.000  Cu
  Cu7      1.0000 0.49738  0.43921  0.70873  Biso   1.000  Cu
  Cu8      1.0000 0.50262  0.93921  0.79127  Biso   1.000  Cu
  N1       1.0000 0.46040  0.63149  0.28376  Biso   1.000  N
  N2       1.0000 0.53960  0.13149  0.21624  Biso   1.000  N
  N3       1.0000 0.53960  0.36851  0.71624  Biso   1.000  N
  N4       1.0000 0.46040  0.86851  0.78376  Biso   1.000  N
  N5       1.0000 0.54660  0.49106  0.26969  Biso   1.000  N
  N6       1.0000 0.45340  0.99106  0.23031  Biso   1.000  N
  N7       1.0000 0.45340  0.50894  0.73031  Biso   1.000  N
  N8       1.0000 0.54660  0.00894  0.76969  Biso   1.000  N
  N9       1.0000 0.17350  0.76913  0.48197  Biso   1.000  N
  N10      1.0000 0.82650  0.26913  0.01803  Biso   1.000  N
  N11      1.0000 0.82650  0.23087  0.51803  Biso   1.000  N
  N12      1.0000 0.17350  0.73087  0.98197  Biso   1.000  N
  N13      1.0000 0.16790  0.86344  0.46615  Biso   1.000  N
  N14      1.0000 0.83210  0.36344  0.03385  Biso   1.000  N
  N15      1.0000 0.83210  0.13656  0.53385  Biso   1.000  N
  N16      1.0000 0.16790  0.63656  0.96615  Biso   1.000  N
  O1       1.0000 0.80220  0.76290  0.39474  Biso   1.000  O
  O2       1.0000 0.19780  0.26290  0.10526  Biso   1.000  O
  O3       1.0000 0.19780  0.23710  0.60526  Biso   1.000  O
  O4       1.0000 0.80220  0.73710  0.89474  Biso   1.000  O
  O5       1.0000 0.85320  0.74115  0.24074  Biso   1.000  O
  O6       1.0000 0.14680  0.24115  0.25926  Biso   1.000  O
  O7       1.0000 0.14680  0.25885  0.75926  Biso   1.000  O
  O8       1.0000 0.85320  0.75885  0.74074  Biso   1.000  O
  O9       1.0000 0.91670  0.64545  0.35190  Biso   1.000  O
  O10      1.0000 0.08330  0.14545  0.14810  Biso   1.000  O
  O11      1.0000 0.08330  0.35455  0.64810  Biso   1.000  O
  O12      1.0000 0.91670  0.85455  0.85190  Biso   1.000  O
  O13      1.0000 0.74650  0.58054  0.31489  Biso   1.000  O
  O14      1.0000 0.25350  0.08054  0.18511  Biso   1.000  O
  O15      1.0000 0.25350  0.41946  0.68511  Biso   1.000  O
  O16      1.0000 0.74650  0.91946  0.81489  Biso   1.000  O
  O17      1.0000 0.26170  0.54288  0.24250  Biso   1.000  O
  O18      1.0000 0.73830  0.04288  0.25750  Biso   1.000  O
  O19      1.0000 0.73830  0.45712  0.75750  Biso   1.000  O
  O20      1.0000 0.26170  0.95712  0.74250  Biso   1.000  O
  O21      1.0000 0.09810  0.48234  0.16910  Biso   1.000  O
  O22      1.0000 0.90190  0.98234  0.33090  Biso   1.000  O
  O23      1.0000 0.90190  0.51766  0.83090  Biso   1.000  O
  O24      1.0000 0.09810  0.01766  0.66910  Biso   1.000  O
  O25      1.0000 0.13410  0.38428  0.27250  Biso   1.000  O
  O26      1.0000 0.86590  0.88428  0.22750  Biso   1.000  O
  O27      1.0000 0.86590  0.61572  0.72750  Biso   1.000  O
  O28      1.0000 0.13410  0.11572  0.77250  Biso   1.000  O
  O29      1.0000 0.20670  0.36306  0.12410  Biso   1.000  O
  O30      1.0000 0.79330  0.86306  0.37590  Biso   1.000  O
  O31      1.0000 0.79330  0.63694  0.87590  Biso   1.000  O
  O32      1.0000 0.20670  0.13694  0.62410  Biso   1.000  O
  O33      1.0000 0.89530  0.82848  0.59099  Biso   1.000  O
  O34      1.0000 0.10470  0.32848  0.90901  Biso   1.000  O
  O35      1.0000 0.10470  0.17152  0.40901  Biso   1.000  O
  O36      1.0000 0.89530  0.67152  0.09099  Biso   1.000  O
  H57      1.0000 0.90030  0.85760  0.60660  Biso   1.000  H
  H58      1.0000 0.09970  0.35760  0.89340  Biso   1.000  H
  H59      1.0000 0.09970  0.14240  0.39340  Biso   1.000  H
  H60      1.0000 0.90030  0.64240  0.10660  Biso   1.000  H
  H61      1.0000 0.88020  0.81140  0.63920  Biso   1.000  H
  H62      1.0000 0.11980  0.31140  0.86080  Biso   1.000  H
  H63      1.0000 0.11980  0.18860  0.36080  Biso   1.000  H
  H64      1.0000 0.88020  0.68860  0.13920  Biso   1.000  H
  O37      1.0000 0.49902  0.55416  0.46099  Biso   1.000  O
  O38      1.0000 0.50098  0.05416  0.03901  Biso   1.000  O
  O39      1.0000 0.50098  0.44584  0.53901  Biso   1.000  O
  O40      1.0000 0.49902  0.94584  0.96099  Biso   1.000  O
  H65      1.0000 0.41260  0.55220  0.48710  Biso   1.000  H
  H66      1.0000 0.58740  0.05220  0.01290  Biso   1.000  H
  H67      1.0000 0.58740  0.44780  0.51290  Biso   1.000  H
  H68      1.0000 0.41260  0.94780  0.98710  Biso   1.000  H
  H69      1.0000 0.59230  0.55540  0.50110  Biso   1.000  H
  H70      1.0000 0.40770  0.05540  0.99890  Biso   1.000  H
  H71      1.0000 0.40770  0.44460  0.49890  Biso   1.000  H
  H72      1.0000 0.59230  0.94460  0.00110  Biso   1.000  H
  O41      1.0000 0.87638  0.56876  0.12790  Biso   1.000  O
  O42      1.0000 0.12362  0.06876  0.37210  Biso   1.000  O
  O43      1.0000 0.12362  0.43124  0.87210  Biso   1.000  O
  O44      1.0000 0.87638  0.93124  0.62790  Biso   1.000  O
  H73      1.0000 0.88130  0.57040  0.19040  Biso   1.000  H
  H74      1.0000 0.11870  0.07040  0.30960  Biso   1.000  H
  H75      1.0000 0.11870  0.42960  0.80960  Biso   1.000  H
  H76      1.0000 0.88130  0.92960  0.69040  Biso   1.000  H
  H77      1.0000 0.95260  0.55160  0.11160  Biso   1.000  H
  H78      1.0000 0.04740  0.05160  0.38840  Biso   1.000  H
  H79      1.0000 0.04740  0.44840  0.88840  Biso   1.000  H
  H80      1.0000 0.95260  0.94840  0.61160  Biso   1.000  H
  O45      1.0000 0.11147  0.81128  0.24842  Biso   1.000  O
  O46      1.0000 0.88853  0.31128  0.25158  Biso   1.000  O
  O47      1.0000 0.88853  0.18872  0.75158  Biso   1.000  O
  O48      1.0000 0.11147  0.68872  0.74842  Biso   1.000  O
  H81      1.0000 0.04190  0.78870  0.22610  Biso   1.000  H
  H82      1.0000 0.95810  0.28870  0.27390  Biso   1.000  H
  H83      1.0000 0.95810  0.21130  0.77390  Biso   1.000  H
  H84      1.0000 0.04190  0.71130  0.72610  Biso   1.000  H
  H85      1.0000 0.05210  0.83690  0.24980  Biso   1.000  H
  H86      1.0000 0.94790  0.33690  0.25020  Biso   1.000  H
  H87      1.0000 0.94790  0.16310  0.75020  Biso   1.000  H
  H88      1.0000 0.05210  0.66310  0.74980  Biso   1.000  H
  O49      1.0000 0.12471  0.56395  0.45987  Biso   1.000  O
  O50      1.0000 0.87529  0.06395  0.04013  Biso   1.000  O
  O51      1.0000 0.87529  0.43605  0.54013  Biso   1.000  O
  O52      1.0000 0.12471  0.93605  0.95987  Biso   1.000  O
  H89      1.0000 0.06440  0.58660  0.43060  Biso   1.000  H
  H90      1.0000 0.93560  0.08660  0.06940  Biso   1.000  H
  H91      1.0000 0.93560  0.41340  0.56940  Biso   1.000  H
  H92      1.0000 0.06440  0.91340  0.93060  Biso   1.000  H
  H93      1.0000 0.08600  0.53710  0.43750  Biso   1.000  H
  H94      1.0000 0.91400  0.03710  0.06250  Biso   1.000  H
  H95      1.0000 0.91400  0.46290  0.56250  Biso   1.000  H
  H96      1.0000 0.08600  0.96290  0.93750  Biso   1.000  H
  O53      1.0000 0.84324  0.54550  0.57140  Biso   1.000  O
  O54      1.0000 0.15676  0.04550  0.92860  Biso   1.000  O
  O55      1.0000 0.15676  0.45450  0.42860  Biso   1.000  O
  O56      1.0000 0.84324  0.95450  0.07140  Biso   1.000  O
  H97      1.0000 0.83430  0.57400  0.59570  Biso   1.000  H
  H98      1.0000 0.16570  0.07400  0.90430  Biso   1.000  H
  H99      1.0000 0.16570  0.42600  0.40430  Biso   1.000  H
  H100     1.0000 0.83430  0.92600  0.09570  Biso   1.000  H
  H101     1.0000 0.91930  0.52610  0.60230  Biso   1.000  H
  H102     1.0000 0.08070  0.02610  0.89770  Biso   1.000  H
  H103     1.0000 0.08070  0.47390  0.39770  Biso   1.000  H
  H104     1.0000 0.91930  0.97390  0.10230  Biso   1.000  H
