data_image0
_cell_length_a       7.29
_cell_length_b       11.578
_cell_length_c       10.846
_cell_angle_alpha    90
_cell_angle_beta     103.75
_cell_angle_gamma    90

_symmetry_space_group_name_H-M    "P 1"
_symmetry_int_tables_number       1

loop_
  _symmetry_equiv_pos_as_xyz
  'x, y, z'

loop_
  _atom_site_label
  _atom_site_occupancy
  _atom_site_fract_x
  _atom_site_fract_y
  _atom_site_fract_z
  _atom_site_thermal_displace_type
  _atom_site_B_iso_or_equiv
  _atom_site_type_symbol
  Cu1      1.0000 0.00000  0.00000  0.00000  Biso   1.000  Cu
  Cu2      1.0000 0.50000  0.50000  0.50000  Biso   1.000  Cu
  O1       1.0000 0.98830  0.36800  0.22980  Biso   1.000  O
  O2       1.0000 0.51170  0.86800  0.27020  Biso   1.000  O
  O3       1.0000 0.01170  0.63200  0.77020  Biso   1.000  O
  O4       1.0000 0.48830  0.13200  0.72980  Biso   1.000  O
  H1       1.0000 0.08700  0.36500  0.28600  Biso   1.000  H
  H2       1.0000 0.41300  0.86500  0.21400  Biso   1.000  H
  H3       1.0000 0.91300  0.63500  0.71400  Biso   1.000  H
  H4       1.0000 0.58700  0.13500  0.78600  Biso   1.000  H
  H5       1.0000 0.99600  0.33300  0.16700  Biso   1.000  H
  H6       1.0000 0.50400  0.83300  0.33300  Biso   1.000  H
  H7       1.0000 0.00400  0.66700  0.83300  Biso   1.000  H
  H8       1.0000 0.49600  0.16700  0.66700  Biso   1.000  H
  O5       1.0000 0.95270  0.03520  0.17300  Biso   1.000  O
  O6       1.0000 0.54730  0.53520  0.32700  Biso   1.000  O
  O7       1.0000 0.04730  0.96480  0.82700  Biso   1.000  O
  O8       1.0000 0.45270  0.46480  0.67300  Biso   1.000  O
  O9       1.0000 0.08740  0.10790  0.36230  Biso   1.000  O
  O10      1.0000 0.41260  0.60790  0.13770  Biso   1.000  O
  O11      1.0000 0.91260  0.89210  0.63770  Biso   1.000  O
  O12      1.0000 0.58740  0.39210  0.86230  Biso   1.000  O
  O13      1.0000 0.74670  0.02460  0.42070  Biso   1.000  O
  O14      1.0000 0.75330  0.52460  0.07930  Biso   1.000  O
  O15      1.0000 0.25330  0.97540  0.57930  Biso   1.000  O
  O16      1.0000 0.24670  0.47540  0.92070  Biso   1.000  O
  H9       1.0000 0.66800  0.97830  0.35440  Biso   1.000  H
  H10      1.0000 0.83200  0.47830  0.14560  Biso   1.000  H
  H11      1.0000 0.33200  0.02170  0.64560  Biso   1.000  H
  H12      1.0000 0.16800  0.52170  0.85440  Biso   1.000  H
  H13      1.0000 0.83880  0.06100  0.38240  Biso   1.000  H
  H14      1.0000 0.66120  0.56100  0.11760  Biso   1.000  H
  H15      1.0000 0.16120  0.93900  0.61760  Biso   1.000  H
  H16      1.0000 0.33880  0.43900  0.88240  Biso   1.000  H
  O17      1.0000 0.33630  0.34310  0.40640  Biso   1.000  O
  O18      1.0000 0.16370  0.84310  0.09360  Biso   1.000  O
  O19      1.0000 0.66370  0.65690  0.59360  Biso   1.000  O
  O20      1.0000 0.83630  0.15690  0.90640  Biso   1.000  O
  O21      1.0000 0.50320  0.18640  0.48410  Biso   1.000  O
  O22      1.0000 0.99680  0.68640  0.01590  Biso   1.000  O
  O23      1.0000 0.49680  0.81360  0.51590  Biso   1.000  O
  O24      1.0000 0.00320  0.31360  0.98410  Biso   1.000  O
  H17      1.0000 0.49800  0.19900  0.47100  Biso   1.000  H
  H18      1.0000 0.00200  0.69900  0.02900  Biso   1.000  H
  H19      1.0000 0.50200  0.80100  0.52900  Biso   1.000  H
  H20      1.0000 0.99800  0.30100  0.97100  Biso   1.000  H
  N1       1.0000 0.23870  0.09440  0.07710  Biso   1.000  N
  N2       1.0000 0.26130  0.59440  0.42290  Biso   1.000  N
  N3       1.0000 0.76130  0.90560  0.92290  Biso   1.000  N
  N4       1.0000 0.73870  0.40560  0.57710  Biso   1.000  N
  C1       1.0000 0.24530  0.13050  0.19640  Biso   1.000  C
  C2       1.0000 0.25470  0.63050  0.30360  Biso   1.000  C
  C3       1.0000 0.75470  0.86950  0.80360  Biso   1.000  C
  C4       1.0000 0.74530  0.36950  0.69640  Biso   1.000  C
  C5       1.0000 0.38960  0.20140  0.26160  Biso   1.000  C
  C6       1.0000 0.11040  0.70140  0.23840  Biso   1.000  C
  C7       1.0000 0.61040  0.79860  0.73840  Biso   1.000  C
  C8       1.0000 0.88960  0.29860  0.76160  Biso   1.000  C
  C9       1.0000 0.52820  0.23420  0.20060  Biso   1.000  C
  C10      1.0000 0.97180  0.73420  0.29940  Biso   1.000  C
  C11      1.0000 0.47180  0.76580  0.79940  Biso   1.000  C
  C12      1.0000 0.02820  0.26580  0.70060  Biso   1.000  C
  H21      1.0000 0.62560  0.28250  0.24140  Biso   1.000  H
  H22      1.0000 0.87440  0.78250  0.25860  Biso   1.000  H
  H23      1.0000 0.37440  0.71750  0.75860  Biso   1.000  H
  H24      1.0000 0.12560  0.21750  0.74140  Biso   1.000  H
  C13      1.0000 0.52200  0.19530  0.07930  Biso   1.000  C
  C14      1.0000 0.97800  0.69530  0.42070  Biso   1.000  C
  C15      1.0000 0.47800  0.80470  0.92070  Biso   1.000  C
  C16      1.0000 0.02200  0.30470  0.57930  Biso   1.000  C
  H25      1.0000 0.61550  0.21580  0.03810  Biso   1.000  H
  H26      1.0000 0.88450  0.71580  0.46190  Biso   1.000  H
  H27      1.0000 0.38450  0.78420  0.96190  Biso   1.000  H
  H28      1.0000 0.11550  0.28420  0.53810  Biso   1.000  H
  C17      1.0000 0.37380  0.12510  0.02040  Biso   1.000  C
  C18      1.0000 0.12620  0.62510  0.47960  Biso   1.000  C
  C19      1.0000 0.62620  0.87490  0.97960  Biso   1.000  C
  C20      1.0000 0.87380  0.37490  0.52040  Biso   1.000  C
  H29      1.0000 0.36850  0.09860  0.93870  Biso   1.000  H
  H30      1.0000 0.13150  0.59860  0.56130  Biso   1.000  H
  H31      1.0000 0.63150  0.90140  0.06130  Biso   1.000  H
  H32      1.0000 0.86850  0.40140  0.43870  Biso   1.000  H
  C21      1.0000 0.40720  0.24620  0.39610  Biso   1.000  C
  C22      1.0000 0.09280  0.74620  0.10390  Biso   1.000  C
  C23      1.0000 0.59280  0.75380  0.60390  Biso   1.000  C
  C24      1.0000 0.90720  0.25380  0.89610  Biso   1.000  C
  C25      1.0000 0.08220  0.08820  0.24830  Biso   1.000  C
  C26      1.0000 0.41780  0.58820  0.25170  Biso   1.000  C
  C27      1.0000 0.91780  0.91180  0.75170  Biso   1.000  C
  C28      1.0000 0.58220  0.41180  0.74830  Biso   1.000  C
