data_image0
_cell_length_a       11.442
_cell_length_b       6.604
_cell_length_c       23.618
_cell_angle_alpha    90
_cell_angle_beta     104.377
_cell_angle_gamma    90

_symmetry_space_group_name_H-M    "P 1"
_symmetry_int_tables_number       1

loop_
  _symmetry_equiv_pos_as_xyz
  'x, y, z'

loop_
  _atom_site_label
  _atom_site_occupancy
  _atom_site_fract_x
  _atom_site_fract_y
  _atom_site_fract_z
  _atom_site_thermal_displace_type
  _atom_site_B_iso_or_equiv
  _atom_site_type_symbol
  Cu1      1.0000 0.00000  0.00000  0.00000  Biso   1.000  Cu
  Cu2      1.0000 0.00000  0.50000  0.50000  Biso   1.000  Cu
  O1       1.0000 0.08365  0.17070  0.95416  Biso   1.000  O
  O2       1.0000 0.91635  0.67070  0.54584  Biso   1.000  O
  O3       1.0000 0.91635  0.82930  0.04584  Biso   1.000  O
  O4       1.0000 0.08365  0.32930  0.45416  Biso   1.000  O
  O5       1.0000 0.21050  0.43170  0.96307  Biso   1.000  O
  O6       1.0000 0.78950  0.93170  0.53693  Biso   1.000  O
  O7       1.0000 0.78950  0.56830  0.03693  Biso   1.000  O
  O8       1.0000 0.21050  0.06830  0.46307  Biso   1.000  O
  O9       1.0000 0.20192  0.83150  0.03067  Biso   1.000  O
  O10      1.0000 0.79808  0.33150  0.46933  Biso   1.000  O
  O11      1.0000 0.79808  0.16850  0.96933  Biso   1.000  O
  O12      1.0000 0.20192  0.66850  0.53067  Biso   1.000  O
  H1       1.0000 0.16470  0.88350  0.04690  Biso   1.000  H
  H2       1.0000 0.83530  0.38350  0.45310  Biso   1.000  H
  H3       1.0000 0.83530  0.11650  0.95310  Biso   1.000  H
  H4       1.0000 0.16470  0.61650  0.54690  Biso   1.000  H
  O13      1.0000 0.35912  0.64950  0.07457  Biso   1.000  O
  O14      1.0000 0.64088  0.14950  0.42543  Biso   1.000  O
  O15      1.0000 0.64088  0.35050  0.92543  Biso   1.000  O
  O16      1.0000 0.35912  0.85050  0.57457  Biso   1.000  O
  N1       1.0000 0.05385  0.21550  0.05913  Biso   1.000  N
  N2       1.0000 0.94615  0.71550  0.44087  Biso   1.000  N
  N3       1.0000 0.94615  0.78450  0.94087  Biso   1.000  N
  N4       1.0000 0.05385  0.28450  0.55913  Biso   1.000  N
  N5       1.0000 0.65240  0.11840  0.04277  Biso   1.000  N
  N6       1.0000 0.34760  0.61840  0.45723  Biso   1.000  N
  N7       1.0000 0.34760  0.88160  0.95723  Biso   1.000  N
  N8       1.0000 0.65240  0.38160  0.54277  Biso   1.000  N
  N9       1.0000 0.37880  0.07610  0.27802  Biso   1.000  N
  N10      1.0000 0.62120  0.57610  0.22198  Biso   1.000  N
  N11      1.0000 0.62120  0.92390  0.72198  Biso   1.000  N
  N12      1.0000 0.37880  0.42390  0.77802  Biso   1.000  N
  C1       1.0000 0.12130  0.35940  0.04169  Biso   1.000  C
  C2       1.0000 0.87870  0.85940  0.45831  Biso   1.000  C
  C3       1.0000 0.87870  0.64060  0.95831  Biso   1.000  C
  C4       1.0000 0.12130  0.14060  0.54169  Biso   1.000  C
  C5       1.0000 0.16740  0.52320  0.07615  Biso   1.000  C
  C6       1.0000 0.83260  0.02320  0.42385  Biso   1.000  C
  C7       1.0000 0.83260  0.47680  0.92385  Biso   1.000  C
  C8       1.0000 0.16740  0.97680  0.57615  Biso   1.000  C
  C9       1.0000 0.13970  0.53780  0.13046  Biso   1.000  C
  C10      1.0000 0.86030  0.03780  0.36954  Biso   1.000  C
  C11      1.0000 0.86030  0.46220  0.86954  Biso   1.000  C
  C12      1.0000 0.13970  0.96220  0.63046  Biso   1.000  C
  H5       1.0000 0.16820  0.64690  0.15490  Biso   1.000  H
  H6       1.0000 0.83180  0.14690  0.34510  Biso   1.000  H
  H7       1.0000 0.83180  0.35310  0.84510  Biso   1.000  H
  H8       1.0000 0.16820  0.85310  0.65490  Biso   1.000  H
  C13      1.0000 0.07050  0.39150  0.14793  Biso   1.000  C
  C14      1.0000 0.92950  0.89150  0.35207  Biso   1.000  C
  C15      1.0000 0.92950  0.60850  0.85207  Biso   1.000  C
  C16      1.0000 0.07050  0.10850  0.64793  Biso   1.000  C
  H9       1.0000 0.05220  0.40110  0.18410  Biso   1.000  H
  H10      1.0000 0.94780  0.90110  0.31590  Biso   1.000  H
  H11      1.0000 0.94780  0.59890  0.81590  Biso   1.000  H
  H12      1.0000 0.05220  0.09890  0.68410  Biso   1.000  H
  C17      1.0000 0.02860  0.23070  0.11142  Biso   1.000  C
  C18      1.0000 0.97140  0.73070  0.38858  Biso   1.000  C
  C19      1.0000 0.97140  0.76930  0.88858  Biso   1.000  C
  C20      1.0000 0.02860  0.26930  0.61142  Biso   1.000  C
  H13      1.0000 0.98210  0.13130  0.12320  Biso   1.000  H
  H14      1.0000 0.01790  0.63130  0.37680  Biso   1.000  H
  H15      1.0000 0.01790  0.86870  0.87680  Biso   1.000  H
  H16      1.0000 0.98210  0.36870  0.62320  Biso   1.000  H
  C21      1.0000 0.14100  0.32070  0.98139  Biso   1.000  C
  C22      1.0000 0.85900  0.82070  0.51861  Biso   1.000  C
  C23      1.0000 0.85900  0.67930  0.01861  Biso   1.000  C
  C24      1.0000 0.14100  0.17930  0.48139  Biso   1.000  C
  C25      1.0000 0.24970  0.67940  0.05879  Biso   1.000  C
  C26      1.0000 0.75030  0.17940  0.44121  Biso   1.000  C
  C27      1.0000 0.75030  0.32060  0.94121  Biso   1.000  C
  C28      1.0000 0.24970  0.82060  0.55879  Biso   1.000  C
  C29      1.0000 0.55020  0.22260  0.03718  Biso   1.000  C
  C30      1.0000 0.44980  0.72260  0.46282  Biso   1.000  C
  C31      1.0000 0.44980  0.77740  0.96282  Biso   1.000  C
  C32      1.0000 0.55020  0.27740  0.53718  Biso   1.000  C
  H17      1.0000 0.52070  0.30080  0.00400  Biso   1.000  H
  H18      1.0000 0.47930  0.80080  0.49600  Biso   1.000  H
  H19      1.0000 0.47930  0.69920  0.99600  Biso   1.000  H
  H20      1.0000 0.52070  0.19920  0.50400  Biso   1.000  H
  C33      1.0000 0.48610  0.21520  0.08165  Biso   1.000  C
  C34      1.0000 0.51390  0.71520  0.41835  Biso   1.000  C
  C35      1.0000 0.51390  0.78480  0.91835  Biso   1.000  C
  C36      1.0000 0.48610  0.28480  0.58165  Biso   1.000  C
  H21      1.0000 0.41470  0.28690  0.07820  Biso   1.000  H
  H22      1.0000 0.58530  0.78690  0.42180  Biso   1.000  H
  H23      1.0000 0.58530  0.71310  0.92180  Biso   1.000  H
  H24      1.0000 0.41470  0.21310  0.57820  Biso   1.000  H
  C37      1.0000 0.35490  0.07950  0.17424  Biso   1.000  C
  C38      1.0000 0.64510  0.57950  0.32576  Biso   1.000  C
  C39      1.0000 0.64510  0.92050  0.82576  Biso   1.000  C
  C40      1.0000 0.35490  0.42050  0.67424  Biso   1.000  C
  H25      1.0000 0.30250  0.07860  0.13720  Biso   1.000  H
  H26      1.0000 0.69750  0.57860  0.36280  Biso   1.000  H
  H27      1.0000 0.69750  0.92140  0.86280  Biso   1.000  H
  H28      1.0000 0.30250  0.42140  0.63720  Biso   1.000  H
  C41      1.0000 0.30990  0.07280  0.22379  Biso   1.000  C
  C42      1.0000 0.69010  0.57280  0.27621  Biso   1.000  C
  C43      1.0000 0.69010  0.92720  0.77621  Biso   1.000  C
  C44      1.0000 0.30990  0.42720  0.72379  Biso   1.000  C
  H29      1.0000 0.22680  0.06550  0.21860  Biso   1.000  H
  H30      1.0000 0.77320  0.56550  0.28140  Biso   1.000  H
  H31      1.0000 0.77320  0.93450  0.78140  Biso   1.000  H
  H32      1.0000 0.22680  0.43450  0.71860  Biso   1.000  H
  C45      1.0000 0.49700  0.08350  0.28379  Biso   1.000  C
  C46      1.0000 0.50300  0.58350  0.21621  Biso   1.000  C
  C47      1.0000 0.50300  0.91650  0.71621  Biso   1.000  C
  C48      1.0000 0.49700  0.41650  0.78379  Biso   1.000  C
  H33      1.0000 0.54710  0.08540  0.32140  Biso   1.000  H
  H34      1.0000 0.45290  0.58540  0.17860  Biso   1.000  H
  H35      1.0000 0.45290  0.91460  0.67860  Biso   1.000  H
  H36      1.0000 0.54710  0.41460  0.82140  Biso   1.000  H
  C49      1.0000 0.55040  0.08870  0.23714  Biso   1.000  C
  C50      1.0000 0.44960  0.58870  0.26286  Biso   1.000  C
  C51      1.0000 0.44960  0.91130  0.76286  Biso   1.000  C
  C52      1.0000 0.55040  0.41130  0.73714  Biso   1.000  C
  H37      1.0000 0.63400  0.09300  0.24380  Biso   1.000  H
  H38      1.0000 0.36600  0.59300  0.25620  Biso   1.000  H
  H39      1.0000 0.36600  0.90700  0.75620  Biso   1.000  H
  H40      1.0000 0.63400  0.40700  0.74380  Biso   1.000  H
  C53      1.0000 0.64040  0.99230  0.13203  Biso   1.000  C
  C54      1.0000 0.35960  0.49230  0.36797  Biso   1.000  C
  C55      1.0000 0.35960  0.00770  0.86797  Biso   1.000  C
  C56      1.0000 0.64040  0.50770  0.63203  Biso   1.000  C
  H41      1.0000 0.67350  0.91180  0.16430  Biso   1.000  H
  H42      1.0000 0.32650  0.41180  0.33570  Biso   1.000  H
  H43      1.0000 0.32650  0.08820  0.83570  Biso   1.000  H
  H44      1.0000 0.67350  0.58820  0.66430  Biso   1.000  H
  C57      1.0000 0.69740  0.00430  0.08779  Biso   1.000  C
  C58      1.0000 0.30260  0.50430  0.41221  Biso   1.000  C
  C59      1.0000 0.30260  0.99570  0.91221  Biso   1.000  C
  C60      1.0000 0.69740  0.49570  0.58779  Biso   1.000  C
  H45      1.0000 0.76790  0.93150  0.08980  Biso   1.000  H
  H46      1.0000 0.23210  0.43150  0.41020  Biso   1.000  H
  H47      1.0000 0.23210  0.06850  0.91020  Biso   1.000  H
  H48      1.0000 0.76790  0.56850  0.58980  Biso   1.000  H
  C61      1.0000 0.53400  0.09730  0.13007  Biso   1.000  C
  C62      1.0000 0.46600  0.59730  0.36993  Biso   1.000  C
  C63      1.0000 0.46600  0.90270  0.86993  Biso   1.000  C
  C64      1.0000 0.53400  0.40270  0.63007  Biso   1.000  C
  C65      1.0000 0.47810  0.08750  0.18060  Biso   1.000  C
  C66      1.0000 0.52190  0.58750  0.31940  Biso   1.000  C
  C67      1.0000 0.52190  0.91250  0.81940  Biso   1.000  C
  C68      1.0000 0.47810  0.41250  0.68060  Biso   1.000  C
  O17      1.0000 0.14140  0.70360  0.26712  Biso   1.000  O
  O18      1.0000 0.85860  0.20360  0.23288  Biso   1.000  O
  O19      1.0000 0.85860  0.29640  0.73288  Biso   1.000  O
  O20      1.0000 0.14140  0.79640  0.76712  Biso   1.000  O
  H49      1.0000 0.11720  0.59420  0.28110  Biso   1.000  H
  H50      1.0000 0.88280  0.09420  0.21890  Biso   1.000  H
  H51      1.0000 0.88280  0.40580  0.71890  Biso   1.000  H
  H52      1.0000 0.11720  0.90580  0.78110  Biso   1.000  H
  H53      1.0000 0.16160  0.79470  0.29800  Biso   1.000  H
  H54      1.0000 0.83840  0.29470  0.20200  Biso   1.000  H
  H55      1.0000 0.83840  0.20530  0.70200  Biso   1.000  H
  H56      1.0000 0.16160  0.70530  0.79800  Biso   1.000  H
  O21      1.0000 0.06580  0.34860  0.30373  Biso   1.000  O
  O22      1.0000 0.93420  0.84860  0.19627  Biso   1.000  O
  O23      1.0000 0.93420  0.65140  0.69627  Biso   1.000  O
  O24      1.0000 0.06580  0.15140  0.80373  Biso   1.000  O
  H57      1.0000 0.10610  0.24520  0.32140  Biso   1.000  H
  H58      1.0000 0.89390  0.74520  0.17860  Biso   1.000  H
  H59      1.0000 0.89390  0.75480  0.67860  Biso   1.000  H
  H60      1.0000 0.10610  0.25480  0.82140  Biso   1.000  H
  H61      1.0000 0.99640  0.31150  0.28380  Biso   1.000  H
  H62      1.0000 0.00360  0.81150  0.21620  Biso   1.000  H
  H63      1.0000 0.00360  0.68850  0.71620  Biso   1.000  H
  H64      1.0000 0.99640  0.18850  0.78380  Biso   1.000  H
  O25      1.0000 0.21460  0.01030  0.34874  Biso   1.000  O
  O26      1.0000 0.78540  0.51030  0.15126  Biso   1.000  O
  O27      1.0000 0.78540  0.98970  0.65126  Biso   1.000  O
  O28      1.0000 0.21460  0.48970  0.84874  Biso   1.000  O
  H65      1.0000 0.28340  0.05230  0.34000  Biso   1.000  H
  H66      1.0000 0.71660  0.55230  0.16000  Biso   1.000  H
  H67      1.0000 0.71660  0.94770  0.66000  Biso   1.000  H
  H68      1.0000 0.28340  0.44770  0.84000  Biso   1.000  H
  H69      1.0000 0.21620  0.03650  0.38330  Biso   1.000  H
  H70      1.0000 0.78380  0.53650  0.11670  Biso   1.000  H
  H71      1.0000 0.78380  0.96350  0.61670  Biso   1.000  H
  H72      1.0000 0.21620  0.46350  0.88330  Biso   1.000  H
