data_image0
_cell_length_a       7.761
_cell_length_b       27.434
_cell_length_c       13.238
_cell_angle_alpha    90
_cell_angle_beta     100.775
_cell_angle_gamma    90

_symmetry_space_group_name_H-M    "P 1"
_symmetry_int_tables_number       1

loop_
  _symmetry_equiv_pos_as_xyz
  'x, y, z'

loop_
  _atom_site_label
  _atom_site_occupancy
  _atom_site_fract_x
  _atom_site_fract_y
  _atom_site_fract_z
  _atom_site_thermal_displace_type
  _atom_site_B_iso_or_equiv
  _atom_site_type_symbol
  Cu1      1.0000 0.50252  0.56086  0.29114  Biso   1.000  Cu
  Cu2      1.0000 0.49748  0.06086  0.20886  Biso   1.000  Cu
  Cu3      1.0000 0.49748  0.43914  0.70886  Biso   1.000  Cu
  Cu4      1.0000 0.50252  0.93914  0.79114  Biso   1.000  Cu
  Cu5      1.0000 0.97432  0.81487  0.43067  Biso   1.000  Cu
  Cu6      1.0000 0.02568  0.31487  0.06933  Biso   1.000  Cu
  Cu7      1.0000 0.02568  0.18513  0.56933  Biso   1.000  Cu
  Cu8      1.0000 0.97432  0.68513  0.93067  Biso   1.000  Cu
  O1       1.0000 0.26150  0.54287  0.24220  Biso   1.000  O
  O2       1.0000 0.73850  0.04287  0.25780  Biso   1.000  O
  O3       1.0000 0.73850  0.45713  0.75780  Biso   1.000  O
  O4       1.0000 0.26150  0.95713  0.74220  Biso   1.000  O
  O5       1.0000 0.09840  0.48239  0.16930  Biso   1.000  O
  O6       1.0000 0.90160  0.98239  0.33070  Biso   1.000  O
  O7       1.0000 0.90160  0.51761  0.83070  Biso   1.000  O
  O8       1.0000 0.09840  0.01761  0.66930  Biso   1.000  O
  O9       1.0000 0.20670  0.36309  0.12408  Biso   1.000  O
  O10      1.0000 0.79330  0.86309  0.37592  Biso   1.000  O
  O11      1.0000 0.79330  0.63691  0.87592  Biso   1.000  O
  O12      1.0000 0.20670  0.13691  0.62408  Biso   1.000  O
  O13      1.0000 0.13430  0.38436  0.27270  Biso   1.000  O
  O14      1.0000 0.86570  0.88436  0.22730  Biso   1.000  O
  O15      1.0000 0.86570  0.61564  0.72730  Biso   1.000  O
  O16      1.0000 0.13430  0.11564  0.77270  Biso   1.000  O
  O17      1.0000 0.74630  0.58060  0.31460  Biso   1.000  O
  O18      1.0000 0.25370  0.08060  0.18540  Biso   1.000  O
  O19      1.0000 0.25370  0.41940  0.68540  Biso   1.000  O
  O20      1.0000 0.74630  0.91940  0.81460  Biso   1.000  O
  O21      1.0000 0.91670  0.64574  0.35170  Biso   1.000  O
  O22      1.0000 0.08330  0.14574  0.14830  Biso   1.000  O
  O23      1.0000 0.08330  0.35426  0.64830  Biso   1.000  O
  O24      1.0000 0.91670  0.85426  0.85170  Biso   1.000  O
  O25      1.0000 0.80140  0.76293  0.39444  Biso   1.000  O
  O26      1.0000 0.19860  0.26293  0.10556  Biso   1.000  O
  O27      1.0000 0.19860  0.23707  0.60556  Biso   1.000  O
  O28      1.0000 0.80140  0.73707  0.89444  Biso   1.000  O
  O29      1.0000 0.85190  0.74120  0.24010  Biso   1.000  O
  O30      1.0000 0.14810  0.24120  0.25990  Biso   1.000  O
  O31      1.0000 0.14810  0.25880  0.75990  Biso   1.000  O
  O32      1.0000 0.85190  0.75880  0.74010  Biso   1.000  O
  O33      1.0000 0.49790  0.55461  0.46060  Biso   1.000  O
  O34      1.0000 0.50210  0.05461  0.03940  Biso   1.000  O
  O35      1.0000 0.50210  0.44539  0.53940  Biso   1.000  O
  O36      1.0000 0.49790  0.94539  0.96060  Biso   1.000  O
  H1       1.0000 0.58600  0.55400  0.50100  Biso   1.000  H
  H2       1.0000 0.41400  0.05400  0.99900  Biso   1.000  H
  H3       1.0000 0.41400  0.44600  0.49900  Biso   1.000  H
  H4       1.0000 0.58600  0.94600  0.00100  Biso   1.000  H
  H5       1.0000 0.42500  0.55500  0.49200  Biso   1.000  H
  H6       1.0000 0.57500  0.05500  0.00800  Biso   1.000  H
  H7       1.0000 0.57500  0.44500  0.50800  Biso   1.000  H
  H8       1.0000 0.42500  0.94500  0.99200  Biso   1.000  H
  O37      1.0000 0.89560  0.82837  0.59020  Biso   1.000  O
  O38      1.0000 0.10440  0.32837  0.90980  Biso   1.000  O
  O39      1.0000 0.10440  0.17163  0.40980  Biso   1.000  O
  O40      1.0000 0.89560  0.67163  0.09020  Biso   1.000  O
  H9       1.0000 0.90200  0.85660  0.60800  Biso   1.000  H
  H10      1.0000 0.09800  0.35660  0.89200  Biso   1.000  H
  H11      1.0000 0.09800  0.14340  0.39200  Biso   1.000  H
  H12      1.0000 0.90200  0.64340  0.10800  Biso   1.000  H
  H13      1.0000 0.88300  0.81310  0.64000  Biso   1.000  H
  H14      1.0000 0.11700  0.31310  0.86000  Biso   1.000  H
  H15      1.0000 0.11700  0.18690  0.36000  Biso   1.000  H
  H16      1.0000 0.88300  0.68690  0.14000  Biso   1.000  H
  N1       1.0000 0.54690  0.49118  0.26960  Biso   1.000  N
  N2       1.0000 0.45310  0.99118  0.23040  Biso   1.000  N
  N3       1.0000 0.45310  0.50882  0.73040  Biso   1.000  N
  N4       1.0000 0.54690  0.00882  0.76960  Biso   1.000  N
  N5       1.0000 0.46000  0.63154  0.28360  Biso   1.000  N
  N6       1.0000 0.54000  0.13154  0.21640  Biso   1.000  N
  N7       1.0000 0.54000  0.36846  0.71640  Biso   1.000  N
  N8       1.0000 0.46000  0.86846  0.78360  Biso   1.000  N
  N9       1.0000 0.17330  0.76916  0.48180  Biso   1.000  N
  N10      1.0000 0.82670  0.26916  0.01820  Biso   1.000  N
  N11      1.0000 0.82670  0.23084  0.51820  Biso   1.000  N
  N12      1.0000 0.17330  0.73084  0.98180  Biso   1.000  N
  N13      1.0000 0.16770  0.86351  0.46610  Biso   1.000  N
  N14      1.0000 0.83230  0.36351  0.03390  Biso   1.000  N
  N15      1.0000 0.83230  0.13649  0.53390  Biso   1.000  N
  N16      1.0000 0.16770  0.63649  0.96610  Biso   1.000  N
  C1       1.0000 0.39650  0.46595  0.23980  Biso   1.000  C
  C2       1.0000 0.60350  0.96595  0.26020  Biso   1.000  C
  C3       1.0000 0.60350  0.53405  0.76020  Biso   1.000  C
  C4       1.0000 0.39650  0.03405  0.73980  Biso   1.000  C
  C5       1.0000 0.39570  0.41576  0.23130  Biso   1.000  C
  C6       1.0000 0.60430  0.91576  0.26870  Biso   1.000  C
  C7       1.0000 0.60430  0.58424  0.76870  Biso   1.000  C
  C8       1.0000 0.39570  0.08424  0.73130  Biso   1.000  C
  C9       1.0000 0.55610  0.39201  0.25210  Biso   1.000  C
  C10      1.0000 0.44390  0.89201  0.24790  Biso   1.000  C
  C11      1.0000 0.44390  0.60799  0.74790  Biso   1.000  C
  C12      1.0000 0.55610  0.10799  0.75210  Biso   1.000  C
  H17      1.0000 0.56050  0.35830  0.24600  Biso   1.000  H
  H18      1.0000 0.43950  0.85830  0.25400  Biso   1.000  H
  H19      1.0000 0.43950  0.64170  0.75400  Biso   1.000  H
  H20      1.0000 0.56050  0.14170  0.74600  Biso   1.000  H
  C13      1.0000 0.70810  0.41790  0.28140  Biso   1.000  C
  C14      1.0000 0.29190  0.91790  0.21860  Biso   1.000  C
  C15      1.0000 0.29190  0.58210  0.71860  Biso   1.000  C
  C16      1.0000 0.70810  0.08210  0.78140  Biso   1.000  C
  H21      1.0000 0.81580  0.40200  0.29500  Biso   1.000  H
  H22      1.0000 0.18420  0.90200  0.20500  Biso   1.000  H
  H23      1.0000 0.18420  0.59800  0.70500  Biso   1.000  H
  H24      1.0000 0.81580  0.09800  0.79500  Biso   1.000  H
  C17      1.0000 0.69930  0.46799  0.29060  Biso   1.000  C
  C18      1.0000 0.30070  0.96799  0.20940  Biso   1.000  C
  C19      1.0000 0.30070  0.53201  0.70940  Biso   1.000  C
  C20      1.0000 0.69930  0.03201  0.79060  Biso   1.000  C
  H25      1.0000 0.80180  0.48570  0.31170  Biso   1.000  H
  H26      1.0000 0.19820  0.98570  0.18830  Biso   1.000  H
  H27      1.0000 0.19820  0.51430  0.68830  Biso   1.000  H
  H28      1.0000 0.80180  0.01430  0.81170  Biso   1.000  H
  C21      1.0000 0.23680  0.49853  0.21460  Biso   1.000  C
  C22      1.0000 0.76320  0.99853  0.28540  Biso   1.000  C
  C23      1.0000 0.76320  0.50147  0.78540  Biso   1.000  C
  C24      1.0000 0.23680  0.00147  0.71460  Biso   1.000  C
  C25      1.0000 0.22880  0.38587  0.20690  Biso   1.000  C
  C26      1.0000 0.77120  0.88587  0.29310  Biso   1.000  C
  C27      1.0000 0.77120  0.61413  0.79310  Biso   1.000  C
  C28      1.0000 0.22880  0.11413  0.70690  Biso   1.000  C
  C29      1.0000 0.60920  0.65757  0.30170  Biso   1.000  C
  C30      1.0000 0.39080  0.15757  0.19830  Biso   1.000  C
  C31      1.0000 0.39080  0.34243  0.69830  Biso   1.000  C
  C32      1.0000 0.60920  0.84243  0.80170  Biso   1.000  C
  C33      1.0000 0.60710  0.70825  0.29790  Biso   1.000  C
  C34      1.0000 0.39290  0.20825  0.20210  Biso   1.000  C
  C35      1.0000 0.39290  0.29175  0.70210  Biso   1.000  C
  C36      1.0000 0.60710  0.79175  0.79790  Biso   1.000  C
  C37      1.0000 0.44340  0.73093  0.27740  Biso   1.000  C
  C38      1.0000 0.55660  0.23093  0.22260  Biso   1.000  C
  C39      1.0000 0.55660  0.26907  0.72260  Biso   1.000  C
  C40      1.0000 0.44340  0.76907  0.77740  Biso   1.000  C
  H29      1.0000 0.43640  0.76480  0.27560  Biso   1.000  H
  H30      1.0000 0.56360  0.26480  0.22440  Biso   1.000  H
  H31      1.0000 0.56360  0.23520  0.72440  Biso   1.000  H
  H32      1.0000 0.43640  0.73520  0.77560  Biso   1.000  H
  C41      1.0000 0.29370  0.70375  0.25990  Biso   1.000  C
  C42      1.0000 0.70630  0.20375  0.24010  Biso   1.000  C
  C43      1.0000 0.70630  0.29625  0.74010  Biso   1.000  C
  C44      1.0000 0.29370  0.79625  0.75990  Biso   1.000  C
  H33      1.0000 0.18470  0.71900  0.24610  Biso   1.000  H
  H34      1.0000 0.81530  0.21900  0.25390  Biso   1.000  H
  H35      1.0000 0.81530  0.28100  0.75390  Biso   1.000  H
  H36      1.0000 0.18470  0.78100  0.74610  Biso   1.000  H
  C45      1.0000 0.30480  0.65340  0.26280  Biso   1.000  C
  C46      1.0000 0.69520  0.15340  0.23720  Biso   1.000  C
  C47      1.0000 0.69520  0.34660  0.73720  Biso   1.000  C
  C48      1.0000 0.30480  0.84660  0.76280  Biso   1.000  C
  H37      1.0000 0.20290  0.63480  0.25000  Biso   1.000  H
  H38      1.0000 0.79710  0.13480  0.25000  Biso   1.000  H
  H39      1.0000 0.79710  0.36520  0.75000  Biso   1.000  H
  H40      1.0000 0.20290  0.86520  0.75000  Biso   1.000  H
  C49      1.0000 0.77290  0.62673  0.32540  Biso   1.000  C
  C50      1.0000 0.22710  0.12673  0.17460  Biso   1.000  C
  C51      1.0000 0.22710  0.37327  0.67460  Biso   1.000  C
  C52      1.0000 0.77290  0.87327  0.82540  Biso   1.000  C
  C53      1.0000 0.77040  0.73935  0.31190  Biso   1.000  C
  C54      1.0000 0.22960  0.23935  0.18810  Biso   1.000  C
  C55      1.0000 0.22960  0.26065  0.68810  Biso   1.000  C
  C56      1.0000 0.77040  0.76065  0.81190  Biso   1.000  C
  C57      1.0000 0.16200  0.72102  0.49380  Biso   1.000  C
  C58      1.0000 0.83800  0.22102  0.00620  Biso   1.000  C
  C59      1.0000 0.83800  0.27898  0.50620  Biso   1.000  C
  C60      1.0000 0.16200  0.77898  0.99380  Biso   1.000  C
  H41      1.0000 0.05190  0.70640  0.48230  Biso   1.000  H
  H42      1.0000 0.94810  0.20640  0.01770  Biso   1.000  H
  H43      1.0000 0.94810  0.29360  0.51770  Biso   1.000  H
  H44      1.0000 0.05190  0.79360  0.98230  Biso   1.000  H
  C61      1.0000 0.30910  0.69224  0.52290  Biso   1.000  C
  C62      1.0000 0.69090  0.19224  0.97710  Biso   1.000  C
  C63      1.0000 0.69090  0.30776  0.47710  Biso   1.000  C
  C64      1.0000 0.30910  0.80776  0.02290  Biso   1.000  C
  H45      1.0000 0.29840  0.65880  0.53170  Biso   1.000  H
  H46      1.0000 0.70160  0.15880  0.96830  Biso   1.000  H
  H47      1.0000 0.70160  0.34120  0.46830  Biso   1.000  H
  H48      1.0000 0.29840  0.84120  0.03170  Biso   1.000  H
  C65      1.0000 0.47090  0.71389  0.53850  Biso   1.000  C
  C66      1.0000 0.52910  0.21389  0.96150  Biso   1.000  C
  C67      1.0000 0.52910  0.28611  0.46150  Biso   1.000  C
  C68      1.0000 0.47090  0.78611  0.03850  Biso   1.000  C
  H49      1.0000 0.57150  0.69500  0.55640  Biso   1.000  H
  H50      1.0000 0.42850  0.19500  0.94360  Biso   1.000  H
  H51      1.0000 0.42850  0.30500  0.44360  Biso   1.000  H
  H52      1.0000 0.57150  0.80500  0.05640  Biso   1.000  H
  C69      1.0000 0.48460  0.76353  0.52770  Biso   1.000  C
  C70      1.0000 0.51540  0.26353  0.97230  Biso   1.000  C
  C71      1.0000 0.51540  0.23647  0.47230  Biso   1.000  C
  C72      1.0000 0.48460  0.73647  0.02770  Biso   1.000  C
  H53      1.0000 0.59360  0.77870  0.53820  Biso   1.000  H
  H54      1.0000 0.40640  0.27870  0.96180  Biso   1.000  H
  H55      1.0000 0.40640  0.22130  0.46180  Biso   1.000  H
  H56      1.0000 0.59360  0.72130  0.03820  Biso   1.000  H
  C73      1.0000 0.33190  0.79013  0.50090  Biso   1.000  C
  C74      1.0000 0.66810  0.29013  0.99910  Biso   1.000  C
  C75      1.0000 0.66810  0.20987  0.49910  Biso   1.000  C
  C76      1.0000 0.33190  0.70987  0.00090  Biso   1.000  C
  C77      1.0000 0.32980  0.84401  0.49260  Biso   1.000  C
  C78      1.0000 0.67020  0.34401  0.00740  Biso   1.000  C
  C79      1.0000 0.67020  0.15599  0.50740  Biso   1.000  C
  C80      1.0000 0.32980  0.65599  0.99260  Biso   1.000  C
  C81      1.0000 0.47710  0.87310  0.51380  Biso   1.000  C
  C82      1.0000 0.52290  0.37310  0.98620  Biso   1.000  C
  C83      1.0000 0.52290  0.12690  0.48620  Biso   1.000  C
  C84      1.0000 0.47710  0.62690  0.01380  Biso   1.000  C
  H57      1.0000 0.58810  0.85930  0.53100  Biso   1.000  H
  H58      1.0000 0.41190  0.35930  0.96900  Biso   1.000  H
  H59      1.0000 0.41190  0.14070  0.46900  Biso   1.000  H
  H60      1.0000 0.58810  0.64070  0.03100  Biso   1.000  H
  C85      1.0000 0.45650  0.92300  0.50930  Biso   1.000  C
  C86      1.0000 0.54350  0.42300  0.99070  Biso   1.000  C
  C87      1.0000 0.54350  0.07700  0.49070  Biso   1.000  C
  C88      1.0000 0.45650  0.57700  0.00930  Biso   1.000  C
  H61      1.0000 0.55410  0.94330  0.52330  Biso   1.000  H
  H62      1.0000 0.44590  0.44330  0.97670  Biso   1.000  H
  H63      1.0000 0.44590  0.05670  0.47670  Biso   1.000  H
  H64      1.0000 0.55410  0.55670  0.02330  Biso   1.000  H
  C89      1.0000 0.29340  0.94238  0.48420  Biso   1.000  C
  C90      1.0000 0.70660  0.44238  0.01580  Biso   1.000  C
  C91      1.0000 0.70660  0.05762  0.51580  Biso   1.000  C
  C92      1.0000 0.29340  0.55762  0.98420  Biso   1.000  C
  H65      1.0000 0.26800  0.97680  0.48200  Biso   1.000  H
  H66      1.0000 0.73200  0.47680  0.01800  Biso   1.000  H
  H67      1.0000 0.73200  0.02320  0.51800  Biso   1.000  H
  H68      1.0000 0.26800  0.52320  0.98200  Biso   1.000  H
  C93      1.0000 0.14990  0.91175  0.46240  Biso   1.000  C
  C94      1.0000 0.85010  0.41175  0.03760  Biso   1.000  C
  C95      1.0000 0.85010  0.08825  0.53760  Biso   1.000  C
  C96      1.0000 0.14990  0.58825  0.96240  Biso   1.000  C
  H69      1.0000 0.03830  0.92520  0.44480  Biso   1.000  H
  H70      1.0000 0.96170  0.42520  0.05520  Biso   1.000  H
  H71      1.0000 0.96170  0.07480  0.55520  Biso   1.000  H
  H72      1.0000 0.03830  0.57480  0.94480  Biso   1.000  H
  O41      1.0000 0.12370  0.56440  0.45970  Biso   1.000  O
  O42      1.0000 0.87630  0.06440  0.04030  Biso   1.000  O
  O43      1.0000 0.87630  0.43560  0.54030  Biso   1.000  O
  O44      1.0000 0.12370  0.93560  0.95970  Biso   1.000  O
  H73      1.0000 0.07200  0.58250  0.41500  Biso   1.000  H
  H74      1.0000 0.92800  0.08250  0.08500  Biso   1.000  H
  H75      1.0000 0.92800  0.41750  0.58500  Biso   1.000  H
  H76      1.0000 0.07200  0.91750  0.91500  Biso   1.000  H
  H77      1.0000 0.10800  0.53560  0.44400  Biso   1.000  H
  H78      1.0000 0.89200  0.03560  0.05600  Biso   1.000  H
  H79      1.0000 0.89200  0.46440  0.55600  Biso   1.000  H
  H80      1.0000 0.10800  0.96440  0.94400  Biso   1.000  H
  O45      1.0000 0.87650  0.56884  0.12810  Biso   1.000  O
  O46      1.0000 0.12350  0.06884  0.37190  Biso   1.000  O
  O47      1.0000 0.12350  0.43116  0.87190  Biso   1.000  O
  O48      1.0000 0.87650  0.93116  0.62810  Biso   1.000  O
  H81      1.0000 0.93900  0.54600  0.12000  Biso   1.000  H
  H82      1.0000 0.06100  0.04600  0.38000  Biso   1.000  H
  H83      1.0000 0.06100  0.45400  0.88000  Biso   1.000  H
  H84      1.0000 0.93900  0.95400  0.62000  Biso   1.000  H
  H85      1.0000 0.86100  0.56600  0.19250  Biso   1.000  H
  H86      1.0000 0.13900  0.06600  0.30750  Biso   1.000  H
  H87      1.0000 0.13900  0.43400  0.80750  Biso   1.000  H
  H88      1.0000 0.86100  0.93400  0.69250  Biso   1.000  H
  O49      1.0000 0.88850  0.31148  0.25150  Biso   1.000  O
  O50      1.0000 0.11150  0.81148  0.24850  Biso   1.000  O
  O51      1.0000 0.11150  0.68852  0.74850  Biso   1.000  O
  O52      1.0000 0.88850  0.18852  0.75150  Biso   1.000  O
  H89      1.0000 0.95900  0.33450  0.26700  Biso   1.000  H
  H90      1.0000 0.04100  0.83450  0.23300  Biso   1.000  H
  H91      1.0000 0.04100  0.66550  0.73300  Biso   1.000  H
  H92      1.0000 0.95900  0.16550  0.76700  Biso   1.000  H
  H93      1.0000 0.95500  0.28740  0.25700  Biso   1.000  H
  H94      1.0000 0.04500  0.78740  0.24300  Biso   1.000  H
  H95      1.0000 0.04500  0.71260  0.74300  Biso   1.000  H
  H96      1.0000 0.95500  0.21260  0.75700  Biso   1.000  H
  O53      1.0000 0.15380  0.45554  0.42700  Biso   1.000  O
  O54      1.0000 0.84620  0.95554  0.07300  Biso   1.000  O
  O55      1.0000 0.84620  0.54446  0.57300  Biso   1.000  O
  O56      1.0000 0.15380  0.04446  0.92700  Biso   1.000  O
  H97      1.0000 0.18300  0.42390  0.44400  Biso   1.000  H
  H98      1.0000 0.81700  0.92390  0.05600  Biso   1.000  H
  H99      1.0000 0.81700  0.57610  0.55600  Biso   1.000  H
  H100     1.0000 0.18300  0.07610  0.94400  Biso   1.000  H
