data_image0
_cell_length_a       18.1044
_cell_length_b       12.8473
_cell_length_c       11.062
_cell_angle_alpha    90
_cell_angle_beta     90
_cell_angle_gamma    90

_symmetry_space_group_name_H-M    "P 1"
_symmetry_int_tables_number       1

loop_
  _symmetry_equiv_pos_as_xyz
  'x, y, z'

loop_
  _atom_site_label
  _atom_site_occupancy
  _atom_site_fract_x
  _atom_site_fract_y
  _atom_site_fract_z
  _atom_site_thermal_displace_type
  _atom_site_B_iso_or_equiv
  _atom_site_type_symbol
  Cu1      1.0000 0.08499  0.14404  0.88036  Biso   1.000  Cu
  Cu2      1.0000 0.91501  0.85596  0.38036  Biso   1.000  Cu
  Cu3      1.0000 0.08499  0.85596  0.38036  Biso   1.000  Cu
  Cu4      1.0000 0.91501  0.14404  0.88036  Biso   1.000  Cu
  Cu5      1.0000 0.58499  0.64404  0.88036  Biso   1.000  Cu
  Cu6      1.0000 0.41501  0.35596  0.38036  Biso   1.000  Cu
  Cu7      1.0000 0.58499  0.35596  0.38036  Biso   1.000  Cu
  Cu8      1.0000 0.41501  0.64404  0.88036  Biso   1.000  Cu
  O1       1.0000 0.35660  0.51020  0.05860  Biso   1.000  O
  O2       1.0000 0.64340  0.48980  0.55860  Biso   1.000  O
  O3       1.0000 0.35660  0.48980  0.55860  Biso   1.000  O
  O4       1.0000 0.64340  0.51020  0.05860  Biso   1.000  O
  O5       1.0000 0.85660  0.01020  0.05860  Biso   1.000  O
  O6       1.0000 0.14340  0.98980  0.55860  Biso   1.000  O
  O7       1.0000 0.85660  0.98980  0.55860  Biso   1.000  O
  O8       1.0000 0.14340  0.01020  0.05860  Biso   1.000  O
  O9       1.0000 0.33990  0.53760  0.86250  Biso   1.000  O
  O10      1.0000 0.66010  0.46240  0.36250  Biso   1.000  O
  O11      1.0000 0.33990  0.46240  0.36250  Biso   1.000  O
  O12      1.0000 0.66010  0.53760  0.86250  Biso   1.000  O
  O13      1.0000 0.83990  0.03760  0.86250  Biso   1.000  O
  O14      1.0000 0.16010  0.96240  0.36250  Biso   1.000  O
  O15      1.0000 0.83990  0.96240  0.36250  Biso   1.000  O
  O16      1.0000 0.16010  0.03760  0.86250  Biso   1.000  O
  O17      1.0000 0.08330  0.16120  0.66970  Biso   1.000  O
  O18      1.0000 0.91670  0.83880  0.16970  Biso   1.000  O
  O19      1.0000 0.08330  0.83880  0.16970  Biso   1.000  O
  O20      1.0000 0.91670  0.16120  0.66970  Biso   1.000  O
  O21      1.0000 0.58330  0.66120  0.66970  Biso   1.000  O
  O22      1.0000 0.41670  0.33880  0.16970  Biso   1.000  O
  O23      1.0000 0.58330  0.33880  0.16970  Biso   1.000  O
  O24      1.0000 0.41670  0.66120  0.66970  Biso   1.000  O
  N1       1.0000 0.00000  0.04610  0.87270  Biso   1.000  N
  N2       1.0000 0.00000  0.95390  0.37270  Biso   1.000  N
  N3       1.0000 0.50000  0.54610  0.87270  Biso   1.000  N
  N4       1.0000 0.50000  0.45390  0.37270  Biso   1.000  N
  N5       1.0000 0.00000  0.95570  0.85020  Biso   1.000  N
  N6       1.0000 0.00000  0.04430  0.35020  Biso   1.000  N
  N7       1.0000 0.50000  0.45570  0.85020  Biso   1.000  N
  N8       1.0000 0.50000  0.54430  0.35020  Biso   1.000  N
  N9       1.0000 0.00000  0.87100  0.82770  Biso   1.000  N
  N10      1.0000 0.00000  0.12900  0.32770  Biso   1.000  N
  N11      1.0000 0.50000  0.37100  0.82770  Biso   1.000  N
  N12      1.0000 0.50000  0.62900  0.32770  Biso   1.000  N
  N13      1.0000 0.00000  0.24320  0.89490  Biso   1.000  N
  N14      1.0000 0.00000  0.75680  0.39490  Biso   1.000  N
  N15      1.0000 0.50000  0.74320  0.89490  Biso   1.000  N
  N16      1.0000 0.50000  0.25680  0.39490  Biso   1.000  N
  N17      1.0000 0.00000  0.33760  0.89600  Biso   1.000  N
  N18      1.0000 0.00000  0.66240  0.39600  Biso   1.000  N
  N19      1.0000 0.50000  0.83760  0.89600  Biso   1.000  N
  N20      1.0000 0.50000  0.16240  0.39600  Biso   1.000  N
  N21      1.0000 0.00000  0.42450  0.89740  Biso   1.000  N
  N22      1.0000 0.00000  0.57550  0.39740  Biso   1.000  N
  N23      1.0000 0.50000  0.92450  0.89740  Biso   1.000  N
  N24      1.0000 0.50000  0.07550  0.39740  Biso   1.000  N
  N25      1.0000 0.16240  0.25060  0.92200  Biso   1.000  N
  N26      1.0000 0.83760  0.74940  0.42200  Biso   1.000  N
  N27      1.0000 0.16240  0.74940  0.42200  Biso   1.000  N
  N28      1.0000 0.83760  0.25060  0.92200  Biso   1.000  N
  N29      1.0000 0.66240  0.75060  0.92200  Biso   1.000  N
  N30      1.0000 0.33760  0.24940  0.42200  Biso   1.000  N
  N31      1.0000 0.66240  0.24940  0.42200  Biso   1.000  N
  N32      1.0000 0.33760  0.75060  0.92200  Biso   1.000  N
  C1       1.0000 0.21390  0.26870  0.84070  Biso   1.000  C
  C2       1.0000 0.78610  0.73130  0.34070  Biso   1.000  C
  C3       1.0000 0.21390  0.73130  0.34070  Biso   1.000  C
  C4       1.0000 0.78610  0.26870  0.84070  Biso   1.000  C
  C5       1.0000 0.71390  0.76870  0.84070  Biso   1.000  C
  C6       1.0000 0.28610  0.23130  0.34070  Biso   1.000  C
  C7       1.0000 0.71390  0.23130  0.34070  Biso   1.000  C
  C8       1.0000 0.28610  0.76870  0.84070  Biso   1.000  C
  H1       1.0000 0.21510  0.22610  0.77050  Biso   1.000  H
  H2       1.0000 0.78490  0.77390  0.27050  Biso   1.000  H
  H3       1.0000 0.21510  0.77390  0.27050  Biso   1.000  H
  H4       1.0000 0.78490  0.22610  0.77050  Biso   1.000  H
  H5       1.0000 0.71510  0.72610  0.77050  Biso   1.000  H
  H6       1.0000 0.28490  0.27390  0.27050  Biso   1.000  H
  H7       1.0000 0.71510  0.27390  0.27050  Biso   1.000  H
  H8       1.0000 0.28490  0.72610  0.77050  Biso   1.000  H
  C9       1.0000 0.26690  0.34710  0.85200  Biso   1.000  C
  C10      1.0000 0.73310  0.65290  0.35200  Biso   1.000  C
  C11      1.0000 0.26690  0.65290  0.35200  Biso   1.000  C
  C12      1.0000 0.73310  0.34710  0.85200  Biso   1.000  C
  C13      1.0000 0.76690  0.84710  0.85200  Biso   1.000  C
  C14      1.0000 0.23310  0.15290  0.35200  Biso   1.000  C
  C15      1.0000 0.76690  0.15290  0.35200  Biso   1.000  C
  C16      1.0000 0.23310  0.84710  0.85200  Biso   1.000  C
  H9       1.0000 0.30240  0.35790  0.79010  Biso   1.000  H
  H10      1.0000 0.69760  0.64210  0.29010  Biso   1.000  H
  H11      1.0000 0.30240  0.64210  0.29010  Biso   1.000  H
  H12      1.0000 0.69760  0.35790  0.79010  Biso   1.000  H
  H13      1.0000 0.80240  0.85790  0.79010  Biso   1.000  H
  H14      1.0000 0.19760  0.14210  0.29010  Biso   1.000  H
  H15      1.0000 0.80240  0.14210  0.29010  Biso   1.000  H
  H16      1.0000 0.19760  0.85790  0.79010  Biso   1.000  H
  C17      1.0000 0.26700  0.40720  0.95190  Biso   1.000  C
  C18      1.0000 0.73300  0.59280  0.45190  Biso   1.000  C
  C19      1.0000 0.26700  0.59280  0.45190  Biso   1.000  C
  C20      1.0000 0.73300  0.40720  0.95190  Biso   1.000  C
  C21      1.0000 0.76700  0.90720  0.95190  Biso   1.000  C
  C22      1.0000 0.23300  0.09280  0.45190  Biso   1.000  C
  C23      1.0000 0.76700  0.09280  0.45190  Biso   1.000  C
  C24      1.0000 0.23300  0.90720  0.95190  Biso   1.000  C
  C25      1.0000 0.21370  0.39040  0.04530  Biso   1.000  C
  C26      1.0000 0.78630  0.60960  0.54530  Biso   1.000  C
  C27      1.0000 0.21370  0.60960  0.54530  Biso   1.000  C
  C28      1.0000 0.78630  0.39040  0.04530  Biso   1.000  C
  C29      1.0000 0.71370  0.89040  0.04530  Biso   1.000  C
  C30      1.0000 0.28630  0.10960  0.54530  Biso   1.000  C
  C31      1.0000 0.71370  0.10960  0.54530  Biso   1.000  C
  C32      1.0000 0.28630  0.89040  0.04530  Biso   1.000  C
  C33      1.0000 0.20810  0.45050  0.15390  Biso   1.000  C
  C34      1.0000 0.79190  0.54950  0.65390  Biso   1.000  C
  C35      1.0000 0.20810  0.54950  0.65390  Biso   1.000  C
  C36      1.0000 0.79190  0.45050  0.15390  Biso   1.000  C
  C37      1.0000 0.70810  0.95050  0.15390  Biso   1.000  C
  C38      1.0000 0.29190  0.04950  0.65390  Biso   1.000  C
  C39      1.0000 0.70810  0.04950  0.65390  Biso   1.000  C
  C40      1.0000 0.29190  0.95050  0.15390  Biso   1.000  C
  H17      1.0000 0.24110  0.50680  0.16770  Biso   1.000  H
  H18      1.0000 0.75890  0.49320  0.66770  Biso   1.000  H
  H19      1.0000 0.24110  0.49320  0.66770  Biso   1.000  H
  H20      1.0000 0.75890  0.50680  0.16770  Biso   1.000  H
  H21      1.0000 0.74110  0.00680  0.16770  Biso   1.000  H
  H22      1.0000 0.25890  0.99320  0.66770  Biso   1.000  H
  H23      1.0000 0.74110  0.99320  0.66770  Biso   1.000  H
  H24      1.0000 0.25890  0.00680  0.16770  Biso   1.000  H
  C41      1.0000 0.15560  0.42690  0.23740  Biso   1.000  C
  C42      1.0000 0.84440  0.57310  0.73740  Biso   1.000  C
  C43      1.0000 0.15560  0.57310  0.73740  Biso   1.000  C
  C44      1.0000 0.84440  0.42690  0.23740  Biso   1.000  C
  C45      1.0000 0.65560  0.92690  0.23740  Biso   1.000  C
  C46      1.0000 0.34440  0.07310  0.73740  Biso   1.000  C
  C47      1.0000 0.65560  0.07310  0.73740  Biso   1.000  C
  C48      1.0000 0.34440  0.92690  0.23740  Biso   1.000  C
  H25      1.0000 0.15250  0.46630  0.30990  Biso   1.000  H
  H26      1.0000 0.84750  0.53370  0.80990  Biso   1.000  H
  H27      1.0000 0.15250  0.53370  0.80990  Biso   1.000  H
  H28      1.0000 0.84750  0.46630  0.30990  Biso   1.000  H
  H29      1.0000 0.65250  0.96630  0.30990  Biso   1.000  H
  H30      1.0000 0.34750  0.03370  0.80990  Biso   1.000  H
  H31      1.0000 0.65250  0.03370  0.80990  Biso   1.000  H
  H32      1.0000 0.34750  0.96630  0.30990  Biso   1.000  H
  C49      1.0000 0.10510  0.34380  0.21720  Biso   1.000  C
  C50      1.0000 0.89490  0.65620  0.71720  Biso   1.000  C
  C51      1.0000 0.10510  0.65620  0.71720  Biso   1.000  C
  C52      1.0000 0.89490  0.34380  0.21720  Biso   1.000  C
  C53      1.0000 0.60510  0.84380  0.21720  Biso   1.000  C
  C54      1.0000 0.39490  0.15620  0.71720  Biso   1.000  C
  C55      1.0000 0.60510  0.15620  0.71720  Biso   1.000  C
  C56      1.0000 0.39490  0.84380  0.21720  Biso   1.000  C
  H33      1.0000 0.06740  0.33090  0.27510  Biso   1.000  H
  H34      1.0000 0.93260  0.66910  0.77510  Biso   1.000  H
  H35      1.0000 0.06740  0.66910  0.77510  Biso   1.000  H
  H36      1.0000 0.93260  0.33090  0.27510  Biso   1.000  H
  H37      1.0000 0.56740  0.83090  0.27510  Biso   1.000  H
  H38      1.0000 0.43260  0.16910  0.77510  Biso   1.000  H
  H39      1.0000 0.56740  0.16910  0.77510  Biso   1.000  H
  H40      1.0000 0.43260  0.83090  0.27510  Biso   1.000  H
  C57      1.0000 0.10910  0.28340  0.11940  Biso   1.000  C
  C58      1.0000 0.89090  0.71660  0.61940  Biso   1.000  C
  C59      1.0000 0.10910  0.71660  0.61940  Biso   1.000  C
  C60      1.0000 0.89090  0.28340  0.11940  Biso   1.000  C
  C61      1.0000 0.60910  0.78340  0.11940  Biso   1.000  C
  C62      1.0000 0.39090  0.21660  0.61940  Biso   1.000  C
  C63      1.0000 0.60910  0.21660  0.61940  Biso   1.000  C
  C64      1.0000 0.39090  0.78340  0.11940  Biso   1.000  C
  H41      1.0000 0.07760  0.22460  0.11140  Biso   1.000  H
  H42      1.0000 0.92240  0.77540  0.61140  Biso   1.000  H
  H43      1.0000 0.07760  0.77540  0.61140  Biso   1.000  H
  H44      1.0000 0.92240  0.22460  0.11140  Biso   1.000  H
  H45      1.0000 0.57760  0.72460  0.11140  Biso   1.000  H
  H46      1.0000 0.42240  0.27540  0.61140  Biso   1.000  H
  H47      1.0000 0.57760  0.27540  0.61140  Biso   1.000  H
  H48      1.0000 0.42240  0.72460  0.11140  Biso   1.000  H
  C65      1.0000 0.16090  0.30780  0.02760  Biso   1.000  C
  C66      1.0000 0.83910  0.69220  0.52760  Biso   1.000  C
  C67      1.0000 0.16090  0.69220  0.52760  Biso   1.000  C
  C68      1.0000 0.83910  0.30780  0.02760  Biso   1.000  C
  C69      1.0000 0.66090  0.80780  0.02760  Biso   1.000  C
  C70      1.0000 0.33910  0.19220  0.52760  Biso   1.000  C
  C71      1.0000 0.66090  0.19220  0.52760  Biso   1.000  C
  C72      1.0000 0.33910  0.80780  0.02760  Biso   1.000  C
  C73      1.0000 0.32620  0.49260  0.96100  Biso   1.000  C
  C74      1.0000 0.67380  0.50740  0.46100  Biso   1.000  C
  C75      1.0000 0.32620  0.50740  0.46100  Biso   1.000  C
  C76      1.0000 0.67380  0.49260  0.96100  Biso   1.000  C
  C77      1.0000 0.82620  0.99260  0.96100  Biso   1.000  C
  C78      1.0000 0.17380  0.00740  0.46100  Biso   1.000  C
  C79      1.0000 0.82620  0.00740  0.46100  Biso   1.000  C
  C80      1.0000 0.17380  0.99260  0.96100  Biso   1.000  C
