data_image0
_cell_length_a       13.41
_cell_length_b       6.8184
_cell_length_c       12.5952
_cell_angle_alpha    90
_cell_angle_beta     114.722
_cell_angle_gamma    90

_symmetry_space_group_name_H-M    "P 1"
_symmetry_int_tables_number       1

loop_
  _symmetry_equiv_pos_as_xyz
  'x, y, z'

loop_
  _atom_site_label
  _atom_site_occupancy
  _atom_site_fract_x
  _atom_site_fract_y
  _atom_site_fract_z
  _atom_site_thermal_displace_type
  _atom_site_B_iso_or_equiv
  _atom_site_type_symbol
  Cu1      1.0000 0.47895  0.00000  0.18776  Biso   1.000  Cu
  Cu2      1.0000 0.52105  0.00000  0.81224  Biso   1.000  Cu
  Cu3      1.0000 0.97895  0.50000  0.18776  Biso   1.000  Cu
  Cu4      1.0000 0.02105  0.50000  0.81224  Biso   1.000  Cu
  C1       1.0000 0.42971  0.39630  0.09761  Biso   1.000  C
  C2       1.0000 0.57029  0.39630  0.90239  Biso   1.000  C
  C3       1.0000 0.92971  0.89630  0.09761  Biso   1.000  C
  C4       1.0000 0.07029  0.89630  0.90239  Biso   1.000  C
  C5       1.0000 0.57029  0.60370  0.90239  Biso   1.000  C
  C6       1.0000 0.42971  0.60370  0.09761  Biso   1.000  C
  C7       1.0000 0.07029  0.10370  0.90239  Biso   1.000  C
  C8       1.0000 0.92971  0.10370  0.09761  Biso   1.000  C
  H1       1.0000 0.39290  0.32830  0.02580  Biso   1.000  H
  H2       1.0000 0.60710  0.32830  0.97420  Biso   1.000  H
  H3       1.0000 0.89290  0.82830  0.02580  Biso   1.000  H
  H4       1.0000 0.10710  0.82830  0.97420  Biso   1.000  H
  H5       1.0000 0.60710  0.67170  0.97420  Biso   1.000  H
  H6       1.0000 0.39290  0.67170  0.02580  Biso   1.000  H
  H7       1.0000 0.10710  0.17170  0.97420  Biso   1.000  H
  H8       1.0000 0.89290  0.17170  0.02580  Biso   1.000  H
  N1       1.0000 0.47948  0.29500  0.19469  Biso   1.000  N
  N2       1.0000 0.52052  0.29500  0.80531  Biso   1.000  N
  N3       1.0000 0.97948  0.79500  0.19469  Biso   1.000  N
  N4       1.0000 0.02052  0.79500  0.80531  Biso   1.000  N
  N5       1.0000 0.52052  0.70500  0.80531  Biso   1.000  N
  N6       1.0000 0.47948  0.70500  0.19469  Biso   1.000  N
  N7       1.0000 0.02052  0.20500  0.80531  Biso   1.000  N
  N8       1.0000 0.97948  0.20500  0.19469  Biso   1.000  N
  C9       1.0000 0.53040  0.39620  0.29823  Biso   1.000  C
  C10      1.0000 0.46960  0.39620  0.70177  Biso   1.000  C
  C11      1.0000 0.03040  0.89620  0.29823  Biso   1.000  C
  C12      1.0000 0.96960  0.89620  0.70177  Biso   1.000  C
  C13      1.0000 0.46960  0.60380  0.70177  Biso   1.000  C
  C14      1.0000 0.53040  0.60380  0.29823  Biso   1.000  C
  C15      1.0000 0.96960  0.10380  0.70177  Biso   1.000  C
  C16      1.0000 0.03040  0.10380  0.29823  Biso   1.000  C
  C17      1.0000 0.58263  0.29540  0.40534  Biso   1.000  C
  C18      1.0000 0.41737  0.29540  0.59466  Biso   1.000  C
  C19      1.0000 0.08263  0.79540  0.40534  Biso   1.000  C
  C20      1.0000 0.91737  0.79540  0.59466  Biso   1.000  C
  C21      1.0000 0.41737  0.70460  0.59466  Biso   1.000  C
  C22      1.0000 0.58263  0.70460  0.40534  Biso   1.000  C
  C23      1.0000 0.91737  0.20460  0.59466  Biso   1.000  C
  C24      1.0000 0.08263  0.20460  0.40534  Biso   1.000  C
  H9       1.0000 0.58240  0.15600  0.40620  Biso   1.000  H
  H10      1.0000 0.41760  0.15600  0.59380  Biso   1.000  H
  H11      1.0000 0.08240  0.65600  0.40620  Biso   1.000  H
  H12      1.0000 0.91760  0.65600  0.59380  Biso   1.000  H
  H13      1.0000 0.41760  0.84400  0.59380  Biso   1.000  H
  H14      1.0000 0.58240  0.84400  0.40620  Biso   1.000  H
  H15      1.0000 0.91760  0.34400  0.59380  Biso   1.000  H
  H16      1.0000 0.08240  0.34400  0.40620  Biso   1.000  H
  C25      1.0000 0.63374  0.39670  0.50804  Biso   1.000  C
  C26      1.0000 0.36626  0.39670  0.49196  Biso   1.000  C
  C27      1.0000 0.13374  0.89670  0.50804  Biso   1.000  C
  C28      1.0000 0.86626  0.89670  0.49196  Biso   1.000  C
  C29      1.0000 0.36626  0.60330  0.49196  Biso   1.000  C
  C30      1.0000 0.63374  0.60330  0.50804  Biso   1.000  C
  C31      1.0000 0.86626  0.10330  0.49196  Biso   1.000  C
  C32      1.0000 0.13374  0.10330  0.50804  Biso   1.000  C
  H17      1.0000 0.66930  0.32730  0.57950  Biso   1.000  H
  H18      1.0000 0.33070  0.32730  0.42050  Biso   1.000  H
  H19      1.0000 0.16930  0.82730  0.57950  Biso   1.000  H
  H20      1.0000 0.83070  0.82730  0.42050  Biso   1.000  H
  H21      1.0000 0.33070  0.67270  0.42050  Biso   1.000  H
  H22      1.0000 0.66930  0.67270  0.57950  Biso   1.000  H
  H23      1.0000 0.83070  0.17270  0.42050  Biso   1.000  H
  H24      1.0000 0.16930  0.17270  0.57950  Biso   1.000  H
  O1       1.0000 0.31669  0.00000  0.11799  Biso   1.000  O
  O2       1.0000 0.68331  0.00000  0.88201  Biso   1.000  O
  O3       1.0000 0.81669  0.50000  0.11799  Biso   1.000  O
  O4       1.0000 0.18331  0.50000  0.88201  Biso   1.000  O
  N9       1.0000 0.28897  0.00000  0.20577  Biso   1.000  N
  N10      1.0000 0.71103  0.00000  0.79423  Biso   1.000  N
  N11      1.0000 0.78897  0.50000  0.20577  Biso   1.000  N
  N12      1.0000 0.21103  0.50000  0.79423  Biso   1.000  N
  O5       1.0000 0.19110  0.00000  0.18410  Biso   1.000  O
  O6       1.0000 0.80890  0.00000  0.81590  Biso   1.000  O
  O7       1.0000 0.69110  0.50000  0.18410  Biso   1.000  O
  O8       1.0000 0.30890  0.50000  0.81590  Biso   1.000  O
  O9       1.0000 0.36434  0.00000  0.30631  Biso   1.000  O
  O10      1.0000 0.63566  0.00000  0.69369  Biso   1.000  O
  O11      1.0000 0.86434  0.50000  0.30631  Biso   1.000  O
  O12      1.0000 0.13566  0.50000  0.69369  Biso   1.000  O
  O13      1.0000 0.64170  0.00000  0.25981  Biso   1.000  O
  O14      1.0000 0.35830  0.00000  0.74019  Biso   1.000  O
  O15      1.0000 0.14170  0.50000  0.25981  Biso   1.000  O
  O16      1.0000 0.85830  0.50000  0.74019  Biso   1.000  O
  N13      1.0000 0.67472  0.00000  0.17685  Biso   1.000  N
  N14      1.0000 0.32528  0.00000  0.82315  Biso   1.000  N
  N15      1.0000 0.17472  0.50000  0.17685  Biso   1.000  N
  N16      1.0000 0.82528  0.50000  0.82315  Biso   1.000  N
  O17      1.0000 0.77299  0.00000  0.20330  Biso   1.000  O
  O18      1.0000 0.22701  0.00000  0.79670  Biso   1.000  O
  O19      1.0000 0.27299  0.50000  0.20330  Biso   1.000  O
  O20      1.0000 0.72701  0.50000  0.79670  Biso   1.000  O
  O21      1.0000 0.60160  0.00000  0.07549  Biso   1.000  O
  O22      1.0000 0.39840  0.00000  0.92451  Biso   1.000  O
  O23      1.0000 0.10160  0.50000  0.07549  Biso   1.000  O
  O24      1.0000 0.89840  0.50000  0.92451  Biso   1.000  O
