data_image0
_cell_length_a       17.262
_cell_length_b       13.5822
_cell_length_c       11.2426
_cell_angle_alpha    90
_cell_angle_beta     90
_cell_angle_gamma    90

_symmetry_space_group_name_H-M    "P 1"
_symmetry_int_tables_number       1

loop_
  _symmetry_equiv_pos_as_xyz
  'x, y, z'

loop_
  _atom_site_label
  _atom_site_occupancy
  _atom_site_fract_x
  _atom_site_fract_y
  _atom_site_fract_z
  _atom_site_thermal_displace_type
  _atom_site_B_iso_or_equiv
  _atom_site_type_symbol
  Cu1      1.0000 0.91083  0.35701  0.46042  Biso   1.000  Cu
  Cu2      1.0000 0.08917  0.64299  0.96042  Biso   1.000  Cu
  Cu3      1.0000 0.91083  0.64299  0.96042  Biso   1.000  Cu
  Cu4      1.0000 0.08917  0.35701  0.46042  Biso   1.000  Cu
  Cu5      1.0000 0.41083  0.85701  0.46042  Biso   1.000  Cu
  Cu6      1.0000 0.58917  0.14299  0.96042  Biso   1.000  Cu
  Cu7      1.0000 0.41083  0.14299  0.96042  Biso   1.000  Cu
  Cu8      1.0000 0.58917  0.85701  0.46042  Biso   1.000  Cu
  O1       1.0000 0.64828  0.98620  0.64190  Biso   1.000  O
  O2       1.0000 0.35172  0.01380  0.14190  Biso   1.000  O
  O3       1.0000 0.64828  0.01380  0.14190  Biso   1.000  O
  O4       1.0000 0.35172  0.98620  0.64190  Biso   1.000  O
  O5       1.0000 0.14828  0.48620  0.64190  Biso   1.000  O
  O6       1.0000 0.85172  0.51380  0.14190  Biso   1.000  O
  O7       1.0000 0.14828  0.51380  0.14190  Biso   1.000  O
  O8       1.0000 0.85172  0.48620  0.64190  Biso   1.000  O
  O9       1.0000 0.66732  0.95805  0.44900  Biso   1.000  O
  O10      1.0000 0.33268  0.04195  0.94900  Biso   1.000  O
  O11      1.0000 0.66732  0.04195  0.94900  Biso   1.000  O
  O12      1.0000 0.33268  0.95805  0.44900  Biso   1.000  O
  O13      1.0000 0.16732  0.45805  0.44900  Biso   1.000  O
  O14      1.0000 0.83268  0.54195  0.94900  Biso   1.000  O
  O15      1.0000 0.16732  0.54195  0.94900  Biso   1.000  O
  O16      1.0000 0.83268  0.45805  0.44900  Biso   1.000  O
  O17      1.0000 0.91586  0.35490  0.25340  Biso   1.000  O
  O18      1.0000 0.08414  0.64510  0.75340  Biso   1.000  O
  O19      1.0000 0.91586  0.64510  0.75340  Biso   1.000  O
  O20      1.0000 0.08414  0.35490  0.25340  Biso   1.000  O
  O21      1.0000 0.41586  0.85490  0.25340  Biso   1.000  O
  O22      1.0000 0.58414  0.14510  0.75340  Biso   1.000  O
  O23      1.0000 0.41586  0.14510  0.75340  Biso   1.000  O
  O24      1.0000 0.58414  0.85490  0.25340  Biso   1.000  O
  N1       1.0000 0.00000  0.44940  0.46800  Biso   1.000  N
  N2       1.0000 0.00000  0.55060  0.96800  Biso   1.000  N
  N3       1.0000 0.50000  0.94940  0.46800  Biso   1.000  N
  N4       1.0000 0.50000  0.05060  0.96800  Biso   1.000  N
  N5       1.0000 0.00000  0.53660  0.44720  Biso   1.000  N
  N6       1.0000 0.00000  0.46340  0.94720  Biso   1.000  N
  N7       1.0000 0.50000  0.03660  0.44720  Biso   1.000  N
  N8       1.0000 0.50000  0.96340  0.94720  Biso   1.000  N
  N9       1.0000 0.00000  0.61860  0.42890  Biso   1.000  N
  N10      1.0000 0.00000  0.38140  0.92890  Biso   1.000  N
  N11      1.0000 0.50000  0.11860  0.42890  Biso   1.000  N
  N12      1.0000 0.50000  0.88140  0.92890  Biso   1.000  N
  N13      1.0000 0.00000  0.26350  0.46840  Biso   1.000  N
  N14      1.0000 0.00000  0.73650  0.96840  Biso   1.000  N
  N15      1.0000 0.50000  0.76350  0.46840  Biso   1.000  N
  N16      1.0000 0.50000  0.23650  0.96840  Biso   1.000  N
  N17      1.0000 0.00000  0.17470  0.46800  Biso   1.000  N
  N18      1.0000 0.00000  0.82530  0.96800  Biso   1.000  N
  N19      1.0000 0.50000  0.67470  0.46800  Biso   1.000  N
  N20      1.0000 0.50000  0.32530  0.96800  Biso   1.000  N
  N21      1.0000 0.00000  0.09210  0.46700  Biso   1.000  N
  N22      1.0000 0.00000  0.90790  0.96700  Biso   1.000  N
  N23      1.0000 0.50000  0.59210  0.46700  Biso   1.000  N
  N24      1.0000 0.50000  0.40790  0.96700  Biso   1.000  N
  N25      1.0000 0.83397  0.25220  0.49880  Biso   1.000  N
  N26      1.0000 0.16603  0.74780  0.99880  Biso   1.000  N
  N27      1.0000 0.83397  0.74780  0.99880  Biso   1.000  N
  N28      1.0000 0.16603  0.25220  0.49880  Biso   1.000  N
  N29      1.0000 0.33397  0.75220  0.49880  Biso   1.000  N
  N30      1.0000 0.66603  0.24780  0.99880  Biso   1.000  N
  N31      1.0000 0.33397  0.24780  0.99880  Biso   1.000  N
  N32      1.0000 0.66603  0.75220  0.49880  Biso   1.000  N
  C1       1.0000 0.78490  0.22310  0.41620  Biso   1.000  C
  C2       1.0000 0.21510  0.77690  0.91620  Biso   1.000  C
  C3       1.0000 0.78490  0.77690  0.91620  Biso   1.000  C
  C4       1.0000 0.21510  0.22310  0.41620  Biso   1.000  C
  C5       1.0000 0.28490  0.72310  0.41620  Biso   1.000  C
  C6       1.0000 0.71510  0.27690  0.91620  Biso   1.000  C
  C7       1.0000 0.28490  0.27690  0.91620  Biso   1.000  C
  C8       1.0000 0.71510  0.72310  0.41620  Biso   1.000  C
  H1       1.0000 0.78360  0.25840  0.34320  Biso   1.000  H
  H2       1.0000 0.21640  0.74160  0.84320  Biso   1.000  H
  H3       1.0000 0.78360  0.74160  0.84320  Biso   1.000  H
  H4       1.0000 0.21640  0.25840  0.34320  Biso   1.000  H
  H5       1.0000 0.28360  0.75840  0.34320  Biso   1.000  H
  H6       1.0000 0.71640  0.24160  0.84320  Biso   1.000  H
  H7       1.0000 0.28360  0.24160  0.84320  Biso   1.000  H
  H8       1.0000 0.71640  0.75840  0.34320  Biso   1.000  H
  C9       1.0000 0.73480  0.14340  0.42990  Biso   1.000  C
  C10      1.0000 0.26520  0.85660  0.92990  Biso   1.000  C
  C11      1.0000 0.73480  0.85660  0.92990  Biso   1.000  C
  C12      1.0000 0.26520  0.14340  0.42990  Biso   1.000  C
  C13      1.0000 0.23480  0.64340  0.42990  Biso   1.000  C
  C14      1.0000 0.76520  0.35660  0.92990  Biso   1.000  C
  C15      1.0000 0.23480  0.35660  0.92990  Biso   1.000  C
  C16      1.0000 0.76520  0.64340  0.42990  Biso   1.000  C
  H9       1.0000 0.70040  0.12590  0.36740  Biso   1.000  H
  H10      1.0000 0.29960  0.87410  0.86740  Biso   1.000  H
  H11      1.0000 0.70040  0.87410  0.86740  Biso   1.000  H
  H12      1.0000 0.29960  0.12590  0.36740  Biso   1.000  H
  H13      1.0000 0.20040  0.62590  0.36740  Biso   1.000  H
  H14      1.0000 0.79960  0.37410  0.86740  Biso   1.000  H
  H15      1.0000 0.20040  0.37410  0.86740  Biso   1.000  H
  H16      1.0000 0.79960  0.62590  0.36740  Biso   1.000  H
  C17      1.0000 0.73540  0.09020  0.53400  Biso   1.000  C
  C18      1.0000 0.26460  0.90980  0.03400  Biso   1.000  C
  C19      1.0000 0.73540  0.90980  0.03400  Biso   1.000  C
  C20      1.0000 0.26460  0.09020  0.53400  Biso   1.000  C
  C21      1.0000 0.23540  0.59020  0.53400  Biso   1.000  C
  C22      1.0000 0.76460  0.40980  0.03400  Biso   1.000  C
  C23      1.0000 0.23540  0.40980  0.03400  Biso   1.000  C
  C24      1.0000 0.76460  0.59020  0.53400  Biso   1.000  C
  C25      1.0000 0.78730  0.11970  0.62460  Biso   1.000  C
  C26      1.0000 0.21270  0.88030  0.12460  Biso   1.000  C
  C27      1.0000 0.78730  0.88030  0.12460  Biso   1.000  C
  C28      1.0000 0.21270  0.11970  0.62460  Biso   1.000  C
  C29      1.0000 0.28730  0.61970  0.62460  Biso   1.000  C
  C30      1.0000 0.71270  0.38030  0.12460  Biso   1.000  C
  C31      1.0000 0.28730  0.38030  0.12460  Biso   1.000  C
  C32      1.0000 0.71270  0.61970  0.62460  Biso   1.000  C
  C33      1.0000 0.79420  0.06970  0.73620  Biso   1.000  C
  C34      1.0000 0.20580  0.93030  0.23620  Biso   1.000  C
  C35      1.0000 0.79420  0.93030  0.23620  Biso   1.000  C
  C36      1.0000 0.20580  0.06970  0.73620  Biso   1.000  C
  C37      1.0000 0.29420  0.56970  0.73620  Biso   1.000  C
  C38      1.0000 0.70580  0.43030  0.23620  Biso   1.000  C
  C39      1.0000 0.29420  0.43030  0.23620  Biso   1.000  C
  C40      1.0000 0.70580  0.56970  0.73620  Biso   1.000  C
  H17      1.0000 0.76250  0.01400  0.75180  Biso   1.000  H
  H18      1.0000 0.23750  0.98600  0.25180  Biso   1.000  H
  H19      1.0000 0.76250  0.98600  0.25180  Biso   1.000  H
  H20      1.0000 0.23750  0.01400  0.75180  Biso   1.000  H
  H21      1.0000 0.26250  0.51400  0.75180  Biso   1.000  H
  H22      1.0000 0.73750  0.48600  0.25180  Biso   1.000  H
  H23      1.0000 0.26250  0.48600  0.25180  Biso   1.000  H
  H24      1.0000 0.73750  0.51400  0.75180  Biso   1.000  H
  C41      1.0000 0.84550  0.10070  0.82060  Biso   1.000  C
  C42      1.0000 0.15450  0.89930  0.32060  Biso   1.000  C
  C43      1.0000 0.84550  0.89930  0.32060  Biso   1.000  C
  C44      1.0000 0.15450  0.10070  0.82060  Biso   1.000  C
  C45      1.0000 0.34550  0.60070  0.82060  Biso   1.000  C
  C46      1.0000 0.65450  0.39930  0.32060  Biso   1.000  C
  C47      1.0000 0.34550  0.39930  0.32060  Biso   1.000  C
  C48      1.0000 0.65450  0.60070  0.82060  Biso   1.000  C
  H25      1.0000 0.85010  0.06590  0.89370  Biso   1.000  H
  H26      1.0000 0.14990  0.93410  0.39370  Biso   1.000  H
  H27      1.0000 0.85010  0.93410  0.39370  Biso   1.000  H
  H28      1.0000 0.14990  0.06590  0.89370  Biso   1.000  H
  H29      1.0000 0.35010  0.56590  0.89370  Biso   1.000  H
  H30      1.0000 0.64990  0.43410  0.39370  Biso   1.000  H
  H31      1.0000 0.35010  0.43410  0.39370  Biso   1.000  H
  H32      1.0000 0.64990  0.56590  0.89370  Biso   1.000  H
  C49      1.0000 0.89180  0.18420  0.79910  Biso   1.000  C
  C50      1.0000 0.10820  0.81580  0.29910  Biso   1.000  C
  C51      1.0000 0.89180  0.81580  0.29910  Biso   1.000  C
  C52      1.0000 0.10820  0.18420  0.79910  Biso   1.000  C
  C53      1.0000 0.39180  0.68420  0.79910  Biso   1.000  C
  C54      1.0000 0.60820  0.31580  0.29910  Biso   1.000  C
  C55      1.0000 0.39180  0.31580  0.29910  Biso   1.000  C
  C56      1.0000 0.60820  0.68420  0.79910  Biso   1.000  C
  H33      1.0000 0.92740  0.20520  0.85840  Biso   1.000  H
  H34      1.0000 0.07260  0.79480  0.35840  Biso   1.000  H
  H35      1.0000 0.92740  0.79480  0.35840  Biso   1.000  H
  H36      1.0000 0.07260  0.20520  0.85840  Biso   1.000  H
  H37      1.0000 0.42740  0.70520  0.85840  Biso   1.000  H
  H38      1.0000 0.57260  0.29480  0.35840  Biso   1.000  H
  H39      1.0000 0.42740  0.29480  0.35840  Biso   1.000  H
  H40      1.0000 0.57260  0.70520  0.85840  Biso   1.000  H
  C57      1.0000 0.88690  0.23510  0.69660  Biso   1.000  C
  C58      1.0000 0.11310  0.76490  0.19660  Biso   1.000  C
  C59      1.0000 0.88690  0.76490  0.19660  Biso   1.000  C
  C60      1.0000 0.11310  0.23510  0.69660  Biso   1.000  C
  C61      1.0000 0.38690  0.73510  0.69660  Biso   1.000  C
  C62      1.0000 0.61310  0.26490  0.19660  Biso   1.000  C
  C63      1.0000 0.38690  0.26490  0.19660  Biso   1.000  C
  C64      1.0000 0.61310  0.73510  0.69660  Biso   1.000  C
  H41      1.0000 0.91750  0.29240  0.68470  Biso   1.000  H
  H42      1.0000 0.08250  0.70760  0.18470  Biso   1.000  H
  H43      1.0000 0.91750  0.70760  0.18470  Biso   1.000  H
  H44      1.0000 0.08250  0.29240  0.68470  Biso   1.000  H
  H45      1.0000 0.41750  0.79240  0.68470  Biso   1.000  H
  H46      1.0000 0.58250  0.20760  0.18470  Biso   1.000  H
  H47      1.0000 0.41750  0.20760  0.18470  Biso   1.000  H
  H48      1.0000 0.58250  0.79240  0.68470  Biso   1.000  H
  C65      1.0000 0.83520  0.20210  0.60590  Biso   1.000  C
  C66      1.0000 0.16480  0.79790  0.10590  Biso   1.000  C
  C67      1.0000 0.83520  0.79790  0.10590  Biso   1.000  C
  C68      1.0000 0.16480  0.20210  0.60590  Biso   1.000  C
  C69      1.0000 0.33520  0.70210  0.60590  Biso   1.000  C
  C70      1.0000 0.66480  0.29790  0.10590  Biso   1.000  C
  C71      1.0000 0.33520  0.29790  0.10590  Biso   1.000  C
  C72      1.0000 0.66480  0.70210  0.60590  Biso   1.000  C
  C73      1.0000 0.67920  0.00520  0.54620  Biso   1.000  C
  C74      1.0000 0.32080  0.99480  0.04620  Biso   1.000  C
  C75      1.0000 0.67920  0.99480  0.04620  Biso   1.000  C
  C76      1.0000 0.32080  0.00520  0.54620  Biso   1.000  C
  C77      1.0000 0.17920  0.50520  0.54620  Biso   1.000  C
  C78      1.0000 0.82080  0.49480  0.04620  Biso   1.000  C
  C79      1.0000 0.17920  0.49480  0.04620  Biso   1.000  C
  C80      1.0000 0.82080  0.50520  0.54620  Biso   1.000  C
  O25      1.0000 0.92200  0.20250  0.09860  Biso   1.000  O
  O26      1.0000 0.07800  0.79750  0.59860  Biso   1.000  O
  O27      1.0000 0.92200  0.79750  0.59860  Biso   1.000  O
  O28      1.0000 0.07800  0.20250  0.09860  Biso   1.000  O
  O29      1.0000 0.42200  0.70250  0.09860  Biso   1.000  O
  O30      1.0000 0.57800  0.29750  0.59860  Biso   1.000  O
  O31      1.0000 0.42200  0.29750  0.59860  Biso   1.000  O
  O32      1.0000 0.57800  0.70250  0.09860  Biso   1.000  O
  C81      1.0000 0.89100  0.11770  0.14960  Biso   1.000  C
  C82      1.0000 0.10900  0.88230  0.64960  Biso   1.000  C
  C83      1.0000 0.89100  0.88230  0.64960  Biso   1.000  C
  C84      1.0000 0.10900  0.11770  0.14960  Biso   1.000  C
  C85      1.0000 0.39100  0.61770  0.14960  Biso   1.000  C
  C86      1.0000 0.60900  0.38230  0.64960  Biso   1.000  C
  C87      1.0000 0.39100  0.38230  0.64960  Biso   1.000  C
  C88      1.0000 0.60900  0.61770  0.14960  Biso   1.000  C
