data_image0
_cell_length_a       13.4
_cell_length_b       15.524
_cell_length_c       27.199
_cell_angle_alpha    90
_cell_angle_beta     90
_cell_angle_gamma    90

_symmetry_space_group_name_H-M    "P 1"
_symmetry_int_tables_number       1

loop_
  _symmetry_equiv_pos_as_xyz
  'x, y, z'

loop_
  _atom_site_label
  _atom_site_occupancy
  _atom_site_fract_x
  _atom_site_fract_y
  _atom_site_fract_z
  _atom_site_thermal_displace_type
  _atom_site_B_iso_or_equiv
  _atom_site_type_symbol
  Cu1      1.0000 0.31505  0.24701  0.42425  Biso   1.000  Cu
  Cu2      1.0000 0.18495  0.75299  0.92425  Biso   1.000  Cu
  Cu3      1.0000 0.68495  0.74701  0.07575  Biso   1.000  Cu
  Cu4      1.0000 0.81505  0.25299  0.57575  Biso   1.000  Cu
  Cu5      1.0000 0.68495  0.75299  0.57575  Biso   1.000  Cu
  Cu6      1.0000 0.81505  0.24701  0.07575  Biso   1.000  Cu
  Cu7      1.0000 0.31505  0.25299  0.92425  Biso   1.000  Cu
  Cu8      1.0000 0.18495  0.74701  0.42425  Biso   1.000  Cu
  Cu9      1.0000 0.41682  0.50637  0.17682  Biso   1.000  Cu
  Cu10     1.0000 0.08318  0.49363  0.67682  Biso   1.000  Cu
  Cu11     1.0000 0.58318  0.00637  0.32318  Biso   1.000  Cu
  Cu12     1.0000 0.91682  0.99363  0.82318  Biso   1.000  Cu
  Cu13     1.0000 0.58318  0.49363  0.82318  Biso   1.000  Cu
  Cu14     1.0000 0.91682  0.50637  0.32318  Biso   1.000  Cu
  Cu15     1.0000 0.41682  0.99363  0.67682  Biso   1.000  Cu
  Cu16     1.0000 0.08318  0.00637  0.17682  Biso   1.000  Cu
  O1       1.0000 0.32981  0.12467  0.43865  Biso   1.000  O
  O2       1.0000 0.17019  0.87533  0.93865  Biso   1.000  O
  O3       1.0000 0.67019  0.62467  0.06135  Biso   1.000  O
  O4       1.0000 0.82981  0.37533  0.56135  Biso   1.000  O
  O5       1.0000 0.67019  0.87533  0.56135  Biso   1.000  O
  O6       1.0000 0.82981  0.12467  0.06135  Biso   1.000  O
  O7       1.0000 0.32981  0.37533  0.93865  Biso   1.000  O
  O8       1.0000 0.17019  0.62467  0.43865  Biso   1.000  O
  O9       1.0000 0.35730  0.03464  0.50043  Biso   1.000  O
  O10      1.0000 0.14270  0.96536  0.00043  Biso   1.000  O
  O11      1.0000 0.64270  0.53464  0.99957  Biso   1.000  O
  O12      1.0000 0.85730  0.46536  0.49957  Biso   1.000  O
  O13      1.0000 0.64270  0.96536  0.49957  Biso   1.000  O
  O14      1.0000 0.85730  0.03464  0.99957  Biso   1.000  O
  O15      1.0000 0.35730  0.46536  0.00043  Biso   1.000  O
  O16      1.0000 0.14270  0.53464  0.50043  Biso   1.000  O
  O17      1.0000 0.40487  0.07890  0.62419  Biso   1.000  O
  O18      1.0000 0.09513  0.92110  0.12419  Biso   1.000  O
  O19      1.0000 0.59513  0.57890  0.87581  Biso   1.000  O
  O20      1.0000 0.90487  0.42110  0.37581  Biso   1.000  O
  O21      1.0000 0.59513  0.92110  0.37581  Biso   1.000  O
  O22      1.0000 0.90487  0.07890  0.87581  Biso   1.000  O
  O23      1.0000 0.40487  0.42110  0.12419  Biso   1.000  O
  O24      1.0000 0.09513  0.57890  0.62419  Biso   1.000  O
  O25      1.0000 0.24947  0.05569  0.59844  Biso   1.000  O
  O26      1.0000 0.25053  0.94431  0.09844  Biso   1.000  O
  O27      1.0000 0.75053  0.55569  0.90156  Biso   1.000  O
  O28      1.0000 0.74947  0.44431  0.40156  Biso   1.000  O
  O29      1.0000 0.75053  0.94431  0.40156  Biso   1.000  O
  O30      1.0000 0.74947  0.05569  0.90156  Biso   1.000  O
  O31      1.0000 0.24947  0.44431  0.09844  Biso   1.000  O
  O32      1.0000 0.25053  0.55569  0.59844  Biso   1.000  O
  O33      1.0000 0.33153  0.36840  0.41047  Biso   1.000  O
  O34      1.0000 0.16847  0.63160  0.91047  Biso   1.000  O
  O35      1.0000 0.66847  0.86840  0.08953  Biso   1.000  O
  O36      1.0000 0.83153  0.13160  0.58953  Biso   1.000  O
  O37      1.0000 0.66847  0.63160  0.58953  Biso   1.000  O
  O38      1.0000 0.83153  0.36840  0.08953  Biso   1.000  O
  O39      1.0000 0.33153  0.13160  0.91047  Biso   1.000  O
  O40      1.0000 0.16847  0.86840  0.41047  Biso   1.000  O
  O41      1.0000 0.34191  0.46299  0.34969  Biso   1.000  O
  O42      1.0000 0.15809  0.53701  0.84969  Biso   1.000  O
  O43      1.0000 0.65809  0.96299  0.15031  Biso   1.000  O
  O44      1.0000 0.84191  0.03701  0.65031  Biso   1.000  O
  O45      1.0000 0.65809  0.53701  0.65031  Biso   1.000  O
  O46      1.0000 0.84191  0.46299  0.15031  Biso   1.000  O
  O47      1.0000 0.34191  0.03701  0.84969  Biso   1.000  O
  O48      1.0000 0.15809  0.96299  0.34969  Biso   1.000  O
  O49      1.0000 0.38463  0.41786  0.22523  Biso   1.000  O
  O50      1.0000 0.11537  0.58214  0.72523  Biso   1.000  O
  O51      1.0000 0.61537  0.91786  0.27477  Biso   1.000  O
  O52      1.0000 0.88463  0.08214  0.77477  Biso   1.000  O
  O53      1.0000 0.61537  0.58214  0.77477  Biso   1.000  O
  O54      1.0000 0.88463  0.41786  0.27477  Biso   1.000  O
  O55      1.0000 0.38463  0.08214  0.72523  Biso   1.000  O
  O56      1.0000 0.11537  0.91786  0.22523  Biso   1.000  O
  O57      1.0000 0.23422  0.45653  0.25322  Biso   1.000  O
  O58      1.0000 0.26578  0.54347  0.75322  Biso   1.000  O
  O59      1.0000 0.76578  0.95653  0.24678  Biso   1.000  O
  O60      1.0000 0.73422  0.04347  0.74678  Biso   1.000  O
  O61      1.0000 0.76578  0.54347  0.74678  Biso   1.000  O
  O62      1.0000 0.73422  0.45653  0.24678  Biso   1.000  O
  O63      1.0000 0.23422  0.04347  0.75322  Biso   1.000  O
  O64      1.0000 0.26578  0.95653  0.25322  Biso   1.000  O
  O65      1.0000 0.14740  0.23882  0.43358  Biso   1.000  O
  O66      1.0000 0.35260  0.76118  0.93358  Biso   1.000  O
  O67      1.0000 0.85260  0.73882  0.06642  Biso   1.000  O
  O68      1.0000 0.64740  0.26118  0.56642  Biso   1.000  O
  O69      1.0000 0.85260  0.76118  0.56642  Biso   1.000  O
  O70      1.0000 0.64740  0.23882  0.06642  Biso   1.000  O
  O71      1.0000 0.14740  0.26118  0.93358  Biso   1.000  O
  O72      1.0000 0.35260  0.73882  0.43358  Biso   1.000  O
  H1       1.0000 0.11200  0.19880  0.43230  Biso   1.000  H
  H2       1.0000 0.38800  0.80120  0.93230  Biso   1.000  H
  H3       1.0000 0.88800  0.69880  0.06770  Biso   1.000  H
  H4       1.0000 0.61200  0.30120  0.56770  Biso   1.000  H
  H5       1.0000 0.88800  0.80120  0.56770  Biso   1.000  H
  H6       1.0000 0.61200  0.19880  0.06770  Biso   1.000  H
  H7       1.0000 0.11200  0.30120  0.93230  Biso   1.000  H
  H8       1.0000 0.38800  0.69880  0.43230  Biso   1.000  H
  H9       1.0000 0.11800  0.28120  0.42740  Biso   1.000  H
  H10      1.0000 0.38200  0.71880  0.92740  Biso   1.000  H
  H11      1.0000 0.88200  0.78120  0.07260  Biso   1.000  H
  H12      1.0000 0.61800  0.21880  0.57260  Biso   1.000  H
  H13      1.0000 0.88200  0.71880  0.57260  Biso   1.000  H
  H14      1.0000 0.61800  0.28120  0.07260  Biso   1.000  H
  H15      1.0000 0.11800  0.21880  0.92740  Biso   1.000  H
  H16      1.0000 0.38200  0.78120  0.42740  Biso   1.000  H
  O73      1.0000 0.58480  0.46870  0.17481  Biso   1.000  O
  O74      1.0000 0.91520  0.53130  0.67481  Biso   1.000  O
  O75      1.0000 0.41520  0.96870  0.32519  Biso   1.000  O
  O76      1.0000 0.08480  0.03130  0.82519  Biso   1.000  O
  O77      1.0000 0.41520  0.53130  0.82519  Biso   1.000  O
  O78      1.0000 0.08480  0.46870  0.32519  Biso   1.000  O
  O79      1.0000 0.58480  0.03130  0.67481  Biso   1.000  O
  O80      1.0000 0.91520  0.96870  0.17481  Biso   1.000  O
  H17      1.0000 0.60600  0.45100  0.14910  Biso   1.000  H
  H18      1.0000 0.89400  0.54900  0.64910  Biso   1.000  H
  H19      1.0000 0.39400  0.95100  0.35090  Biso   1.000  H
  H20      1.0000 0.10600  0.04900  0.85090  Biso   1.000  H
  H21      1.0000 0.39400  0.54900  0.85090  Biso   1.000  H
  H22      1.0000 0.10600  0.45100  0.35090  Biso   1.000  H
  H23      1.0000 0.60600  0.04900  0.64910  Biso   1.000  H
  H24      1.0000 0.89400  0.95100  0.14910  Biso   1.000  H
  H25      1.0000 0.63300  0.46100  0.19340  Biso   1.000  H
  H26      1.0000 0.86700  0.53900  0.69340  Biso   1.000  H
  H27      1.0000 0.36700  0.96100  0.30660  Biso   1.000  H
  H28      1.0000 0.13300  0.03900  0.80660  Biso   1.000  H
  H29      1.0000 0.36700  0.53900  0.80660  Biso   1.000  H
  H30      1.0000 0.13300  0.46100  0.30660  Biso   1.000  H
  H31      1.0000 0.63300  0.03900  0.69340  Biso   1.000  H
  H32      1.0000 0.86700  0.96100  0.19340  Biso   1.000  H
  N1       1.0000 0.33595  0.25913  0.49533  Biso   1.000  N
  N2       1.0000 0.16405  0.74087  0.99533  Biso   1.000  N
  N3       1.0000 0.66405  0.75913  0.00467  Biso   1.000  N
  N4       1.0000 0.83595  0.24087  0.50467  Biso   1.000  N
  N5       1.0000 0.66405  0.74087  0.50467  Biso   1.000  N
  N6       1.0000 0.83595  0.25913  0.00467  Biso   1.000  N
  N7       1.0000 0.33595  0.24087  0.99533  Biso   1.000  N
  N8       1.0000 0.16405  0.75913  0.49533  Biso   1.000  N
  N9       1.0000 0.30988  0.23844  0.35200  Biso   1.000  N
  N10      1.0000 0.19012  0.76156  0.85200  Biso   1.000  N
  N11      1.0000 0.69012  0.73844  0.14800  Biso   1.000  N
  N12      1.0000 0.80988  0.26156  0.64800  Biso   1.000  N
  N13      1.0000 0.69012  0.76156  0.64800  Biso   1.000  N
  N14      1.0000 0.80988  0.23844  0.14800  Biso   1.000  N
  N15      1.0000 0.30988  0.26156  0.85200  Biso   1.000  N
  N16      1.0000 0.19012  0.73844  0.35200  Biso   1.000  N
  N17      1.0000 0.43742  0.59989  0.22646  Biso   1.000  N
  N18      1.0000 0.06258  0.40011  0.72646  Biso   1.000  N
  N19      1.0000 0.56258  0.09989  0.27354  Biso   1.000  N
  N20      1.0000 0.93742  0.90011  0.77354  Biso   1.000  N
  N21      1.0000 0.56258  0.40011  0.77354  Biso   1.000  N
  N22      1.0000 0.93742  0.59989  0.27354  Biso   1.000  N
  N23      1.0000 0.43742  0.90011  0.72646  Biso   1.000  N
  N24      1.0000 0.06258  0.09989  0.22646  Biso   1.000  N
  N25      1.0000 0.42457  0.60581  0.12972  Biso   1.000  N
  N26      1.0000 0.07543  0.39419  0.62972  Biso   1.000  N
  N27      1.0000 0.57543  0.10581  0.37028  Biso   1.000  N
  N28      1.0000 0.92457  0.89419  0.87028  Biso   1.000  N
  N29      1.0000 0.57543  0.39419  0.87028  Biso   1.000  N
  N30      1.0000 0.92457  0.60581  0.37028  Biso   1.000  N
  N31      1.0000 0.42457  0.89419  0.62972  Biso   1.000  N
  N32      1.0000 0.07543  0.10581  0.12972  Biso   1.000  N
  C1       1.0000 0.33600  0.18263  0.51873  Biso   1.000  C
  C2       1.0000 0.16400  0.81737  0.01873  Biso   1.000  C
  C3       1.0000 0.66400  0.68263  0.98127  Biso   1.000  C
  C4       1.0000 0.83600  0.31737  0.48127  Biso   1.000  C
  C5       1.0000 0.66400  0.81737  0.48127  Biso   1.000  C
  C6       1.0000 0.83600  0.18263  0.98127  Biso   1.000  C
  C7       1.0000 0.33600  0.31737  0.01873  Biso   1.000  C
  C8       1.0000 0.16400  0.68263  0.51873  Biso   1.000  C
  C9       1.0000 0.33660  0.17823  0.56962  Biso   1.000  C
  C10      1.0000 0.16340  0.82177  0.06962  Biso   1.000  C
  C11      1.0000 0.66340  0.67823  0.93038  Biso   1.000  C
  C12      1.0000 0.83660  0.32177  0.43038  Biso   1.000  C
  C13      1.0000 0.66340  0.82177  0.43038  Biso   1.000  C
  C14      1.0000 0.83660  0.17823  0.93038  Biso   1.000  C
  C15      1.0000 0.33660  0.32177  0.06962  Biso   1.000  C
  C16      1.0000 0.16340  0.67823  0.56962  Biso   1.000  C
  C17      1.0000 0.34380  0.25508  0.59548  Biso   1.000  C
  C18      1.0000 0.15620  0.74492  0.09548  Biso   1.000  C
  C19      1.0000 0.65620  0.75508  0.90452  Biso   1.000  C
  C20      1.0000 0.84380  0.24492  0.40452  Biso   1.000  C
  C21      1.0000 0.65620  0.74492  0.40452  Biso   1.000  C
  C22      1.0000 0.84380  0.25508  0.90452  Biso   1.000  C
  C23      1.0000 0.34380  0.24492  0.09548  Biso   1.000  C
  C24      1.0000 0.15620  0.75508  0.59548  Biso   1.000  C
  H33      1.0000 0.34740  0.25410  0.62960  Biso   1.000  H
  H34      1.0000 0.15260  0.74590  0.12960  Biso   1.000  H
  H35      1.0000 0.65260  0.75410  0.87040  Biso   1.000  H
  H36      1.0000 0.84740  0.24590  0.37040  Biso   1.000  H
  H37      1.0000 0.65260  0.74590  0.37040  Biso   1.000  H
  H38      1.0000 0.84740  0.25410  0.87040  Biso   1.000  H
  H39      1.0000 0.34740  0.24590  0.12960  Biso   1.000  H
  H40      1.0000 0.15260  0.75410  0.62960  Biso   1.000  H
  C25      1.0000 0.34570  0.33271  0.57111  Biso   1.000  C
  C26      1.0000 0.15430  0.66729  0.07111  Biso   1.000  C
  C27      1.0000 0.65430  0.83271  0.92889  Biso   1.000  C
  C28      1.0000 0.84570  0.16729  0.42889  Biso   1.000  C
  C29      1.0000 0.65430  0.66729  0.42889  Biso   1.000  C
  C30      1.0000 0.84570  0.33271  0.92889  Biso   1.000  C
  C31      1.0000 0.34570  0.16729  0.07111  Biso   1.000  C
  C32      1.0000 0.15430  0.83271  0.57111  Biso   1.000  C
  H41      1.0000 0.35070  0.38420  0.58840  Biso   1.000  H
  H42      1.0000 0.14930  0.61580  0.08840  Biso   1.000  H
  H43      1.0000 0.64930  0.88420  0.91160  Biso   1.000  H
  H44      1.0000 0.85070  0.11580  0.41160  Biso   1.000  H
  H45      1.0000 0.64930  0.61580  0.41160  Biso   1.000  H
  H46      1.0000 0.85070  0.38420  0.91160  Biso   1.000  H
  H47      1.0000 0.35070  0.11580  0.08840  Biso   1.000  H
  H48      1.0000 0.14930  0.88420  0.58840  Biso   1.000  H
  C33      1.0000 0.34010  0.33262  0.52072  Biso   1.000  C
  C34      1.0000 0.15990  0.66738  0.02072  Biso   1.000  C
  C35      1.0000 0.65990  0.83262  0.97928  Biso   1.000  C
  C36      1.0000 0.84010  0.16738  0.47928  Biso   1.000  C
  C37      1.0000 0.65990  0.66738  0.47928  Biso   1.000  C
  C38      1.0000 0.84010  0.33262  0.97928  Biso   1.000  C
  C39      1.0000 0.34010  0.16738  0.02072  Biso   1.000  C
  C40      1.0000 0.15990  0.83262  0.52072  Biso   1.000  C
  H49      1.0000 0.33910  0.38480  0.50390  Biso   1.000  H
  H50      1.0000 0.16090  0.61520  0.00390  Biso   1.000  H
  H51      1.0000 0.66090  0.88480  0.99610  Biso   1.000  H
  H52      1.0000 0.83910  0.11520  0.49610  Biso   1.000  H
  H53      1.0000 0.66090  0.61520  0.49610  Biso   1.000  H
  H54      1.0000 0.83910  0.38480  0.99610  Biso   1.000  H
  H55      1.0000 0.33910  0.11520  0.00390  Biso   1.000  H
  H56      1.0000 0.16090  0.88480  0.50390  Biso   1.000  H
  C41      1.0000 0.34040  0.10644  0.48391  Biso   1.000  C
  C42      1.0000 0.15960  0.89356  0.98391  Biso   1.000  C
  C43      1.0000 0.65960  0.60644  0.01609  Biso   1.000  C
  C44      1.0000 0.84040  0.39356  0.51609  Biso   1.000  C
  C45      1.0000 0.65960  0.89356  0.51609  Biso   1.000  C
  C46      1.0000 0.84040  0.10644  0.01609  Biso   1.000  C
  C47      1.0000 0.34040  0.39356  0.98391  Biso   1.000  C
  C48      1.0000 0.15960  0.60644  0.48391  Biso   1.000  C
  C49      1.0000 0.32800  0.09594  0.59871  Biso   1.000  C
  C50      1.0000 0.17200  0.90406  0.09871  Biso   1.000  C
  C51      1.0000 0.67200  0.59594  0.90129  Biso   1.000  C
  C52      1.0000 0.82800  0.40406  0.40129  Biso   1.000  C
  C53      1.0000 0.67200  0.90406  0.40129  Biso   1.000  C
  C54      1.0000 0.82800  0.09594  0.90129  Biso   1.000  C
  C55      1.0000 0.32800  0.40406  0.09871  Biso   1.000  C
  C56      1.0000 0.17200  0.59594  0.59871  Biso   1.000  C
  C57      1.0000 0.31290  0.31590  0.32973  Biso   1.000  C
  C58      1.0000 0.18710  0.68410  0.82973  Biso   1.000  C
  C59      1.0000 0.68710  0.81590  0.17027  Biso   1.000  C
  C60      1.0000 0.81290  0.18410  0.67027  Biso   1.000  C
  C61      1.0000 0.68710  0.68410  0.67027  Biso   1.000  C
  C62      1.0000 0.81290  0.31590  0.17027  Biso   1.000  C
  C63      1.0000 0.31290  0.18410  0.82973  Biso   1.000  C
  C64      1.0000 0.18710  0.81590  0.32973  Biso   1.000  C
  C65      1.0000 0.30559  0.32326  0.27913  Biso   1.000  C
  C66      1.0000 0.19441  0.67674  0.77913  Biso   1.000  C
  C67      1.0000 0.69441  0.82326  0.22087  Biso   1.000  C
  C68      1.0000 0.80559  0.17674  0.72087  Biso   1.000  C
  C69      1.0000 0.69441  0.67674  0.72087  Biso   1.000  C
  C70      1.0000 0.80559  0.32326  0.22087  Biso   1.000  C
  C71      1.0000 0.30559  0.17674  0.77913  Biso   1.000  C
  C72      1.0000 0.19441  0.82326  0.27913  Biso   1.000  C
  C73      1.0000 0.29660  0.24762  0.25214  Biso   1.000  C
  C74      1.0000 0.20340  0.75238  0.75214  Biso   1.000  C
  C75      1.0000 0.70340  0.74762  0.24786  Biso   1.000  C
  C76      1.0000 0.79660  0.25238  0.74786  Biso   1.000  C
  C77      1.0000 0.70340  0.75238  0.74786  Biso   1.000  C
  C78      1.0000 0.79660  0.24762  0.24786  Biso   1.000  C
  C79      1.0000 0.29660  0.25238  0.75214  Biso   1.000  C
  C80      1.0000 0.20340  0.74762  0.25214  Biso   1.000  C
  H57      1.0000 0.29270  0.25010  0.21800  Biso   1.000  H
  H58      1.0000 0.20730  0.74990  0.71800  Biso   1.000  H
  H59      1.0000 0.70730  0.75010  0.28200  Biso   1.000  H
  H60      1.0000 0.79270  0.24990  0.78200  Biso   1.000  H
  H61      1.0000 0.70730  0.74990  0.78200  Biso   1.000  H
  H62      1.0000 0.79270  0.25010  0.28200  Biso   1.000  H
  H63      1.0000 0.29270  0.24990  0.71800  Biso   1.000  H
  H64      1.0000 0.20730  0.75010  0.21800  Biso   1.000  H
  C81      1.0000 0.29360  0.16878  0.27558  Biso   1.000  C
  C82      1.0000 0.20640  0.83122  0.77558  Biso   1.000  C
  C83      1.0000 0.70640  0.66878  0.22442  Biso   1.000  C
  C84      1.0000 0.79360  0.33122  0.72442  Biso   1.000  C
  C85      1.0000 0.70640  0.83122  0.72442  Biso   1.000  C
  C86      1.0000 0.79360  0.16878  0.22442  Biso   1.000  C
  C87      1.0000 0.29360  0.33122  0.77558  Biso   1.000  C
  C88      1.0000 0.20640  0.66878  0.27558  Biso   1.000  C
  H65      1.0000 0.28750  0.11820  0.25750  Biso   1.000  H
  H66      1.0000 0.21250  0.88180  0.75750  Biso   1.000  H
  H67      1.0000 0.71250  0.61820  0.24250  Biso   1.000  H
  H68      1.0000 0.78750  0.38180  0.74250  Biso   1.000  H
  H69      1.0000 0.71250  0.88180  0.74250  Biso   1.000  H
  H70      1.0000 0.78750  0.11820  0.24250  Biso   1.000  H
  H71      1.0000 0.28750  0.38180  0.75750  Biso   1.000  H
  H72      1.0000 0.21250  0.61820  0.25750  Biso   1.000  H
  C89      1.0000 0.29980  0.16608  0.32588  Biso   1.000  C
  C90      1.0000 0.20020  0.83392  0.82588  Biso   1.000  C
  C91      1.0000 0.70020  0.66608  0.17412  Biso   1.000  C
  C92      1.0000 0.79980  0.33392  0.67412  Biso   1.000  C
  C93      1.0000 0.70020  0.83392  0.67412  Biso   1.000  C
  C94      1.0000 0.79980  0.16608  0.17412  Biso   1.000  C
  C95      1.0000 0.29980  0.33392  0.82588  Biso   1.000  C
  C96      1.0000 0.20020  0.66608  0.32588  Biso   1.000  C
  H73      1.0000 0.29690  0.11330  0.34200  Biso   1.000  H
  H74      1.0000 0.20310  0.88670  0.84200  Biso   1.000  H
  H75      1.0000 0.70310  0.61330  0.15800  Biso   1.000  H
  H76      1.0000 0.79690  0.38670  0.65800  Biso   1.000  H
  H77      1.0000 0.70310  0.88670  0.65800  Biso   1.000  H
  H78      1.0000 0.79690  0.11330  0.15800  Biso   1.000  H
  H79      1.0000 0.29690  0.38670  0.84200  Biso   1.000  H
  H80      1.0000 0.20310  0.61330  0.34200  Biso   1.000  H
  C97      1.0000 0.32990  0.39038  0.36522  Biso   1.000  C
  C98      1.0000 0.17010  0.60962  0.86522  Biso   1.000  C
  C99      1.0000 0.67010  0.89038  0.13478  Biso   1.000  C
  C100     1.0000 0.82990  0.10962  0.63478  Biso   1.000  C
  C101     1.0000 0.67010  0.60962  0.63478  Biso   1.000  C
  C102     1.0000 0.82990  0.39038  0.13478  Biso   1.000  C
  C103     1.0000 0.32990  0.10962  0.86522  Biso   1.000  C
  C104     1.0000 0.17010  0.89038  0.36522  Biso   1.000  C
  C105     1.0000 0.30700  0.40836  0.25116  Biso   1.000  C
  C106     1.0000 0.19300  0.59164  0.75116  Biso   1.000  C
  C107     1.0000 0.69300  0.90836  0.24884  Biso   1.000  C
  C108     1.0000 0.80700  0.09164  0.74884  Biso   1.000  C
  C109     1.0000 0.69300  0.59164  0.74884  Biso   1.000  C
  C110     1.0000 0.80700  0.40836  0.24884  Biso   1.000  C
  C111     1.0000 0.30700  0.09164  0.75116  Biso   1.000  C
  C112     1.0000 0.19300  0.90836  0.25116  Biso   1.000  C
  C113     1.0000 0.44810  0.59482  0.27483  Biso   1.000  C
  C114     1.0000 0.05190  0.40518  0.77483  Biso   1.000  C
  C115     1.0000 0.55190  0.09482  0.22517  Biso   1.000  C
  C116     1.0000 0.94810  0.90518  0.72517  Biso   1.000  C
  C117     1.0000 0.55190  0.40518  0.72517  Biso   1.000  C
  C118     1.0000 0.94810  0.59482  0.22517  Biso   1.000  C
  C119     1.0000 0.44810  0.90518  0.77483  Biso   1.000  C
  C120     1.0000 0.05190  0.09482  0.27483  Biso   1.000  C
  H81      1.0000 0.44810  0.54080  0.28960  Biso   1.000  H
  H82      1.0000 0.05190  0.45920  0.78960  Biso   1.000  H
  H83      1.0000 0.55190  0.04080  0.21040  Biso   1.000  H
  H84      1.0000 0.94810  0.95920  0.71040  Biso   1.000  H
  H85      1.0000 0.55190  0.45920  0.71040  Biso   1.000  H
  H86      1.0000 0.94810  0.54080  0.21040  Biso   1.000  H
  H87      1.0000 0.44810  0.95920  0.78960  Biso   1.000  H
  H88      1.0000 0.05190  0.04080  0.28960  Biso   1.000  H
  C121     1.0000 0.45940  0.66793  0.30456  Biso   1.000  C
  C122     1.0000 0.04060  0.33207  0.80456  Biso   1.000  C
  C123     1.0000 0.54060  0.16793  0.19544  Biso   1.000  C
  C124     1.0000 0.95940  0.83207  0.69544  Biso   1.000  C
  C125     1.0000 0.54060  0.33207  0.69544  Biso   1.000  C
  C126     1.0000 0.95940  0.66793  0.19544  Biso   1.000  C
  C127     1.0000 0.45940  0.83207  0.80456  Biso   1.000  C
  C128     1.0000 0.04060  0.16793  0.30456  Biso   1.000  C
  H89      1.0000 0.46760  0.66180  0.33830  Biso   1.000  H
  H90      1.0000 0.03240  0.33820  0.83830  Biso   1.000  H
  H91      1.0000 0.53240  0.16180  0.16170  Biso   1.000  H
  H92      1.0000 0.96760  0.83820  0.66170  Biso   1.000  H
  H93      1.0000 0.53240  0.33820  0.66170  Biso   1.000  H
  H94      1.0000 0.96760  0.66180  0.16170  Biso   1.000  H
  H95      1.0000 0.46760  0.83820  0.83830  Biso   1.000  H
  H96      1.0000 0.03240  0.16180  0.33830  Biso   1.000  H
  C129     1.0000 0.45830  0.74784  0.28412  Biso   1.000  C
  C130     1.0000 0.04170  0.25216  0.78412  Biso   1.000  C
  C131     1.0000 0.54170  0.24784  0.21588  Biso   1.000  C
  C132     1.0000 0.95830  0.75216  0.71588  Biso   1.000  C
  C133     1.0000 0.54170  0.25216  0.71588  Biso   1.000  C
  C134     1.0000 0.95830  0.74784  0.21588  Biso   1.000  C
  C135     1.0000 0.45830  0.75216  0.78412  Biso   1.000  C
  C136     1.0000 0.04170  0.24784  0.28412  Biso   1.000  C
  H97      1.0000 0.46550  0.79650  0.30370  Biso   1.000  H
  H98      1.0000 0.03450  0.20350  0.80370  Biso   1.000  H
  H99      1.0000 0.53450  0.29650  0.19630  Biso   1.000  H
  H100     1.0000 0.96550  0.70350  0.69630  Biso   1.000  H
  H101     1.0000 0.53450  0.20350  0.69630  Biso   1.000  H
  H102     1.0000 0.96550  0.79650  0.19630  Biso   1.000  H
  H103     1.0000 0.46550  0.70350  0.80370  Biso   1.000  H
  H104     1.0000 0.03450  0.29650  0.30370  Biso   1.000  H
  C137     1.0000 0.44260  0.83665  0.20699  Biso   1.000  C
  C138     1.0000 0.05740  0.16335  0.70699  Biso   1.000  C
  C139     1.0000 0.55740  0.33665  0.29301  Biso   1.000  C
  C140     1.0000 0.94260  0.66335  0.79301  Biso   1.000  C
  C141     1.0000 0.55740  0.16335  0.79301  Biso   1.000  C
  C142     1.0000 0.94260  0.83665  0.29301  Biso   1.000  C
  C143     1.0000 0.44260  0.66335  0.70699  Biso   1.000  C
  C144     1.0000 0.05740  0.33665  0.20699  Biso   1.000  C
  H105     1.0000 0.44580  0.88790  0.22460  Biso   1.000  H
  H106     1.0000 0.05420  0.11210  0.72460  Biso   1.000  H
  H107     1.0000 0.55420  0.38790  0.27540  Biso   1.000  H
  H108     1.0000 0.94580  0.61210  0.77540  Biso   1.000  H
  H109     1.0000 0.55420  0.11210  0.77540  Biso   1.000  H
  H110     1.0000 0.94580  0.88790  0.27540  Biso   1.000  H
  H111     1.0000 0.44580  0.61210  0.72460  Biso   1.000  H
  H112     1.0000 0.05420  0.38790  0.22460  Biso   1.000  H
  C145     1.0000 0.43470  0.83952  0.15758  Biso   1.000  C
  C146     1.0000 0.06530  0.16048  0.65758  Biso   1.000  C
  C147     1.0000 0.56530  0.33952  0.34242  Biso   1.000  C
  C148     1.0000 0.93470  0.66048  0.84242  Biso   1.000  C
  C149     1.0000 0.56530  0.16048  0.84242  Biso   1.000  C
  C150     1.0000 0.93470  0.83952  0.34242  Biso   1.000  C
  C151     1.0000 0.43470  0.66048  0.65758  Biso   1.000  C
  C152     1.0000 0.06530  0.33952  0.15758  Biso   1.000  C
  H113     1.0000 0.43250  0.89270  0.14190  Biso   1.000  H
  H114     1.0000 0.06750  0.10730  0.64190  Biso   1.000  H
  H115     1.0000 0.56750  0.39270  0.35810  Biso   1.000  H
  H116     1.0000 0.93250  0.60730  0.85810  Biso   1.000  H
  H117     1.0000 0.56750  0.10730  0.85810  Biso   1.000  H
  H118     1.0000 0.93250  0.89270  0.35810  Biso   1.000  H
  H119     1.0000 0.43250  0.60730  0.64190  Biso   1.000  H
  H120     1.0000 0.06750  0.39270  0.14190  Biso   1.000  H
  C153     1.0000 0.42590  0.75972  0.07701  Biso   1.000  C
  C154     1.0000 0.07410  0.24028  0.57701  Biso   1.000  C
  C155     1.0000 0.57410  0.25972  0.42299  Biso   1.000  C
  C156     1.0000 0.92590  0.74028  0.92299  Biso   1.000  C
  C157     1.0000 0.57410  0.24028  0.92299  Biso   1.000  C
  C158     1.0000 0.92590  0.75972  0.42299  Biso   1.000  C
  C159     1.0000 0.42590  0.74028  0.57701  Biso   1.000  C
  C160     1.0000 0.07410  0.25972  0.07701  Biso   1.000  C
  H121     1.0000 0.42690  0.81060  0.05890  Biso   1.000  H
  H122     1.0000 0.07310  0.18940  0.55890  Biso   1.000  H
  H123     1.0000 0.57310  0.31060  0.44110  Biso   1.000  H
  H124     1.0000 0.92690  0.68940  0.94110  Biso   1.000  H
  H125     1.0000 0.57310  0.18940  0.94110  Biso   1.000  H
  H126     1.0000 0.92690  0.81060  0.44110  Biso   1.000  H
  H127     1.0000 0.42690  0.68940  0.55890  Biso   1.000  H
  H128     1.0000 0.07310  0.31060  0.05890  Biso   1.000  H
  C161     1.0000 0.42090  0.68274  0.05378  Biso   1.000  C
  C162     1.0000 0.07910  0.31726  0.55378  Biso   1.000  C
  C163     1.0000 0.57910  0.18274  0.44622  Biso   1.000  C
  C164     1.0000 0.92090  0.81726  0.94622  Biso   1.000  C
  C165     1.0000 0.57910  0.31726  0.94622  Biso   1.000  C
  C166     1.0000 0.92090  0.68274  0.44622  Biso   1.000  C
  C167     1.0000 0.42090  0.81726  0.55378  Biso   1.000  C
  C168     1.0000 0.07910  0.18274  0.05378  Biso   1.000  C
  H129     1.0000 0.41830  0.68070  0.01960  Biso   1.000  H
  H130     1.0000 0.08170  0.31930  0.51960  Biso   1.000  H
  H131     1.0000 0.58170  0.18070  0.48040  Biso   1.000  H
  H132     1.0000 0.91830  0.81930  0.98040  Biso   1.000  H
  H133     1.0000 0.58170  0.31930  0.98040  Biso   1.000  H
  H134     1.0000 0.91830  0.68070  0.48040  Biso   1.000  H
  H135     1.0000 0.41830  0.81930  0.51960  Biso   1.000  H
  H136     1.0000 0.08170  0.18070  0.01960  Biso   1.000  H
  C169     1.0000 0.41960  0.60654  0.08079  Biso   1.000  C
  C170     1.0000 0.08040  0.39346  0.58079  Biso   1.000  C
  C171     1.0000 0.58040  0.10654  0.41921  Biso   1.000  C
  C172     1.0000 0.91960  0.89346  0.91921  Biso   1.000  C
  C173     1.0000 0.58040  0.39346  0.91921  Biso   1.000  C
  C174     1.0000 0.91960  0.60654  0.41921  Biso   1.000  C
  C175     1.0000 0.41960  0.89346  0.58079  Biso   1.000  C
  C176     1.0000 0.08040  0.10654  0.08079  Biso   1.000  C
  H137     1.0000 0.41510  0.55440  0.06410  Biso   1.000  H
  H138     1.0000 0.08490  0.44560  0.56410  Biso   1.000  H
  H139     1.0000 0.58490  0.05440  0.43590  Biso   1.000  H
  H140     1.0000 0.91510  0.94560  0.93590  Biso   1.000  H
  H141     1.0000 0.58490  0.44560  0.93590  Biso   1.000  H
  H142     1.0000 0.91510  0.55440  0.43590  Biso   1.000  H
  H143     1.0000 0.41510  0.94560  0.56410  Biso   1.000  H
  H144     1.0000 0.08490  0.05440  0.06410  Biso   1.000  H
  C177     1.0000 0.43773  0.67989  0.20563  Biso   1.000  C
  C178     1.0000 0.06227  0.32011  0.70563  Biso   1.000  C
  C179     1.0000 0.56227  0.17989  0.29437  Biso   1.000  C
  C180     1.0000 0.93773  0.82011  0.79437  Biso   1.000  C
  C181     1.0000 0.56227  0.32011  0.79437  Biso   1.000  C
  C182     1.0000 0.93773  0.67989  0.29437  Biso   1.000  C
  C183     1.0000 0.43773  0.82011  0.70563  Biso   1.000  C
  C184     1.0000 0.06227  0.17989  0.20563  Biso   1.000  C
  C185     1.0000 0.44620  0.75608  0.23300  Biso   1.000  C
  C186     1.0000 0.05380  0.24392  0.73300  Biso   1.000  C
  C187     1.0000 0.55380  0.25608  0.26700  Biso   1.000  C
  C188     1.0000 0.94620  0.74392  0.76700  Biso   1.000  C
  C189     1.0000 0.55380  0.24392  0.76700  Biso   1.000  C
  C190     1.0000 0.94620  0.75608  0.26700  Biso   1.000  C
  C191     1.0000 0.44620  0.74392  0.73300  Biso   1.000  C
  C192     1.0000 0.05380  0.25608  0.23300  Biso   1.000  C
  C193     1.0000 0.42950  0.76236  0.12877  Biso   1.000  C
  C194     1.0000 0.07050  0.23764  0.62877  Biso   1.000  C
  C195     1.0000 0.57050  0.26236  0.37123  Biso   1.000  C
  C196     1.0000 0.92950  0.73764  0.87123  Biso   1.000  C
  C197     1.0000 0.57050  0.23764  0.87123  Biso   1.000  C
  C198     1.0000 0.92950  0.76236  0.37123  Biso   1.000  C
  C199     1.0000 0.42950  0.73764  0.62877  Biso   1.000  C
  C200     1.0000 0.07050  0.26236  0.12877  Biso   1.000  C
  C201     1.0000 0.42946  0.68310  0.15320  Biso   1.000  C
  C202     1.0000 0.07054  0.31690  0.65320  Biso   1.000  C
  C203     1.0000 0.57054  0.18310  0.34680  Biso   1.000  C
  C204     1.0000 0.92946  0.81690  0.84680  Biso   1.000  C
  C205     1.0000 0.57054  0.31690  0.84680  Biso   1.000  C
  C206     1.0000 0.92946  0.68310  0.34680  Biso   1.000  C
  C207     1.0000 0.42946  0.81690  0.65320  Biso   1.000  C
  C208     1.0000 0.07054  0.18310  0.15320  Biso   1.000  C
  O81      1.0000 0.09240  0.03753  0.53176  Biso   1.000  O
  O82      1.0000 0.40760  0.96247  0.03176  Biso   1.000  O
  O83      1.0000 0.90760  0.53753  0.96824  Biso   1.000  O
  O84      1.0000 0.59240  0.46247  0.46824  Biso   1.000  O
  O85      1.0000 0.90760  0.96247  0.46824  Biso   1.000  O
  O86      1.0000 0.59240  0.03753  0.96824  Biso   1.000  O
  O87      1.0000 0.09240  0.46247  0.03176  Biso   1.000  O
  O88      1.0000 0.40760  0.53753  0.53176  Biso   1.000  O
  H145     1.0000 0.14520  0.03900  0.54550  Biso   1.000  H
  H146     1.0000 0.35480  0.96100  0.04550  Biso   1.000  H
  H147     1.0000 0.85480  0.53900  0.95450  Biso   1.000  H
  H148     1.0000 0.64520  0.46100  0.45450  Biso   1.000  H
  H149     1.0000 0.85480  0.96100  0.45450  Biso   1.000  H
  H150     1.0000 0.64520  0.03900  0.95450  Biso   1.000  H
  H151     1.0000 0.14520  0.46100  0.04550  Biso   1.000  H
  H152     1.0000 0.35480  0.53900  0.54550  Biso   1.000  H
  O89      1.0000 0.07090  0.06573  0.42859  Biso   1.000  O
  O90      1.0000 0.42910  0.93427  0.92859  Biso   1.000  O
  O91      1.0000 0.92910  0.56573  0.07141  Biso   1.000  O
  O92      1.0000 0.57090  0.43427  0.57141  Biso   1.000  O
  O93      1.0000 0.92910  0.93427  0.57141  Biso   1.000  O
  O94      1.0000 0.57090  0.06573  0.07141  Biso   1.000  O
  O95      1.0000 0.07090  0.43427  0.92859  Biso   1.000  O
  O96      1.0000 0.42910  0.56573  0.42859  Biso   1.000  O
  H153     1.0000 0.10000  0.03800  0.40870  Biso   1.000  H
  H154     1.0000 0.40000  0.96200  0.90870  Biso   1.000  H
  H155     1.0000 0.90000  0.53800  0.09130  Biso   1.000  H
  H156     1.0000 0.60000  0.46200  0.59130  Biso   1.000  H
  H157     1.0000 0.90000  0.96200  0.59130  Biso   1.000  H
  H158     1.0000 0.60000  0.03800  0.09130  Biso   1.000  H
  H159     1.0000 0.10000  0.46200  0.90870  Biso   1.000  H
  H160     1.0000 0.40000  0.53800  0.40870  Biso   1.000  H
  H161     1.0000 0.05800  0.03600  0.45230  Biso   1.000  H
  H162     1.0000 0.44200  0.96400  0.95230  Biso   1.000  H
  H163     1.0000 0.94200  0.53600  0.04770  Biso   1.000  H
  H164     1.0000 0.55800  0.46400  0.54770  Biso   1.000  H
  H165     1.0000 0.94200  0.96400  0.54770  Biso   1.000  H
  H166     1.0000 0.55800  0.03600  0.04770  Biso   1.000  H
  H167     1.0000 0.05800  0.46400  0.95230  Biso   1.000  H
  H168     1.0000 0.44200  0.53600  0.45230  Biso   1.000  H
  O97      1.0000 0.20060  0.93999  0.67173  Biso   1.000  O
  O98      1.0000 0.29940  0.06001  0.17173  Biso   1.000  O
  O99      1.0000 0.79940  0.43999  0.82827  Biso   1.000  O
  O100     1.0000 0.70060  0.56001  0.32827  Biso   1.000  O
  O101     1.0000 0.79940  0.06001  0.32827  Biso   1.000  O
  O102     1.0000 0.70060  0.93999  0.82827  Biso   1.000  O
  O103     1.0000 0.20060  0.56001  0.17173  Biso   1.000  O
  O104     1.0000 0.29940  0.43999  0.67173  Biso   1.000  O
  H169     1.0000 0.19500  0.97500  0.69520  Biso   1.000  H
  H170     1.0000 0.30500  0.02500  0.19520  Biso   1.000  H
  H171     1.0000 0.80500  0.47500  0.80480  Biso   1.000  H
  H172     1.0000 0.69500  0.52500  0.30480  Biso   1.000  H
  H173     1.0000 0.80500  0.02500  0.30480  Biso   1.000  H
  H174     1.0000 0.69500  0.97500  0.80480  Biso   1.000  H
  H175     1.0000 0.19500  0.52500  0.19520  Biso   1.000  H
  H176     1.0000 0.30500  0.47500  0.69520  Biso   1.000  H
  H177     1.0000 0.20700  0.97300  0.64740  Biso   1.000  H
  H178     1.0000 0.29300  0.02700  0.14740  Biso   1.000  H
  H179     1.0000 0.79300  0.47300  0.85260  Biso   1.000  H
  H180     1.0000 0.70700  0.52700  0.35260  Biso   1.000  H
  H181     1.0000 0.79300  0.02700  0.35260  Biso   1.000  H
  H182     1.0000 0.70700  0.97300  0.85260  Biso   1.000  H
  H183     1.0000 0.20700  0.52700  0.14740  Biso   1.000  H
  H184     1.0000 0.29300  0.47300  0.64740  Biso   1.000  H
  O105     1.0000 0.09310  0.41050  0.42701  Biso   1.000  O
  O106     1.0000 0.40690  0.58950  0.92701  Biso   1.000  O
  O107     1.0000 0.90690  0.91050  0.07299  Biso   1.000  O
  O108     1.0000 0.59310  0.08950  0.57299  Biso   1.000  O
  O109     1.0000 0.90690  0.58950  0.57299  Biso   1.000  O
  O110     1.0000 0.59310  0.41050  0.07299  Biso   1.000  O
  O111     1.0000 0.09310  0.08950  0.92701  Biso   1.000  O
  O112     1.0000 0.40690  0.91050  0.42701  Biso   1.000  O
  H185     1.0000 0.11200  0.44700  0.44520  Biso   1.000  H
  H186     1.0000 0.38800  0.55300  0.94520  Biso   1.000  H
  H187     1.0000 0.88800  0.94700  0.05480  Biso   1.000  H
  H188     1.0000 0.61200  0.05300  0.55480  Biso   1.000  H
  H189     1.0000 0.88800  0.55300  0.55480  Biso   1.000  H
  H190     1.0000 0.61200  0.44700  0.05480  Biso   1.000  H
  H191     1.0000 0.11200  0.05300  0.94520  Biso   1.000  H
  H192     1.0000 0.38800  0.94700  0.44520  Biso   1.000  H
  H193     1.0000 0.03510  0.41600  0.42270  Biso   1.000  H
  H194     1.0000 0.46490  0.58400  0.92270  Biso   1.000  H
  H195     1.0000 0.96490  0.91600  0.07730  Biso   1.000  H
  H196     1.0000 0.53510  0.08400  0.57730  Biso   1.000  H
  H197     1.0000 0.96490  0.58400  0.57730  Biso   1.000  H
  H198     1.0000 0.53510  0.41600  0.07730  Biso   1.000  H
  H199     1.0000 0.03510  0.08400  0.92270  Biso   1.000  H
  H200     1.0000 0.46490  0.91600  0.42270  Biso   1.000  H
