data_image0
_cell_length_a       8.1333
_cell_length_b       10.973
_cell_length_c       28.154
_cell_angle_alpha    90
_cell_angle_beta     90
_cell_angle_gamma    90

_symmetry_space_group_name_H-M    "P 1"
_symmetry_int_tables_number       1

loop_
  _symmetry_equiv_pos_as_xyz
  'x, y, z'

loop_
  _atom_site_label
  _atom_site_occupancy
  _atom_site_fract_x
  _atom_site_fract_y
  _atom_site_fract_z
  _atom_site_thermal_displace_type
  _atom_site_B_iso_or_equiv
  _atom_site_type_symbol
  Cu1      1.0000 0.00153  0.78435  0.92413  Biso   1.000  Cu
  Cu2      1.0000 0.49847  0.21565  0.42413  Biso   1.000  Cu
  Cu3      1.0000 0.99847  0.28435  0.57587  Biso   1.000  Cu
  Cu4      1.0000 0.50153  0.71565  0.07587  Biso   1.000  Cu
  N1       1.0000 0.85810  0.73230  0.87029  Biso   1.000  N
  N2       1.0000 0.64190  0.26770  0.37029  Biso   1.000  N
  N3       1.0000 0.14190  0.23230  0.62971  Biso   1.000  N
  N4       1.0000 0.35810  0.76770  0.12971  Biso   1.000  N
  O1       1.0000 0.33910  0.81150  0.02285  Biso   1.000  O
  O2       1.0000 0.16090  0.18850  0.52285  Biso   1.000  O
  O3       1.0000 0.66090  0.31150  0.47715  Biso   1.000  O
  O4       1.0000 0.83910  0.68850  0.97715  Biso   1.000  O
  O5       1.0000 0.12810  0.84900  0.97635  Biso   1.000  O
  O6       1.0000 0.37190  0.15100  0.47635  Biso   1.000  O
  O7       1.0000 0.87190  0.34900  0.52365  Biso   1.000  O
  O8       1.0000 0.62810  0.65100  0.02365  Biso   1.000  O
  N5       1.0000 0.15130  0.63980  0.93015  Biso   1.000  N
  N6       1.0000 0.34870  0.36020  0.43015  Biso   1.000  N
  N7       1.0000 0.84870  0.13980  0.56985  Biso   1.000  N
  N8       1.0000 0.65130  0.86020  0.06985  Biso   1.000  N
  H1       1.0000 0.10280  0.58080  0.94740  Biso   1.000  H
  H2       1.0000 0.39720  0.41920  0.44740  Biso   1.000  H
  H3       1.0000 0.89720  0.08080  0.55260  Biso   1.000  H
  H4       1.0000 0.60280  0.91920  0.05260  Biso   1.000  H
  H5       1.0000 0.17580  0.60970  0.90130  Biso   1.000  H
  H6       1.0000 0.32420  0.39030  0.40130  Biso   1.000  H
  H7       1.0000 0.82420  0.10970  0.59870  Biso   1.000  H
  H8       1.0000 0.67580  0.89030  0.09870  Biso   1.000  H
  N9       1.0000 0.91340  0.94990  0.90697  Biso   1.000  N
  N10      1.0000 0.58660  0.05010  0.40697  Biso   1.000  N
  N11      1.0000 0.08660  0.44990  0.59303  Biso   1.000  N
  N12      1.0000 0.41340  0.55010  0.09303  Biso   1.000  N
  C1       1.0000 0.25480  0.78520  0.98783  Biso   1.000  C
  C2       1.0000 0.24520  0.21480  0.48783  Biso   1.000  C
  C3       1.0000 0.74520  0.28520  0.51217  Biso   1.000  C
  C4       1.0000 0.75480  0.71480  0.01217  Biso   1.000  C
  C5       1.0000 0.36820  0.83290  0.88767  Biso   1.000  C
  C6       1.0000 0.13180  0.16710  0.38767  Biso   1.000  C
  C7       1.0000 0.63180  0.33290  0.61233  Biso   1.000  C
  C8       1.0000 0.86820  0.66710  0.11233  Biso   1.000  C
  O9       1.0000 0.42760  0.43070  0.84960  Biso   1.000  O
  O10      1.0000 0.07240  0.56930  0.34960  Biso   1.000  O
  O11      1.0000 0.57240  0.93070  0.65040  Biso   1.000  O
  O12      1.0000 0.92760  0.06930  0.15040  Biso   1.000  O
  C9       1.0000 0.82680  0.61990  0.85480  Biso   1.000  C
  C10      1.0000 0.67320  0.38010  0.35480  Biso   1.000  C
  C11      1.0000 0.17320  0.11990  0.64520  Biso   1.000  C
  C12      1.0000 0.32680  0.88010  0.14520  Biso   1.000  C
  H9       1.0000 0.87500  0.55410  0.87030  Biso   1.000  H
  H10      1.0000 0.62500  0.44590  0.37030  Biso   1.000  H
  H11      1.0000 0.12500  0.05410  0.62970  Biso   1.000  H
  H12      1.0000 0.37500  0.94590  0.12970  Biso   1.000  H
  C13      1.0000 0.75210  0.04680  0.84590  Biso   1.000  C
  C14      1.0000 0.74790  0.95320  0.34590  Biso   1.000  C
  C15      1.0000 0.24790  0.54680  0.65410  Biso   1.000  C
  C16      1.0000 0.25210  0.45320  0.15410  Biso   1.000  C
  C17      1.0000 0.65740  0.69520  0.79180  Biso   1.000  C
  C18      1.0000 0.84260  0.30480  0.29180  Biso   1.000  C
  C19      1.0000 0.34260  0.19520  0.70820  Biso   1.000  C
  C20      1.0000 0.15740  0.80480  0.20820  Biso   1.000  C
  H13      1.0000 0.59280  0.68180  0.76510  Biso   1.000  H
  H14      1.0000 0.90720  0.31820  0.26510  Biso   1.000  H
  H15      1.0000 0.40720  0.18180  0.73490  Biso   1.000  H
  H16      1.0000 0.09280  0.81820  0.23490  Biso   1.000  H
  C21      1.0000 0.78710  0.82710  0.84810  Biso   1.000  C
  C22      1.0000 0.71290  0.17290  0.34810  Biso   1.000  C
  C23      1.0000 0.21290  0.32710  0.65190  Biso   1.000  C
  C24      1.0000 0.28710  0.67290  0.15190  Biso   1.000  C
  C25      1.0000 0.22750  0.73220  0.81409  Biso   1.000  C
  C26      1.0000 0.27250  0.26780  0.31409  Biso   1.000  C
  C27      1.0000 0.77250  0.23220  0.68591  Biso   1.000  C
  C28      1.0000 0.72750  0.76780  0.18591  Biso   1.000  C
  H17      1.0000 0.25480  0.65200  0.82140  Biso   1.000  H
  H18      1.0000 0.24520  0.34800  0.32140  Biso   1.000  H
  H19      1.0000 0.74520  0.15200  0.67860  Biso   1.000  H
  H20      1.0000 0.75480  0.84800  0.17860  Biso   1.000  H
  C29      1.0000 0.65100  0.03360  0.80480  Biso   1.000  C
  C30      1.0000 0.84900  0.96640  0.30480  Biso   1.000  C
  C31      1.0000 0.34900  0.53360  0.69520  Biso   1.000  C
  C32      1.0000 0.15100  0.46640  0.19520  Biso   1.000  C
  H21      1.0000 0.60450  0.10180  0.79040  Biso   1.000  H
  H22      1.0000 0.89550  0.89820  0.29040  Biso   1.000  H
  H23      1.0000 0.39550  0.60180  0.70960  Biso   1.000  H
  H24      1.0000 0.10450  0.39820  0.20960  Biso   1.000  H
  C33      1.0000 0.09480  0.88190  0.76320  Biso   1.000  C
  C34      1.0000 0.40520  0.11810  0.26320  Biso   1.000  C
  C35      1.0000 0.90520  0.38190  0.73680  Biso   1.000  C
  C36      1.0000 0.59480  0.61810  0.23680  Biso   1.000  C
  H25      1.0000 0.03310  0.89920  0.73620  Biso   1.000  H
  H26      1.0000 0.46690  0.10080  0.23620  Biso   1.000  H
  H27      1.0000 0.96690  0.39920  0.76380  Biso   1.000  H
  H28      1.0000 0.53310  0.60080  0.26380  Biso   1.000  H
  C37      1.0000 0.72290  0.59760  0.81580  Biso   1.000  C
  C38      1.0000 0.77710  0.40240  0.31580  Biso   1.000  C
  C39      1.0000 0.27710  0.09760  0.68420  Biso   1.000  C
  C40      1.0000 0.22290  0.90240  0.18420  Biso   1.000  C
  H29      1.0000 0.69920  0.51820  0.80630  Biso   1.000  H
  H30      1.0000 0.80080  0.48180  0.30630  Biso   1.000  H
  H31      1.0000 0.30080  0.01820  0.69370  Biso   1.000  H
  H32      1.0000 0.19920  0.98180  0.19370  Biso   1.000  H
  C41      1.0000 0.81750  0.94480  0.86680  Biso   1.000  C
  C42      1.0000 0.68250  0.05520  0.36680  Biso   1.000  C
  C43      1.0000 0.18250  0.44480  0.63320  Biso   1.000  C
  C44      1.0000 0.31750  0.55520  0.13320  Biso   1.000  C
  C45      1.0000 0.68670  0.81480  0.80727  Biso   1.000  C
  C46      1.0000 0.81330  0.18520  0.30727  Biso   1.000  C
  C47      1.0000 0.31330  0.31480  0.69273  Biso   1.000  C
  C48      1.0000 0.18670  0.68520  0.19273  Biso   1.000  C
  C49      1.0000 0.23490  0.94810  0.83220  Biso   1.000  C
  C50      1.0000 0.26510  0.05190  0.33220  Biso   1.000  C
  C51      1.0000 0.76510  0.44810  0.66780  Biso   1.000  C
  C52      1.0000 0.73490  0.55190  0.16780  Biso   1.000  C
  C53      1.0000 0.27610  0.82650  0.84350  Biso   1.000  C
  C54      1.0000 0.22390  0.17350  0.34350  Biso   1.000  C
  C55      1.0000 0.72390  0.32650  0.65650  Biso   1.000  C
  C56      1.0000 0.77610  0.67350  0.15650  Biso   1.000  C
  C57      1.0000 0.42980  0.72960  0.91736  Biso   1.000  C
  C58      1.0000 0.07020  0.27040  0.41736  Biso   1.000  C
  C59      1.0000 0.57020  0.22960  0.58264  Biso   1.000  C
  C60      1.0000 0.92980  0.77040  0.08264  Biso   1.000  C
  H33      1.0000 0.52840  0.75560  0.93390  Biso   1.000  H
  H34      1.0000 0.97160  0.24440  0.43390  Biso   1.000  H
  H35      1.0000 0.47160  0.25560  0.56610  Biso   1.000  H
  H36      1.0000 0.02840  0.74440  0.06610  Biso   1.000  H
  H37      1.0000 0.45980  0.66260  0.89670  Biso   1.000  H
  H38      1.0000 0.04020  0.33740  0.39670  Biso   1.000  H
  H39      1.0000 0.54020  0.16260  0.60330  Biso   1.000  H
  H40      1.0000 0.95980  0.83740  0.10330  Biso   1.000  H
  C61      1.0000 0.94970  0.05820  0.92540  Biso   1.000  C
  C62      1.0000 0.55030  0.94180  0.42540  Biso   1.000  C
  C63      1.0000 0.05030  0.55820  0.57460  Biso   1.000  C
  C64      1.0000 0.44970  0.44180  0.07460  Biso   1.000  C
  H41      1.0000 0.01800  0.06180  0.95180  Biso   1.000  H
  H42      1.0000 0.48200  0.93820  0.45180  Biso   1.000  H
  H43      1.0000 0.98200  0.56180  0.54820  Biso   1.000  H
  H44      1.0000 0.51800  0.43820  0.04820  Biso   1.000  H
  C65      1.0000 0.14330  0.97520  0.79230  Biso   1.000  C
  C66      1.0000 0.35670  0.02480  0.29230  Biso   1.000  C
  C67      1.0000 0.85670  0.47520  0.70770  Biso   1.000  C
  C68      1.0000 0.64330  0.52480  0.20770  Biso   1.000  C
  H45      1.0000 0.11500  0.05530  0.78530  Biso   1.000  H
  H46      1.0000 0.38500  0.94470  0.28530  Biso   1.000  H
  H47      1.0000 0.88500  0.55530  0.71470  Biso   1.000  H
  H48      1.0000 0.61500  0.44470  0.21470  Biso   1.000  H
  C69      1.0000 0.13720  0.75930  0.77350  Biso   1.000  C
  C70      1.0000 0.36280  0.24070  0.27350  Biso   1.000  C
  C71      1.0000 0.86280  0.25930  0.72650  Biso   1.000  C
  C72      1.0000 0.63720  0.74070  0.22650  Biso   1.000  C
  H49      1.0000 0.10460  0.69710  0.75310  Biso   1.000  H
  H50      1.0000 0.39540  0.30290  0.25310  Biso   1.000  H
  H51      1.0000 0.89540  0.19710  0.74690  Biso   1.000  H
  H52      1.0000 0.60460  0.80290  0.24690  Biso   1.000  H
  C73      1.0000 0.62340  0.92130  0.78690  Biso   1.000  C
  C74      1.0000 0.87660  0.07870  0.28690  Biso   1.000  C
  C75      1.0000 0.37660  0.42130  0.71310  Biso   1.000  C
  C76      1.0000 0.12340  0.57870  0.21310  Biso   1.000  C
  H53      1.0000 0.55910  0.91430  0.75980  Biso   1.000  H
  H54      1.0000 0.94090  0.08570  0.25980  Biso   1.000  H
  H55      1.0000 0.44090  0.41430  0.74020  Biso   1.000  H
  H56      1.0000 0.05910  0.58570  0.24020  Biso   1.000  H
  N13      1.0000 0.29950  0.02360  0.86620  Biso   1.000  N
  N14      1.0000 0.20050  0.97640  0.36620  Biso   1.000  N
  N15      1.0000 0.70050  0.52360  0.63380  Biso   1.000  N
  N16      1.0000 0.79950  0.47640  0.13380  Biso   1.000  N
  C77      1.0000 0.30280  0.68360  0.95435  Biso   1.000  C
  C78      1.0000 0.19720  0.31640  0.45435  Biso   1.000  C
  C79      1.0000 0.69720  0.18360  0.54565  Biso   1.000  C
  C80      1.0000 0.80280  0.81640  0.04565  Biso   1.000  C
  H57      1.0000 0.35110  0.61650  0.97260  Biso   1.000  H
  H58      1.0000 0.14890  0.38350  0.47260  Biso   1.000  H
  H59      1.0000 0.64890  0.11650  0.52740  Biso   1.000  H
  H60      1.0000 0.85110  0.88350  0.02740  Biso   1.000  H
  C81      1.0000 0.78840  0.16230  0.86640  Biso   1.000  C
  C82      1.0000 0.71160  0.83770  0.36640  Biso   1.000  C
  C83      1.0000 0.21160  0.66230  0.63360  Biso   1.000  C
  C84      1.0000 0.28840  0.33770  0.13360  Biso   1.000  C
  H61      1.0000 0.74610  0.23360  0.85330  Biso   1.000  H
  H62      1.0000 0.75390  0.76640  0.35330  Biso   1.000  H
  H63      1.0000 0.25390  0.73360  0.64670  Biso   1.000  H
  H64      1.0000 0.24610  0.26640  0.14670  Biso   1.000  H
  C85      1.0000 0.88910  0.16590  0.90650  Biso   1.000  C
  C86      1.0000 0.61090  0.83410  0.40650  Biso   1.000  C
  C87      1.0000 0.11090  0.66590  0.59350  Biso   1.000  C
  C88      1.0000 0.38910  0.33410  0.09350  Biso   1.000  C
  H65      1.0000 0.91550  0.24020  0.92040  Biso   1.000  H
  H66      1.0000 0.58450  0.75980  0.42040  Biso   1.000  H
  H67      1.0000 0.08450  0.74020  0.57960  Biso   1.000  H
  H68      1.0000 0.41550  0.25980  0.07960  Biso   1.000  H
  C89      1.0000 0.37930  0.95310  0.89840  Biso   1.000  C
  C90      1.0000 0.12070  0.04690  0.39840  Biso   1.000  C
  C91      1.0000 0.62070  0.45310  0.60160  Biso   1.000  C
  C92      1.0000 0.87930  0.54690  0.10160  Biso   1.000  C
  H69      1.0000 0.43500  0.98360  0.92460  Biso   1.000  H
  H70      1.0000 0.06500  0.01640  0.42460  Biso   1.000  H
  H71      1.0000 0.56500  0.48360  0.57540  Biso   1.000  H
  H72      1.0000 0.93500  0.51640  0.07540  Biso   1.000  H
  Cl1      1.0000 0.28770  0.35786  0.85323  Biso   1.000  Cl
  Cl2      1.0000 0.21230  0.64214  0.35323  Biso   1.000  Cl
  Cl3      1.0000 0.71230  0.85786  0.64677  Biso   1.000  Cl
  Cl4      1.0000 0.78770  0.14214  0.14677  Biso   1.000  Cl
  O13      1.0000 0.15090  0.43530  0.85260  Biso   1.000  O
  O14      1.0000 0.34910  0.56470  0.35260  Biso   1.000  O
  O15      1.0000 0.84910  0.93530  0.64740  Biso   1.000  O
  O16      1.0000 0.65090  0.06470  0.14740  Biso   1.000  O
  O17      1.0000 0.29040  0.28840  0.89732  Biso   1.000  O
  O18      1.0000 0.20960  0.71160  0.39732  Biso   1.000  O
  O19      1.0000 0.70960  0.78840  0.60268  Biso   1.000  O
  O20      1.0000 0.79040  0.21160  0.10268  Biso   1.000  O
  O21      1.0000 0.28000  0.27540  0.81460  Biso   1.000  O
  O22      1.0000 0.22000  0.72460  0.31460  Biso   1.000  O
  O23      1.0000 0.72000  0.77540  0.68540  Biso   1.000  O
  O24      1.0000 0.78000  0.22460  0.18540  Biso   1.000  O
  O25      1.0000 0.54030  0.30770  0.96670  Biso   1.000  O
  O26      1.0000 0.95970  0.69230  0.46670  Biso   1.000  O
  O27      1.0000 0.45970  0.80770  0.53330  Biso   1.000  O
  O28      1.0000 0.04030  0.19230  0.03330  Biso   1.000  O
  O29      1.0000 0.80300  0.44460  0.95270  Biso   1.000  O
  O30      1.0000 0.69700  0.55540  0.45270  Biso   1.000  O
  O31      1.0000 0.19700  0.94460  0.54730  Biso   1.000  O
  O32      1.0000 0.30300  0.05540  0.04730  Biso   1.000  O
  O33      1.0000 0.10800  0.39600  0.98220  Biso   1.000  O
  O34      1.0000 0.39200  0.60400  0.48220  Biso   1.000  O
  O35      1.0000 0.89200  0.89600  0.51780  Biso   1.000  O
  O36      1.0000 0.60800  0.10400  0.01780  Biso   1.000  O
  H73      1.0000 0.99780  0.44130  0.99270  Biso   1.000  H
  H74      1.0000 0.50220  0.55870  0.49270  Biso   1.000  H
  H75      1.0000 0.00220  0.94130  0.50730  Biso   1.000  H
  H76      1.0000 0.49780  0.05870  0.00730  Biso   1.000  H
  H77      1.0000 0.10610  0.33320  0.00930  Biso   1.000  H
  H78      1.0000 0.39390  0.66680  0.50930  Biso   1.000  H
  H79      1.0000 0.89390  0.83320  0.49070  Biso   1.000  H
  H80      1.0000 0.60610  0.16680  0.99070  Biso   1.000  H
  H81      1.0000 0.28340  0.12200  0.85340  Biso   1.000  H
  H82      1.0000 0.21660  0.87800  0.35340  Biso   1.000  H
  H83      1.0000 0.71660  0.62200  0.64660  Biso   1.000  H
  H84      1.0000 0.78340  0.37800  0.14660  Biso   1.000  H
