data_image0
_cell_length_a       13.4221
_cell_length_b       15.4565
_cell_length_c       27.194
_cell_angle_alpha    90
_cell_angle_beta     90
_cell_angle_gamma    90

_symmetry_space_group_name_H-M    "P 1"
_symmetry_int_tables_number       1

loop_
  _symmetry_equiv_pos_as_xyz
  'x, y, z'

loop_
  _atom_site_label
  _atom_site_occupancy
  _atom_site_fract_x
  _atom_site_fract_y
  _atom_site_fract_z
  _atom_site_thermal_displace_type
  _atom_site_B_iso_or_equiv
  _atom_site_type_symbol
  C1       1.0000 0.32970  0.89050  0.86532  Biso   1.000  C
  C2       1.0000 0.17030  0.10950  0.36532  Biso   1.000  C
  C3       1.0000 0.82970  0.60950  0.13468  Biso   1.000  C
  C4       1.0000 0.67030  0.39050  0.63468  Biso   1.000  C
  C5       1.0000 0.67030  0.10950  0.13468  Biso   1.000  C
  C6       1.0000 0.82970  0.89050  0.63468  Biso   1.000  C
  C7       1.0000 0.17030  0.39050  0.86532  Biso   1.000  C
  C8       1.0000 0.32970  0.60950  0.36532  Biso   1.000  C
  C9       1.0000 0.31290  0.81641  0.82987  Biso   1.000  C
  C10      1.0000 0.18710  0.18359  0.32987  Biso   1.000  C
  C11      1.0000 0.81290  0.68359  0.17013  Biso   1.000  C
  C12      1.0000 0.68710  0.31641  0.67013  Biso   1.000  C
  C13      1.0000 0.68710  0.18359  0.17013  Biso   1.000  C
  C14      1.0000 0.81290  0.81641  0.67013  Biso   1.000  C
  C15      1.0000 0.18710  0.31641  0.82987  Biso   1.000  C
  C16      1.0000 0.31290  0.68359  0.32987  Biso   1.000  C
  C17      1.0000 0.30550  0.82350  0.77930  Biso   1.000  C
  C18      1.0000 0.19450  0.17650  0.27930  Biso   1.000  C
  C19      1.0000 0.80550  0.67650  0.22070  Biso   1.000  C
  C20      1.0000 0.69450  0.32350  0.72070  Biso   1.000  C
  C21      1.0000 0.69450  0.17650  0.22070  Biso   1.000  C
  C22      1.0000 0.80550  0.82350  0.72070  Biso   1.000  C
  C23      1.0000 0.19450  0.32350  0.77930  Biso   1.000  C
  C24      1.0000 0.30550  0.67650  0.27930  Biso   1.000  C
  C25      1.0000 0.30670  0.90850  0.75150  Biso   1.000  C
  C26      1.0000 0.19330  0.09150  0.25150  Biso   1.000  C
  C27      1.0000 0.80670  0.59150  0.24850  Biso   1.000  C
  C28      1.0000 0.69330  0.40850  0.74850  Biso   1.000  C
  C29      1.0000 0.69330  0.09150  0.24850  Biso   1.000  C
  C30      1.0000 0.80670  0.90850  0.74850  Biso   1.000  C
  C31      1.0000 0.19330  0.40850  0.75150  Biso   1.000  C
  C32      1.0000 0.30670  0.59150  0.25150  Biso   1.000  C
  C33      1.0000 0.29710  0.74810  0.75224  Biso   1.000  C
  C34      1.0000 0.20290  0.25190  0.25224  Biso   1.000  C
  C35      1.0000 0.79710  0.75190  0.24776  Biso   1.000  C
  C36      1.0000 0.70290  0.24810  0.74776  Biso   1.000  C
  C37      1.0000 0.70290  0.25190  0.24776  Biso   1.000  C
  C38      1.0000 0.79710  0.74810  0.74776  Biso   1.000  C
  C39      1.0000 0.20290  0.24810  0.75224  Biso   1.000  C
  C40      1.0000 0.29710  0.75190  0.25224  Biso   1.000  C
  H1       1.0000 0.29390  0.75080  0.71810  Biso   1.000  H
  H2       1.0000 0.20610  0.24920  0.21810  Biso   1.000  H
  H3       1.0000 0.79390  0.74920  0.28190  Biso   1.000  H
  H4       1.0000 0.70610  0.25080  0.78190  Biso   1.000  H
  H5       1.0000 0.70610  0.24920  0.28190  Biso   1.000  H
  H6       1.0000 0.79390  0.75080  0.78190  Biso   1.000  H
  H7       1.0000 0.20610  0.25080  0.71810  Biso   1.000  H
  H8       1.0000 0.29390  0.74920  0.21810  Biso   1.000  H
  C41      1.0000 0.29340  0.66910  0.77540  Biso   1.000  C
  C42      1.0000 0.20660  0.33090  0.27540  Biso   1.000  C
  C43      1.0000 0.79340  0.83090  0.22460  Biso   1.000  C
  C44      1.0000 0.70660  0.16910  0.72460  Biso   1.000  C
  C45      1.0000 0.70660  0.33090  0.22460  Biso   1.000  C
  C46      1.0000 0.79340  0.66910  0.72460  Biso   1.000  C
  C47      1.0000 0.20660  0.16910  0.77540  Biso   1.000  C
  C48      1.0000 0.29340  0.83090  0.27540  Biso   1.000  C
  H9       1.0000 0.28680  0.61840  0.75730  Biso   1.000  H
  H10      1.0000 0.21320  0.38160  0.25730  Biso   1.000  H
  H11      1.0000 0.78680  0.88160  0.24270  Biso   1.000  H
  H12      1.0000 0.71320  0.11840  0.74270  Biso   1.000  H
  H13      1.0000 0.71320  0.38160  0.24270  Biso   1.000  H
  H14      1.0000 0.78680  0.61840  0.74270  Biso   1.000  H
  H15      1.0000 0.21320  0.11840  0.75730  Biso   1.000  H
  H16      1.0000 0.28680  0.88160  0.25730  Biso   1.000  H
  C49      1.0000 0.29970  0.66670  0.82583  Biso   1.000  C
  C50      1.0000 0.20030  0.33330  0.32583  Biso   1.000  C
  C51      1.0000 0.79970  0.83330  0.17417  Biso   1.000  C
  C52      1.0000 0.70030  0.16670  0.67417  Biso   1.000  C
  C53      1.0000 0.70030  0.33330  0.17417  Biso   1.000  C
  C54      1.0000 0.79970  0.66670  0.67417  Biso   1.000  C
  C55      1.0000 0.20030  0.16670  0.82583  Biso   1.000  C
  C56      1.0000 0.29970  0.83330  0.32583  Biso   1.000  C
  H17      1.0000 0.29650  0.61360  0.84190  Biso   1.000  H
  H18      1.0000 0.20350  0.38640  0.34190  Biso   1.000  H
  H19      1.0000 0.79650  0.88640  0.15810  Biso   1.000  H
  H20      1.0000 0.70350  0.11360  0.65810  Biso   1.000  H
  H21      1.0000 0.70350  0.38640  0.15810  Biso   1.000  H
  H22      1.0000 0.79650  0.61360  0.65810  Biso   1.000  H
  H23      1.0000 0.20350  0.11360  0.84190  Biso   1.000  H
  H24      1.0000 0.29650  0.88640  0.34190  Biso   1.000  H
  C57      1.0000 0.34060  0.89340  0.48383  Biso   1.000  C
  C58      1.0000 0.15940  0.10660  0.98383  Biso   1.000  C
  C59      1.0000 0.84060  0.60660  0.51617  Biso   1.000  C
  C60      1.0000 0.65940  0.39340  0.01617  Biso   1.000  C
  C61      1.0000 0.65940  0.10660  0.51617  Biso   1.000  C
  C62      1.0000 0.84060  0.89340  0.01617  Biso   1.000  C
  C63      1.0000 0.15940  0.39340  0.48383  Biso   1.000  C
  C64      1.0000 0.34060  0.60660  0.98383  Biso   1.000  C
  C65      1.0000 0.33590  0.81770  0.51859  Biso   1.000  C
  C66      1.0000 0.16410  0.18230  0.01859  Biso   1.000  C
  C67      1.0000 0.83590  0.68230  0.48141  Biso   1.000  C
  C68      1.0000 0.66410  0.31770  0.98141  Biso   1.000  C
  C69      1.0000 0.66410  0.18230  0.48141  Biso   1.000  C
  C70      1.0000 0.83590  0.81770  0.98141  Biso   1.000  C
  C71      1.0000 0.16410  0.31770  0.51859  Biso   1.000  C
  C72      1.0000 0.33590  0.68230  0.01859  Biso   1.000  C
  C73      1.0000 0.33710  0.82140  0.56954  Biso   1.000  C
  C74      1.0000 0.16290  0.17860  0.06954  Biso   1.000  C
  C75      1.0000 0.83710  0.67860  0.43046  Biso   1.000  C
  C76      1.0000 0.66290  0.32140  0.93046  Biso   1.000  C
  C77      1.0000 0.66290  0.17860  0.43046  Biso   1.000  C
  C78      1.0000 0.83710  0.82140  0.93046  Biso   1.000  C
  C79      1.0000 0.16290  0.32140  0.56954  Biso   1.000  C
  C80      1.0000 0.33710  0.67860  0.06954  Biso   1.000  C
  C81      1.0000 0.32820  0.90420  0.59882  Biso   1.000  C
  C82      1.0000 0.17180  0.09580  0.09882  Biso   1.000  C
  C83      1.0000 0.82820  0.59580  0.40118  Biso   1.000  C
  C84      1.0000 0.67180  0.40420  0.90118  Biso   1.000  C
  C85      1.0000 0.67180  0.09580  0.40118  Biso   1.000  C
  C86      1.0000 0.82820  0.90420  0.90118  Biso   1.000  C
  C87      1.0000 0.17180  0.40420  0.59882  Biso   1.000  C
  C88      1.0000 0.32820  0.59580  0.09882  Biso   1.000  C
  C89      1.0000 0.34390  0.74500  0.59534  Biso   1.000  C
  C90      1.0000 0.15610  0.25500  0.09534  Biso   1.000  C
  C91      1.0000 0.84390  0.75500  0.40466  Biso   1.000  C
  C92      1.0000 0.65610  0.24500  0.90466  Biso   1.000  C
  C93      1.0000 0.65610  0.25500  0.40466  Biso   1.000  C
  C94      1.0000 0.84390  0.74500  0.90466  Biso   1.000  C
  C95      1.0000 0.15610  0.24500  0.59534  Biso   1.000  C
  C96      1.0000 0.34390  0.75500  0.09534  Biso   1.000  C
  H25      1.0000 0.34750  0.74600  0.62950  Biso   1.000  H
  H26      1.0000 0.15250  0.25400  0.12950  Biso   1.000  H
  H27      1.0000 0.84750  0.75400  0.37050  Biso   1.000  H
  H28      1.0000 0.65250  0.24600  0.87050  Biso   1.000  H
  H29      1.0000 0.65250  0.25400  0.37050  Biso   1.000  H
  H30      1.0000 0.84750  0.74600  0.87050  Biso   1.000  H
  H31      1.0000 0.15250  0.24600  0.62950  Biso   1.000  H
  H32      1.0000 0.34750  0.75400  0.12950  Biso   1.000  H
  C97      1.0000 0.34530  0.66760  0.57100  Biso   1.000  C
  C98      1.0000 0.15470  0.33240  0.07100  Biso   1.000  C
  C99      1.0000 0.84530  0.83240  0.42900  Biso   1.000  C
  C100     1.0000 0.65470  0.16760  0.92900  Biso   1.000  C
  C101     1.0000 0.65470  0.33240  0.42900  Biso   1.000  C
  C102     1.0000 0.84530  0.66760  0.92900  Biso   1.000  C
  C103     1.0000 0.15470  0.16760  0.57100  Biso   1.000  C
  C104     1.0000 0.34530  0.83240  0.07100  Biso   1.000  C
  H33      1.0000 0.35000  0.61590  0.58830  Biso   1.000  H
  H34      1.0000 0.15000  0.38410  0.08830  Biso   1.000  H
  H35      1.0000 0.85000  0.88410  0.41170  Biso   1.000  H
  H36      1.0000 0.65000  0.11590  0.91170  Biso   1.000  H
  H37      1.0000 0.65000  0.38410  0.41170  Biso   1.000  H
  H38      1.0000 0.85000  0.61590  0.91170  Biso   1.000  H
  H39      1.0000 0.15000  0.11590  0.58830  Biso   1.000  H
  H40      1.0000 0.35000  0.88410  0.08830  Biso   1.000  H
  C105     1.0000 0.33990  0.66770  0.52070  Biso   1.000  C
  C106     1.0000 0.16010  0.33230  0.02070  Biso   1.000  C
  C107     1.0000 0.83990  0.83230  0.47930  Biso   1.000  C
  C108     1.0000 0.66010  0.16770  0.97930  Biso   1.000  C
  C109     1.0000 0.66010  0.33230  0.47930  Biso   1.000  C
  C110     1.0000 0.83990  0.66770  0.97930  Biso   1.000  C
  C111     1.0000 0.16010  0.16770  0.52070  Biso   1.000  C
  C112     1.0000 0.33990  0.83230  0.02070  Biso   1.000  C
  H41      1.0000 0.33890  0.61520  0.50400  Biso   1.000  H
  H42      1.0000 0.16110  0.38480  0.00400  Biso   1.000  H
  H43      1.0000 0.83890  0.88480  0.49600  Biso   1.000  H
  H44      1.0000 0.66110  0.11520  0.99600  Biso   1.000  H
  H45      1.0000 0.66110  0.38480  0.49600  Biso   1.000  H
  H46      1.0000 0.83890  0.61520  0.99600  Biso   1.000  H
  H47      1.0000 0.16110  0.11520  0.50400  Biso   1.000  H
  H48      1.0000 0.33890  0.88480  0.00400  Biso   1.000  H
  C113     1.0000 0.42030  0.10720  0.58098  Biso   1.000  C
  C114     1.0000 0.07970  0.89280  0.08098  Biso   1.000  C
  C115     1.0000 0.92030  0.39280  0.41902  Biso   1.000  C
  C116     1.0000 0.57970  0.60720  0.91902  Biso   1.000  C
  C117     1.0000 0.57970  0.89280  0.41902  Biso   1.000  C
  C118     1.0000 0.92030  0.10720  0.91902  Biso   1.000  C
  C119     1.0000 0.07970  0.60720  0.58098  Biso   1.000  C
  C120     1.0000 0.42030  0.39280  0.08098  Biso   1.000  C
  H49      1.0000 0.41660  0.05460  0.56440  Biso   1.000  H
  H50      1.0000 0.08340  0.94540  0.06440  Biso   1.000  H
  H51      1.0000 0.91660  0.44540  0.43560  Biso   1.000  H
  H52      1.0000 0.58340  0.55460  0.93560  Biso   1.000  H
  H53      1.0000 0.58340  0.94540  0.43560  Biso   1.000  H
  H54      1.0000 0.91660  0.05460  0.93560  Biso   1.000  H
  H55      1.0000 0.08340  0.55460  0.56440  Biso   1.000  H
  H56      1.0000 0.41660  0.44540  0.06440  Biso   1.000  H
  C121     1.0000 0.42120  0.18300  0.55360  Biso   1.000  C
  C122     1.0000 0.07880  0.81700  0.05360  Biso   1.000  C
  C123     1.0000 0.92120  0.31700  0.44640  Biso   1.000  C
  C124     1.0000 0.57880  0.68300  0.94640  Biso   1.000  C
  C125     1.0000 0.57880  0.81700  0.44640  Biso   1.000  C
  C126     1.0000 0.92120  0.18300  0.94640  Biso   1.000  C
  C127     1.0000 0.07880  0.68300  0.55360  Biso   1.000  C
  C128     1.0000 0.42120  0.31700  0.05360  Biso   1.000  C
  H57      1.0000 0.41850  0.18070  0.51950  Biso   1.000  H
  H58      1.0000 0.08150  0.81930  0.01950  Biso   1.000  H
  H59      1.0000 0.91850  0.31930  0.48050  Biso   1.000  H
  H60      1.0000 0.58150  0.68070  0.98050  Biso   1.000  H
  H61      1.0000 0.58150  0.81930  0.48050  Biso   1.000  H
  H62      1.0000 0.91850  0.18070  0.98050  Biso   1.000  H
  H63      1.0000 0.08150  0.68070  0.51950  Biso   1.000  H
  H64      1.0000 0.41850  0.31930  0.01950  Biso   1.000  H
  C129     1.0000 0.42620  0.26080  0.57710  Biso   1.000  C
  C130     1.0000 0.07380  0.73920  0.07710  Biso   1.000  C
  C131     1.0000 0.92620  0.23920  0.42290  Biso   1.000  C
  C132     1.0000 0.57380  0.76080  0.92290  Biso   1.000  C
  C133     1.0000 0.57380  0.73920  0.42290  Biso   1.000  C
  C134     1.0000 0.92620  0.26080  0.92290  Biso   1.000  C
  C135     1.0000 0.07380  0.76080  0.57710  Biso   1.000  C
  C136     1.0000 0.42620  0.23920  0.07710  Biso   1.000  C
  H65      1.0000 0.42710  0.31210  0.55920  Biso   1.000  H
  H66      1.0000 0.07290  0.68790  0.05920  Biso   1.000  H
  H67      1.0000 0.92710  0.18790  0.44080  Biso   1.000  H
  H68      1.0000 0.57290  0.81210  0.94080  Biso   1.000  H
  H69      1.0000 0.57290  0.68790  0.44080  Biso   1.000  H
  H70      1.0000 0.92710  0.31210  0.94080  Biso   1.000  H
  H71      1.0000 0.07290  0.81210  0.55920  Biso   1.000  H
  H72      1.0000 0.42710  0.18790  0.05920  Biso   1.000  H
  C137     1.0000 0.42990  0.26250  0.62889  Biso   1.000  C
  C138     1.0000 0.07010  0.73750  0.12889  Biso   1.000  C
  C139     1.0000 0.92990  0.23750  0.37111  Biso   1.000  C
  C140     1.0000 0.57010  0.76250  0.87111  Biso   1.000  C
  C141     1.0000 0.57010  0.73750  0.37111  Biso   1.000  C
  C142     1.0000 0.92990  0.26250  0.87111  Biso   1.000  C
  C143     1.0000 0.07010  0.76250  0.62889  Biso   1.000  C
  C144     1.0000 0.42990  0.23750  0.12889  Biso   1.000  C
  C145     1.0000 0.42960  0.18360  0.65314  Biso   1.000  C
  C146     1.0000 0.07040  0.81640  0.15314  Biso   1.000  C
  C147     1.0000 0.92960  0.31640  0.34686  Biso   1.000  C
  C148     1.0000 0.57040  0.68360  0.84686  Biso   1.000  C
  C149     1.0000 0.57040  0.81640  0.34686  Biso   1.000  C
  C150     1.0000 0.92960  0.18360  0.84686  Biso   1.000  C
  C151     1.0000 0.07040  0.68360  0.65314  Biso   1.000  C
  C152     1.0000 0.42960  0.31640  0.15314  Biso   1.000  C
  C153     1.0000 0.43780  0.18020  0.70581  Biso   1.000  C
  C154     1.0000 0.06220  0.81980  0.20581  Biso   1.000  C
  C155     1.0000 0.93780  0.31980  0.29419  Biso   1.000  C
  C156     1.0000 0.56220  0.68020  0.79419  Biso   1.000  C
  C157     1.0000 0.56220  0.81980  0.29419  Biso   1.000  C
  C158     1.0000 0.93780  0.18020  0.79419  Biso   1.000  C
  C159     1.0000 0.06220  0.68020  0.70581  Biso   1.000  C
  C160     1.0000 0.43780  0.31980  0.20581  Biso   1.000  C
  C161     1.0000 0.43450  0.33970  0.65756  Biso   1.000  C
  C162     1.0000 0.06550  0.66030  0.15756  Biso   1.000  C
  C163     1.0000 0.93450  0.16030  0.34244  Biso   1.000  C
  C164     1.0000 0.56550  0.83970  0.84244  Biso   1.000  C
  C165     1.0000 0.56550  0.66030  0.34244  Biso   1.000  C
  C166     1.0000 0.93450  0.33970  0.84244  Biso   1.000  C
  C167     1.0000 0.06550  0.83970  0.65756  Biso   1.000  C
  C168     1.0000 0.43450  0.16030  0.15756  Biso   1.000  C
  H73      1.0000 0.43190  0.39310  0.64190  Biso   1.000  H
  H74      1.0000 0.06810  0.60690  0.14190  Biso   1.000  H
  H75      1.0000 0.93190  0.10690  0.35810  Biso   1.000  H
  H76      1.0000 0.56810  0.89310  0.85810  Biso   1.000  H
  H77      1.0000 0.56810  0.60690  0.35810  Biso   1.000  H
  H78      1.0000 0.93190  0.39310  0.85810  Biso   1.000  H
  H79      1.0000 0.06810  0.89310  0.64190  Biso   1.000  H
  H80      1.0000 0.43190  0.10690  0.14190  Biso   1.000  H
  C169     1.0000 0.44260  0.33680  0.70711  Biso   1.000  C
  C170     1.0000 0.05740  0.66320  0.20711  Biso   1.000  C
  C171     1.0000 0.94260  0.16320  0.29289  Biso   1.000  C
  C172     1.0000 0.55740  0.83680  0.79289  Biso   1.000  C
  C173     1.0000 0.55740  0.66320  0.29289  Biso   1.000  C
  C174     1.0000 0.94260  0.33680  0.79289  Biso   1.000  C
  C175     1.0000 0.05740  0.83680  0.70711  Biso   1.000  C
  C176     1.0000 0.44260  0.16320  0.20711  Biso   1.000  C
  H81      1.0000 0.44580  0.38820  0.72480  Biso   1.000  H
  H82      1.0000 0.05420  0.61180  0.22480  Biso   1.000  H
  H83      1.0000 0.94580  0.11180  0.27520  Biso   1.000  H
  H84      1.0000 0.55420  0.88820  0.77520  Biso   1.000  H
  H85      1.0000 0.55420  0.61180  0.27520  Biso   1.000  H
  H86      1.0000 0.94580  0.38820  0.77520  Biso   1.000  H
  H87      1.0000 0.05420  0.88820  0.72480  Biso   1.000  H
  H88      1.0000 0.44580  0.11180  0.22480  Biso   1.000  H
  C177     1.0000 0.44620  0.25640  0.73289  Biso   1.000  C
  C178     1.0000 0.05380  0.74360  0.23289  Biso   1.000  C
  C179     1.0000 0.94620  0.24360  0.26711  Biso   1.000  C
  C180     1.0000 0.55380  0.75640  0.76711  Biso   1.000  C
  C181     1.0000 0.55380  0.74360  0.26711  Biso   1.000  C
  C182     1.0000 0.94620  0.25640  0.76711  Biso   1.000  C
  C183     1.0000 0.05380  0.75640  0.73289  Biso   1.000  C
  C184     1.0000 0.44620  0.24360  0.23289  Biso   1.000  C
  C185     1.0000 0.45820  0.24810  0.78414  Biso   1.000  C
  C186     1.0000 0.04180  0.75190  0.28414  Biso   1.000  C
  C187     1.0000 0.95820  0.25190  0.21586  Biso   1.000  C
  C188     1.0000 0.54180  0.74810  0.71586  Biso   1.000  C
  C189     1.0000 0.54180  0.75190  0.21586  Biso   1.000  C
  C190     1.0000 0.95820  0.24810  0.71586  Biso   1.000  C
  C191     1.0000 0.04180  0.74810  0.78414  Biso   1.000  C
  C192     1.0000 0.45820  0.25190  0.28414  Biso   1.000  C
  H89      1.0000 0.46520  0.29700  0.80380  Biso   1.000  H
  H90      1.0000 0.03480  0.70300  0.30380  Biso   1.000  H
  H91      1.0000 0.96520  0.20300  0.19620  Biso   1.000  H
  H92      1.0000 0.53480  0.79700  0.69620  Biso   1.000  H
  H93      1.0000 0.53480  0.70300  0.19620  Biso   1.000  H
  H94      1.0000 0.96520  0.29700  0.69620  Biso   1.000  H
  H95      1.0000 0.03480  0.79700  0.80380  Biso   1.000  H
  H96      1.0000 0.46520  0.20300  0.30380  Biso   1.000  H
  C193     1.0000 0.45950  0.16800  0.80455  Biso   1.000  C
  C194     1.0000 0.04050  0.83200  0.30455  Biso   1.000  C
  C195     1.0000 0.95950  0.33200  0.19545  Biso   1.000  C
  C196     1.0000 0.54050  0.66800  0.69545  Biso   1.000  C
  C197     1.0000 0.54050  0.83200  0.19545  Biso   1.000  C
  C198     1.0000 0.95950  0.16800  0.69545  Biso   1.000  C
  C199     1.0000 0.04050  0.66800  0.80455  Biso   1.000  C
  C200     1.0000 0.45950  0.33200  0.30455  Biso   1.000  C
  H97      1.0000 0.46790  0.16170  0.83830  Biso   1.000  H
  H98      1.0000 0.03210  0.83830  0.33830  Biso   1.000  H
  H99      1.0000 0.96790  0.33830  0.16170  Biso   1.000  H
  H100     1.0000 0.53210  0.66170  0.66170  Biso   1.000  H
  H101     1.0000 0.53210  0.83830  0.16170  Biso   1.000  H
  H102     1.0000 0.96790  0.16170  0.66170  Biso   1.000  H
  H103     1.0000 0.03210  0.66170  0.83830  Biso   1.000  H
  H104     1.0000 0.46790  0.33830  0.33830  Biso   1.000  H
  C201     1.0000 0.44810  0.09580  0.77488  Biso   1.000  C
  C202     1.0000 0.05190  0.90420  0.27488  Biso   1.000  C
  C203     1.0000 0.94810  0.40420  0.22512  Biso   1.000  C
  C204     1.0000 0.55190  0.59580  0.72512  Biso   1.000  C
  C205     1.0000 0.55190  0.90420  0.22512  Biso   1.000  C
  C206     1.0000 0.94810  0.09580  0.72512  Biso   1.000  C
  C207     1.0000 0.05190  0.59580  0.77488  Biso   1.000  C
  C208     1.0000 0.44810  0.40420  0.27488  Biso   1.000  C
  H105     1.0000 0.44790  0.04150  0.78960  Biso   1.000  H
  H106     1.0000 0.05210  0.95850  0.28960  Biso   1.000  H
  H107     1.0000 0.94790  0.45850  0.21040  Biso   1.000  H
  H108     1.0000 0.55210  0.54150  0.71040  Biso   1.000  H
  H109     1.0000 0.55210  0.95850  0.21040  Biso   1.000  H
  H110     1.0000 0.94790  0.04150  0.71040  Biso   1.000  H
  H111     1.0000 0.05210  0.54150  0.78960  Biso   1.000  H
  H112     1.0000 0.44790  0.45850  0.28960  Biso   1.000  H
  Cu1      1.0000 0.41695  0.00671  0.67681  Biso   1.000  Cu
  Cu2      1.0000 0.08305  0.99329  0.17681  Biso   1.000  Cu
  Cu3      1.0000 0.91695  0.49329  0.32319  Biso   1.000  Cu
  Cu4      1.0000 0.58305  0.50671  0.82319  Biso   1.000  Cu
  Cu5      1.0000 0.58305  0.99329  0.32319  Biso   1.000  Cu
  Cu6      1.0000 0.91695  0.00671  0.82319  Biso   1.000  Cu
  Cu7      1.0000 0.08305  0.50671  0.67681  Biso   1.000  Cu
  Cu8      1.0000 0.41695  0.49329  0.17681  Biso   1.000  Cu
  Cu9      1.0000 0.31517  0.74703  0.92423  Biso   1.000  Cu
  Cu10     1.0000 0.18483  0.25297  0.42423  Biso   1.000  Cu
  Cu11     1.0000 0.81517  0.75297  0.07577  Biso   1.000  Cu
  Cu12     1.0000 0.68483  0.24703  0.57577  Biso   1.000  Cu
  Cu13     1.0000 0.68483  0.25297  0.07577  Biso   1.000  Cu
  Cu14     1.0000 0.81517  0.74703  0.57577  Biso   1.000  Cu
  Cu15     1.0000 0.18483  0.24703  0.92423  Biso   1.000  Cu
  Cu16     1.0000 0.31517  0.75297  0.42423  Biso   1.000  Cu
  N1       1.0000 0.31010  0.73842  0.85213  Biso   1.000  N
  N2       1.0000 0.18990  0.26158  0.35213  Biso   1.000  N
  N3       1.0000 0.81010  0.76158  0.14787  Biso   1.000  N
  N4       1.0000 0.68990  0.23842  0.64787  Biso   1.000  N
  N5       1.0000 0.68990  0.26158  0.14787  Biso   1.000  N
  N6       1.0000 0.81010  0.73842  0.64787  Biso   1.000  N
  N7       1.0000 0.18990  0.23842  0.85213  Biso   1.000  N
  N8       1.0000 0.31010  0.76158  0.35213  Biso   1.000  N
  N9       1.0000 0.33600  0.74051  0.49529  Biso   1.000  N
  N10      1.0000 0.16400  0.25949  0.99529  Biso   1.000  N
  N11      1.0000 0.83600  0.75949  0.50471  Biso   1.000  N
  N12      1.0000 0.66400  0.24051  0.00471  Biso   1.000  N
  N13      1.0000 0.66400  0.25949  0.50471  Biso   1.000  N
  N14      1.0000 0.83600  0.74051  0.00471  Biso   1.000  N
  N15      1.0000 0.16400  0.24051  0.49529  Biso   1.000  N
  N16      1.0000 0.33600  0.75949  0.99529  Biso   1.000  N
  N17      1.0000 0.42444  0.10626  0.62961  Biso   1.000  N
  N18      1.0000 0.07556  0.89374  0.12961  Biso   1.000  N
  N19      1.0000 0.92444  0.39374  0.37039  Biso   1.000  N
  N20      1.0000 0.57556  0.60626  0.87039  Biso   1.000  N
  N21      1.0000 0.57556  0.89374  0.37039  Biso   1.000  N
  N22      1.0000 0.92444  0.10626  0.87039  Biso   1.000  N
  N23      1.0000 0.07556  0.60626  0.62961  Biso   1.000  N
  N24      1.0000 0.42444  0.39374  0.12961  Biso   1.000  N
  N25      1.0000 0.43759  0.10061  0.72657  Biso   1.000  N
  N26      1.0000 0.06241  0.89939  0.22657  Biso   1.000  N
  N27      1.0000 0.93759  0.39939  0.27343  Biso   1.000  N
  N28      1.0000 0.56241  0.60061  0.77343  Biso   1.000  N
  N29      1.0000 0.56241  0.89939  0.27343  Biso   1.000  N
  N30      1.0000 0.93759  0.10061  0.77343  Biso   1.000  N
  N31      1.0000 0.06241  0.60061  0.72657  Biso   1.000  N
  N32      1.0000 0.43759  0.39939  0.22657  Biso   1.000  N
  O1       1.0000 0.33173  0.86835  0.91052  Biso   1.000  O
  O2       1.0000 0.16827  0.13165  0.41052  Biso   1.000  O
  O3       1.0000 0.83173  0.63165  0.08948  Biso   1.000  O
  O4       1.0000 0.66827  0.36835  0.58948  Biso   1.000  O
  O5       1.0000 0.66827  0.13165  0.08948  Biso   1.000  O
  O6       1.0000 0.83173  0.86835  0.58948  Biso   1.000  O
  O7       1.0000 0.16827  0.36835  0.91052  Biso   1.000  O
  O8       1.0000 0.33173  0.63165  0.41052  Biso   1.000  O
  O9       1.0000 0.34222  0.96313  0.84977  Biso   1.000  O
  O10      1.0000 0.15778  0.03687  0.34977  Biso   1.000  O
  O11      1.0000 0.84222  0.53687  0.15023  Biso   1.000  O
  O12      1.0000 0.65778  0.46313  0.65023  Biso   1.000  O
  O13      1.0000 0.65778  0.03687  0.15023  Biso   1.000  O
  O14      1.0000 0.84222  0.96313  0.65023  Biso   1.000  O
  O15      1.0000 0.15778  0.46313  0.84977  Biso   1.000  O
  O16      1.0000 0.34222  0.53687  0.34977  Biso   1.000  O
  O17      1.0000 0.38474  0.91814  0.72507  Biso   1.000  O
  O18      1.0000 0.11526  0.08186  0.22507  Biso   1.000  O
  O19      1.0000 0.88474  0.58186  0.27493  Biso   1.000  O
  O20      1.0000 0.61526  0.41814  0.77493  Biso   1.000  O
  O21      1.0000 0.61526  0.08186  0.27493  Biso   1.000  O
  O22      1.0000 0.88474  0.91814  0.77493  Biso   1.000  O
  O23      1.0000 0.11526  0.41814  0.72507  Biso   1.000  O
  O24      1.0000 0.38474  0.58186  0.22507  Biso   1.000  O
  O25      1.0000 0.23419  0.95720  0.75323  Biso   1.000  O
  O26      1.0000 0.26581  0.04280  0.25323  Biso   1.000  O
  O27      1.0000 0.73419  0.54280  0.24677  Biso   1.000  O
  O28      1.0000 0.76581  0.45720  0.74677  Biso   1.000  O
  O29      1.0000 0.76581  0.04280  0.24677  Biso   1.000  O
  O30      1.0000 0.73419  0.95720  0.74677  Biso   1.000  O
  O31      1.0000 0.26581  0.45720  0.75323  Biso   1.000  O
  O32      1.0000 0.23419  0.54280  0.25323  Biso   1.000  O
  O33      1.0000 0.32986  0.87532  0.43870  Biso   1.000  O
  O34      1.0000 0.17014  0.12468  0.93870  Biso   1.000  O
  O35      1.0000 0.82986  0.62468  0.56130  Biso   1.000  O
  O36      1.0000 0.67014  0.37532  0.06130  Biso   1.000  O
  O37      1.0000 0.67014  0.12468  0.56130  Biso   1.000  O
  O38      1.0000 0.82986  0.87532  0.06130  Biso   1.000  O
  O39      1.0000 0.17014  0.37532  0.43870  Biso   1.000  O
  O40      1.0000 0.32986  0.62468  0.93870  Biso   1.000  O
  O41      1.0000 0.35700  0.96557  0.50043  Biso   1.000  O
  O42      1.0000 0.14300  0.03443  0.00043  Biso   1.000  O
  O43      1.0000 0.85700  0.53443  0.49957  Biso   1.000  O
  O44      1.0000 0.64300  0.46557  0.99957  Biso   1.000  O
  O45      1.0000 0.64300  0.03443  0.49957  Biso   1.000  O
  O46      1.0000 0.85700  0.96557  0.99957  Biso   1.000  O
  O47      1.0000 0.14300  0.46557  0.50043  Biso   1.000  O
  O48      1.0000 0.35700  0.53443  0.00043  Biso   1.000  O
  O49      1.0000 0.24948  0.94454  0.59853  Biso   1.000  O
  O50      1.0000 0.25052  0.05546  0.09853  Biso   1.000  O
  O51      1.0000 0.74948  0.55546  0.40147  Biso   1.000  O
  O52      1.0000 0.75052  0.44454  0.90147  Biso   1.000  O
  O53      1.0000 0.75052  0.05546  0.40147  Biso   1.000  O
  O54      1.0000 0.74948  0.94454  0.90147  Biso   1.000  O
  O55      1.0000 0.25052  0.44454  0.59853  Biso   1.000  O
  O56      1.0000 0.24948  0.55546  0.09853  Biso   1.000  O
  O57      1.0000 0.40503  0.92156  0.62415  Biso   1.000  O
  O58      1.0000 0.09497  0.07844  0.12415  Biso   1.000  O
  O59      1.0000 0.90503  0.57844  0.37585  Biso   1.000  O
  O60      1.0000 0.59497  0.42156  0.87585  Biso   1.000  O
  O61      1.0000 0.59497  0.07844  0.37585  Biso   1.000  O
  O62      1.0000 0.90503  0.92156  0.87585  Biso   1.000  O
  O63      1.0000 0.09497  0.42156  0.62415  Biso   1.000  O
  O64      1.0000 0.40503  0.57844  0.12415  Biso   1.000  O
  O65      1.0000 0.14710  0.73824  0.93346  Biso   1.000  O
  O66      1.0000 0.35290  0.26176  0.43346  Biso   1.000  O
  O67      1.0000 0.64710  0.76176  0.06654  Biso   1.000  O
  O68      1.0000 0.85290  0.23824  0.56654  Biso   1.000  O
  O69      1.0000 0.85290  0.26176  0.06654  Biso   1.000  O
  O70      1.0000 0.64710  0.73824  0.56654  Biso   1.000  O
  O71      1.0000 0.35290  0.23824  0.93346  Biso   1.000  O
  O72      1.0000 0.14710  0.76176  0.43346  Biso   1.000  O
  H113     1.0000 0.10710  0.69600  0.93000  Biso   1.000  H
  H114     1.0000 0.39290  0.30400  0.43000  Biso   1.000  H
  H115     1.0000 0.60710  0.80400  0.07000  Biso   1.000  H
  H116     1.0000 0.89290  0.19600  0.57000  Biso   1.000  H
  H117     1.0000 0.89290  0.30400  0.07000  Biso   1.000  H
  H118     1.0000 0.60710  0.69600  0.57000  Biso   1.000  H
  H119     1.0000 0.39290  0.19600  0.93000  Biso   1.000  H
  H120     1.0000 0.10710  0.80400  0.43000  Biso   1.000  H
  H121     1.0000 0.11600  0.78380  0.92500  Biso   1.000  H
  H122     1.0000 0.38400  0.21620  0.42500  Biso   1.000  H
  H123     1.0000 0.61600  0.71620  0.07500  Biso   1.000  H
  H124     1.0000 0.88400  0.28380  0.57500  Biso   1.000  H
  H125     1.0000 0.88400  0.21620  0.07500  Biso   1.000  H
  H126     1.0000 0.61600  0.78380  0.57500  Biso   1.000  H
  H127     1.0000 0.38400  0.28380  0.92500  Biso   1.000  H
  H128     1.0000 0.11600  0.71620  0.42500  Biso   1.000  H
  O73      1.0000 0.58534  0.96885  0.67473  Biso   1.000  O
  O74      1.0000 0.91466  0.03115  0.17473  Biso   1.000  O
  O75      1.0000 0.08534  0.53115  0.32527  Biso   1.000  O
  O76      1.0000 0.41466  0.46885  0.82527  Biso   1.000  O
  O77      1.0000 0.41466  0.03115  0.32527  Biso   1.000  O
  O78      1.0000 0.08534  0.96885  0.82527  Biso   1.000  O
  O79      1.0000 0.91466  0.46885  0.67473  Biso   1.000  O
  O80      1.0000 0.58534  0.53115  0.17473  Biso   1.000  O
  H129     1.0000 0.63710  0.96440  0.69250  Biso   1.000  H
  H130     1.0000 0.86290  0.03560  0.19250  Biso   1.000  H
  H131     1.0000 0.13710  0.53560  0.30750  Biso   1.000  H
  H132     1.0000 0.36290  0.46440  0.80750  Biso   1.000  H
  H133     1.0000 0.36290  0.03560  0.30750  Biso   1.000  H
  H134     1.0000 0.13710  0.96440  0.80750  Biso   1.000  H
  H135     1.0000 0.86290  0.46440  0.69250  Biso   1.000  H
  H136     1.0000 0.63710  0.53560  0.19250  Biso   1.000  H
  H137     1.0000 0.60350  0.95760  0.64550  Biso   1.000  H
  H138     1.0000 0.89650  0.04240  0.14550  Biso   1.000  H
  H139     1.0000 0.10350  0.54240  0.35450  Biso   1.000  H
  H140     1.0000 0.39650  0.45760  0.85450  Biso   1.000  H
  H141     1.0000 0.39650  0.04240  0.35450  Biso   1.000  H
  H142     1.0000 0.10350  0.95760  0.85450  Biso   1.000  H
  H143     1.0000 0.89650  0.45760  0.64550  Biso   1.000  H
  H144     1.0000 0.60350  0.54240  0.14550  Biso   1.000  H
  O81      1.0000 0.09360  0.91002  0.92688  Biso   1.000  O
  O82      1.0000 0.40640  0.08998  0.42688  Biso   1.000  O
  O83      1.0000 0.59360  0.58998  0.07312  Biso   1.000  O
  O84      1.0000 0.90640  0.41002  0.57312  Biso   1.000  O
  O85      1.0000 0.90640  0.08998  0.07312  Biso   1.000  O
  O86      1.0000 0.59360  0.91002  0.57312  Biso   1.000  O
  O87      1.0000 0.40640  0.41002  0.92688  Biso   1.000  O
  O88      1.0000 0.09360  0.58998  0.42688  Biso   1.000  O
  H145     1.0000 0.03180  0.92050  0.92320  Biso   1.000  H
  H146     1.0000 0.46820  0.07950  0.42320  Biso   1.000  H
  H147     1.0000 0.53180  0.57950  0.07680  Biso   1.000  H
  H148     1.0000 0.96820  0.42050  0.57680  Biso   1.000  H
  H149     1.0000 0.96820  0.07950  0.07680  Biso   1.000  H
  H150     1.0000 0.53180  0.92050  0.57680  Biso   1.000  H
  H151     1.0000 0.46820  0.42050  0.92320  Biso   1.000  H
  H152     1.0000 0.03180  0.57950  0.42320  Biso   1.000  H
  H153     1.0000 0.11500  0.94740  0.94720  Biso   1.000  H
  H154     1.0000 0.38500  0.05260  0.44720  Biso   1.000  H
  H155     1.0000 0.61500  0.55260  0.05280  Biso   1.000  H
  H156     1.0000 0.88500  0.44740  0.55280  Biso   1.000  H
  H157     1.0000 0.88500  0.05260  0.05280  Biso   1.000  H
  H158     1.0000 0.61500  0.94740  0.55280  Biso   1.000  H
  H159     1.0000 0.38500  0.44740  0.94720  Biso   1.000  H
  H160     1.0000 0.11500  0.55260  0.44720  Biso   1.000  H
  O89      1.0000 0.07173  0.56630  0.92893  Biso   1.000  O
  O90      1.0000 0.42827  0.43370  0.42893  Biso   1.000  O
  O91      1.0000 0.57173  0.93370  0.07107  Biso   1.000  O
  O92      1.0000 0.92827  0.06630  0.57107  Biso   1.000  O
  O93      1.0000 0.92827  0.43370  0.07107  Biso   1.000  O
  O94      1.0000 0.57173  0.56630  0.57107  Biso   1.000  O
  O95      1.0000 0.42827  0.06630  0.92893  Biso   1.000  O
  O96      1.0000 0.07173  0.93370  0.42893  Biso   1.000  O
  H161     1.0000 0.11050  0.53950  0.90950  Biso   1.000  H
  H162     1.0000 0.38950  0.46050  0.40950  Biso   1.000  H
  H163     1.0000 0.61050  0.96050  0.09050  Biso   1.000  H
  H164     1.0000 0.88950  0.03950  0.59050  Biso   1.000  H
  H165     1.0000 0.88950  0.46050  0.09050  Biso   1.000  H
  H166     1.0000 0.61050  0.53950  0.59050  Biso   1.000  H
  H167     1.0000 0.38950  0.03950  0.90950  Biso   1.000  H
  H168     1.0000 0.11050  0.96050  0.40950  Biso   1.000  H
  H169     1.0000 0.01860  0.53650  0.93070  Biso   1.000  H
  H170     1.0000 0.48140  0.46350  0.43070  Biso   1.000  H
  H171     1.0000 0.51860  0.96350  0.06930  Biso   1.000  H
  H172     1.0000 0.98140  0.03650  0.56930  Biso   1.000  H
  H173     1.0000 0.98140  0.46350  0.06930  Biso   1.000  H
  H174     1.0000 0.51860  0.53650  0.56930  Biso   1.000  H
  H175     1.0000 0.48140  0.03650  0.93070  Biso   1.000  H
  H176     1.0000 0.01860  0.96350  0.43070  Biso   1.000  H
  O97      1.0000 0.20070  0.06020  0.67174  Biso   1.000  O
  O98      1.0000 0.29930  0.93980  0.17174  Biso   1.000  O
  O99      1.0000 0.70070  0.43980  0.32826  Biso   1.000  O
  O100     1.0000 0.79930  0.56020  0.82826  Biso   1.000  O
  O101     1.0000 0.79930  0.93980  0.32826  Biso   1.000  O
  O102     1.0000 0.70070  0.06020  0.82826  Biso   1.000  O
  O103     1.0000 0.29930  0.56020  0.67174  Biso   1.000  O
  O104     1.0000 0.20070  0.43980  0.17174  Biso   1.000  O
  H177     1.0000 0.21550  0.02770  0.64760  Biso   1.000  H
  H178     1.0000 0.28450  0.97230  0.14760  Biso   1.000  H
  H179     1.0000 0.71550  0.47230  0.35240  Biso   1.000  H
  H180     1.0000 0.78450  0.52770  0.85240  Biso   1.000  H
  H181     1.0000 0.78450  0.97230  0.35240  Biso   1.000  H
  H182     1.0000 0.71550  0.02770  0.85240  Biso   1.000  H
  H183     1.0000 0.28450  0.52770  0.64760  Biso   1.000  H
  H184     1.0000 0.21550  0.47230  0.14760  Biso   1.000  H
  H185     1.0000 0.20150  0.02690  0.69660  Biso   1.000  H
  H186     1.0000 0.29850  0.97310  0.19660  Biso   1.000  H
  H187     1.0000 0.70150  0.47310  0.30340  Biso   1.000  H
  H188     1.0000 0.79850  0.52690  0.80340  Biso   1.000  H
  H189     1.0000 0.79850  0.97310  0.30340  Biso   1.000  H
  H190     1.0000 0.70150  0.02690  0.80340  Biso   1.000  H
  H191     1.0000 0.29850  0.52690  0.69660  Biso   1.000  H
  H192     1.0000 0.20150  0.47310  0.19660  Biso   1.000  H
  O105     1.0000 0.09230  0.96260  0.53256  Biso   1.000  O
  O106     1.0000 0.40770  0.03740  0.03256  Biso   1.000  O
  O107     1.0000 0.59230  0.53740  0.46744  Biso   1.000  O
  O108     1.0000 0.90770  0.46260  0.96744  Biso   1.000  O
  O109     1.0000 0.90770  0.03740  0.46744  Biso   1.000  O
  O110     1.0000 0.59230  0.96260  0.96744  Biso   1.000  O
  O111     1.0000 0.40770  0.46260  0.53256  Biso   1.000  O
  O112     1.0000 0.09230  0.53740  0.03256  Biso   1.000  O
  H193     1.0000 0.15070  0.96380  0.54460  Biso   1.000  H
  H194     1.0000 0.34930  0.03620  0.04460  Biso   1.000  H
  H195     1.0000 0.65070  0.53620  0.45540  Biso   1.000  H
  H196     1.0000 0.84930  0.46380  0.95540  Biso   1.000  H
  H197     1.0000 0.84930  0.03620  0.45540  Biso   1.000  H
  H198     1.0000 0.65070  0.96380  0.95540  Biso   1.000  H
  H199     1.0000 0.34930  0.46380  0.54460  Biso   1.000  H
  H200     1.0000 0.15070  0.53620  0.04460  Biso   1.000  H
  H201     1.0000 0.09980  0.96280  0.50150  Biso   1.000  H
  H202     1.0000 0.40020  0.03720  0.00150  Biso   1.000  H
  H203     1.0000 0.59980  0.53720  0.49850  Biso   1.000  H
  H204     1.0000 0.90020  0.46280  0.99850  Biso   1.000  H
  H205     1.0000 0.90020  0.03720  0.49850  Biso   1.000  H
  H206     1.0000 0.59980  0.96280  0.99850  Biso   1.000  H
  H207     1.0000 0.40020  0.46280  0.50150  Biso   1.000  H
  H208     1.0000 0.09980  0.53720  0.00150  Biso   1.000  H
