data_image0
_cell_length_a       7.689
_cell_length_b       16.975
_cell_length_c       11.689
_cell_angle_alpha    90
_cell_angle_beta     90.208
_cell_angle_gamma    90

_symmetry_space_group_name_H-M    "P 1"
_symmetry_int_tables_number       1

loop_
  _symmetry_equiv_pos_as_xyz
  'x, y, z'

loop_
  _atom_site_label
  _atom_site_occupancy
  _atom_site_fract_x
  _atom_site_fract_y
  _atom_site_fract_z
  _atom_site_thermal_displace_type
  _atom_site_B_iso_or_equiv
  _atom_site_type_symbol
  Cu1      1.0000 0.99642  0.72928  0.46110  Biso   1.000  Cu
  Cu2      1.0000 0.49642  0.27072  0.96110  Biso   1.000  Cu
  Cu3      1.0000 0.00358  0.27072  0.53890  Biso   1.000  Cu
  Cu4      1.0000 0.50358  0.72928  0.03890  Biso   1.000  Cu
  N1       1.0000 0.02280  0.79170  0.32000  Biso   1.000  N
  N2       1.0000 0.52280  0.20830  0.82000  Biso   1.000  N
  N3       1.0000 0.97720  0.20830  0.68000  Biso   1.000  N
  N4       1.0000 0.47720  0.79170  0.18000  Biso   1.000  N
  N5       1.0000 0.06070  0.87460  0.14970  Biso   1.000  N
  N6       1.0000 0.56070  0.12540  0.64970  Biso   1.000  N
  N7       1.0000 0.93930  0.12540  0.85030  Biso   1.000  N
  N8       1.0000 0.43930  0.87460  0.35030  Biso   1.000  N
  N9       1.0000 0.13690  0.83500  0.95420  Biso   1.000  N
  N10      1.0000 0.63690  0.16500  0.45420  Biso   1.000  N
  N11      1.0000 0.86310  0.16500  0.04580  Biso   1.000  N
  N12      1.0000 0.36310  0.83500  0.54580  Biso   1.000  N
  N13      1.0000 0.18910  0.65770  0.40910  Biso   1.000  N
  N14      1.0000 0.68910  0.34230  0.90910  Biso   1.000  N
  N15      1.0000 0.81090  0.34230  0.59090  Biso   1.000  N
  N16      1.0000 0.31090  0.65770  0.09090  Biso   1.000  N
  N17      1.0000 0.48040  0.60760  0.37290  Biso   1.000  N
  N18      1.0000 0.98040  0.39240  0.87290  Biso   1.000  N
  N19      1.0000 0.51960  0.39240  0.62710  Biso   1.000  N
  N20      1.0000 0.01960  0.60760  0.12710  Biso   1.000  N
  N21      1.0000 0.75900  0.67230  0.40250  Biso   1.000  N
  N22      1.0000 0.25900  0.32770  0.90250  Biso   1.000  N
  N23      1.0000 0.24100  0.32770  0.59750  Biso   1.000  N
  N24      1.0000 0.74100  0.67230  0.09750  Biso   1.000  N
  N25      1.0000 0.91120  0.82530  0.54560  Biso   1.000  N
  N26      1.0000 0.41120  0.17470  0.04560  Biso   1.000  N
  N27      1.0000 0.08880  0.17470  0.45440  Biso   1.000  N
  N28      1.0000 0.58880  0.82530  0.95440  Biso   1.000  N
  N29      1.0000 0.03810  0.78600  0.72070  Biso   1.000  N
  N30      1.0000 0.53810  0.21400  0.22070  Biso   1.000  N
  N31      1.0000 0.96190  0.21400  0.27930  Biso   1.000  N
  N32      1.0000 0.46190  0.78600  0.77930  Biso   1.000  N
  H1       1.0000 0.10210  0.80240  0.77630  Biso   1.000  H
  H2       1.0000 0.60210  0.19760  0.27630  Biso   1.000  H
  H3       1.0000 0.89790  0.19760  0.22370  Biso   1.000  H
  H4       1.0000 0.39790  0.80240  0.72370  Biso   1.000  H
  N33      1.0000 0.99290  0.67155  0.61020  Biso   1.000  N
  N34      1.0000 0.49290  0.32845  0.11020  Biso   1.000  N
  N35      1.0000 0.00710  0.32845  0.38980  Biso   1.000  N
  N36      1.0000 0.50710  0.67155  0.88980  Biso   1.000  N
  C1       1.0000 0.04550  0.82650  0.23650  Biso   1.000  C
  C2       1.0000 0.54550  0.17350  0.73650  Biso   1.000  C
  C3       1.0000 0.95450  0.17350  0.76350  Biso   1.000  C
  C4       1.0000 0.45450  0.82650  0.26350  Biso   1.000  C
  C5       1.0000 0.10320  0.84910  0.04750  Biso   1.000  C
  C6       1.0000 0.60320  0.15090  0.54750  Biso   1.000  C
  C7       1.0000 0.89680  0.15090  0.95250  Biso   1.000  C
  C8       1.0000 0.39680  0.84910  0.45250  Biso   1.000  C
  C9       1.0000 0.33030  0.63790  0.39240  Biso   1.000  C
  C10      1.0000 0.83030  0.36210  0.89240  Biso   1.000  C
  C11      1.0000 0.66970  0.36210  0.60760  Biso   1.000  C
  C12      1.0000 0.16970  0.63790  0.10760  Biso   1.000  C
  C13      1.0000 0.62300  0.64590  0.39000  Biso   1.000  C
  C14      1.0000 0.12300  0.35410  0.89000  Biso   1.000  C
  C15      1.0000 0.37700  0.35410  0.61000  Biso   1.000  C
  C16      1.0000 0.87700  0.64590  0.11000  Biso   1.000  C
  C17      1.0000 0.82060  0.88120  0.48720  Biso   1.000  C
  C18      1.0000 0.32060  0.11880  0.98720  Biso   1.000  C
  C19      1.0000 0.17940  0.11880  0.51280  Biso   1.000  C
  C20      1.0000 0.67940  0.88120  0.01280  Biso   1.000  C
  H5       1.0000 0.77290  0.86760  0.41670  Biso   1.000  H
  H6       1.0000 0.27290  0.13240  0.91670  Biso   1.000  H
  H7       1.0000 0.22710  0.13240  0.58330  Biso   1.000  H
  H8       1.0000 0.72710  0.86760  0.08330  Biso   1.000  H
  C21      1.0000 0.79570  0.95620  0.52610  Biso   1.000  C
  C22      1.0000 0.29570  0.04380  0.02610  Biso   1.000  C
  C23      1.0000 0.20430  0.04380  0.47390  Biso   1.000  C
  C24      1.0000 0.70430  0.95620  0.97390  Biso   1.000  C
  H9       1.0000 0.73090  0.99250  0.48430  Biso   1.000  H
  H10      1.0000 0.23090  0.00750  0.98430  Biso   1.000  H
  H11      1.0000 0.26910  0.00750  0.51570  Biso   1.000  H
  H12      1.0000 0.76910  0.99250  0.01570  Biso   1.000  H
  C25      1.0000 0.87060  0.97640  0.63070  Biso   1.000  C
  C26      1.0000 0.37060  0.02360  0.13070  Biso   1.000  C
  C27      1.0000 0.12940  0.02360  0.36930  Biso   1.000  C
  C28      1.0000 0.62940  0.97640  0.86930  Biso   1.000  C
  H13      1.0000 0.86180  0.02760  0.65800  Biso   1.000  H
  H14      1.0000 0.36180  0.97240  0.15800  Biso   1.000  H
  H15      1.0000 0.13820  0.97240  0.34200  Biso   1.000  H
  H16      1.0000 0.63820  0.02760  0.84200  Biso   1.000  H
  C29      1.0000 0.95820  0.91990  0.69380  Biso   1.000  C
  C30      1.0000 0.45820  0.08010  0.19380  Biso   1.000  C
  C31      1.0000 0.04180  0.08010  0.30620  Biso   1.000  C
  C32      1.0000 0.54180  0.91990  0.80620  Biso   1.000  C
  H17      1.0000 0.00980  0.93290  0.76340  Biso   1.000  H
  H18      1.0000 0.50980  0.06710  0.26340  Biso   1.000  H
  H19      1.0000 0.99020  0.06710  0.23660  Biso   1.000  H
  H20      1.0000 0.49020  0.93290  0.73660  Biso   1.000  H
  C33      1.0000 0.96780  0.84390  0.65170  Biso   1.000  C
  C34      1.0000 0.46780  0.15610  0.15170  Biso   1.000  C
  C35      1.0000 0.03220  0.15610  0.34830  Biso   1.000  C
  C36      1.0000 0.53220  0.84390  0.84830  Biso   1.000  C
  C37      1.0000 0.01970  0.70550  0.71240  Biso   1.000  C
  C38      1.0000 0.51970  0.29450  0.21240  Biso   1.000  C
  C39      1.0000 0.98030  0.29450  0.28760  Biso   1.000  C
  C40      1.0000 0.48030  0.70550  0.78760  Biso   1.000  C
  C41      1.0000 0.03900  0.66050  0.81210  Biso   1.000  C
  C42      1.0000 0.53900  0.33950  0.31210  Biso   1.000  C
  C43      1.0000 0.96100  0.33950  0.18790  Biso   1.000  C
  C44      1.0000 0.46100  0.66050  0.68790  Biso   1.000  C
  H21      1.0000 0.06440  0.68470  0.88160  Biso   1.000  H
  H22      1.0000 0.56440  0.31530  0.38160  Biso   1.000  H
  H23      1.0000 0.93560  0.31530  0.11840  Biso   1.000  H
  H24      1.0000 0.43560  0.68470  0.61840  Biso   1.000  H
  C45      1.0000 0.02020  0.58060  0.80600  Biso   1.000  C
  C46      1.0000 0.52020  0.41940  0.30600  Biso   1.000  C
  C47      1.0000 0.97980  0.41940  0.19400  Biso   1.000  C
  C48      1.0000 0.47980  0.58060  0.69400  Biso   1.000  C
  H25      1.0000 0.02760  0.55020  0.87200  Biso   1.000  H
  H26      1.0000 0.52760  0.44980  0.37200  Biso   1.000  H
  H27      1.0000 0.97240  0.44980  0.12800  Biso   1.000  H
  H28      1.0000 0.47240  0.55020  0.62800  Biso   1.000  H
  C49      1.0000 0.98980  0.54460  0.70080  Biso   1.000  C
  C50      1.0000 0.48980  0.45540  0.20080  Biso   1.000  C
  C51      1.0000 0.01020  0.45540  0.29920  Biso   1.000  C
  C52      1.0000 0.51020  0.54460  0.79920  Biso   1.000  C
  H29      1.0000 0.97830  0.49020  0.69480  Biso   1.000  H
  H30      1.0000 0.47830  0.50980  0.19480  Biso   1.000  H
  H31      1.0000 0.02170  0.50980  0.30520  Biso   1.000  H
  H32      1.0000 0.52170  0.49020  0.80520  Biso   1.000  H
  C53      1.0000 0.97740  0.59230  0.60630  Biso   1.000  C
  C54      1.0000 0.47740  0.40770  0.10630  Biso   1.000  C
  C55      1.0000 0.02260  0.40770  0.39370  Biso   1.000  C
  C56      1.0000 0.52260  0.59230  0.89370  Biso   1.000  C
  H33      1.0000 0.95710  0.56880  0.53560  Biso   1.000  H
  H34      1.0000 0.45710  0.43120  0.03560  Biso   1.000  H
  H35      1.0000 0.04290  0.43120  0.46440  Biso   1.000  H
  H36      1.0000 0.54290  0.56880  0.96440  Biso   1.000  H
