data_image0
_cell_length_a       13.106
_cell_length_b       9.14
_cell_length_c       14.19
_cell_angle_alpha    90
_cell_angle_beta     98.862
_cell_angle_gamma    90

_symmetry_space_group_name_H-M    "P 1"
_symmetry_int_tables_number       1

loop_
  _symmetry_equiv_pos_as_xyz
  'x, y, z'

loop_
  _atom_site_label
  _atom_site_occupancy
  _atom_site_fract_x
  _atom_site_fract_y
  _atom_site_fract_z
  _atom_site_thermal_displace_type
  _atom_site_B_iso_or_equiv
  _atom_site_type_symbol
  Cu1      1.0000 0.75000  0.25000  0.25000  Biso   1.000  Cu
  Cu2      1.0000 0.25000  0.75000  0.75000  Biso   1.000  Cu
  Cu3      1.0000 0.25000  0.75000  0.25000  Biso   1.000  Cu
  Cu4      1.0000 0.75000  0.25000  0.75000  Biso   1.000  Cu
  N1       1.0000 0.83834  0.19530  0.37274  Biso   1.000  N
  N2       1.0000 0.33834  0.69530  0.87274  Biso   1.000  N
  N3       1.0000 0.33834  0.80470  0.37274  Biso   1.000  N
  N4       1.0000 0.83834  0.30470  0.87274  Biso   1.000  N
  N5       1.0000 0.16166  0.80470  0.62726  Biso   1.000  N
  N6       1.0000 0.66166  0.30470  0.12726  Biso   1.000  N
  N7       1.0000 0.66166  0.19530  0.62726  Biso   1.000  N
  N8       1.0000 0.16166  0.69530  0.12726  Biso   1.000  N
  N9       1.0000 0.95305  0.18070  0.52516  Biso   1.000  N
  N10      1.0000 0.45305  0.68070  0.02516  Biso   1.000  N
  N11      1.0000 0.45305  0.81930  0.52516  Biso   1.000  N
  N12      1.0000 0.95305  0.31930  0.02516  Biso   1.000  N
  N13      1.0000 0.04695  0.81930  0.47484  Biso   1.000  N
  N14      1.0000 0.54695  0.31930  0.97484  Biso   1.000  N
  N15      1.0000 0.54695  0.18070  0.47484  Biso   1.000  N
  N16      1.0000 0.04695  0.68070  0.97484  Biso   1.000  N
  N17      1.0000 0.90707  0.17660  0.68615  Biso   1.000  N
  N18      1.0000 0.40707  0.67660  0.18615  Biso   1.000  N
  N19      1.0000 0.40707  0.82340  0.68615  Biso   1.000  N
  N20      1.0000 0.90707  0.32340  0.18615  Biso   1.000  N
  N21      1.0000 0.09293  0.82340  0.31385  Biso   1.000  N
  N22      1.0000 0.59293  0.32340  0.81385  Biso   1.000  N
  N23      1.0000 0.59293  0.17660  0.31385  Biso   1.000  N
  N24      1.0000 0.09293  0.67660  0.81385  Biso   1.000  N
  N25      1.0000 0.76125  0.04350  0.20082  Biso   1.000  N
  N26      1.0000 0.26125  0.54350  0.70082  Biso   1.000  N
  N27      1.0000 0.26125  0.95650  0.20082  Biso   1.000  N
  N28      1.0000 0.76125  0.45650  0.70082  Biso   1.000  N
  N29      1.0000 0.23875  0.95650  0.79918  Biso   1.000  N
  N30      1.0000 0.73875  0.45650  0.29918  Biso   1.000  N
  N31      1.0000 0.73875  0.04350  0.79918  Biso   1.000  N
  N32      1.0000 0.23875  0.54350  0.29918  Biso   1.000  N
  C1       1.0000 0.88757  0.18890  0.44661  Biso   1.000  C
  C2       1.0000 0.38757  0.68890  0.94661  Biso   1.000  C
  C3       1.0000 0.38757  0.81110  0.44661  Biso   1.000  C
  C4       1.0000 0.88757  0.31110  0.94661  Biso   1.000  C
  C5       1.0000 0.11243  0.81110  0.55339  Biso   1.000  C
  C6       1.0000 0.61243  0.31110  0.05339  Biso   1.000  C
  C7       1.0000 0.61243  0.18890  0.55339  Biso   1.000  C
  C8       1.0000 0.11243  0.68890  0.05339  Biso   1.000  C
  C9       1.0000 0.92380  0.17930  0.60912  Biso   1.000  C
  C10      1.0000 0.42380  0.67930  0.10912  Biso   1.000  C
  C11      1.0000 0.42380  0.82070  0.60912  Biso   1.000  C
  C12      1.0000 0.92380  0.32070  0.10912  Biso   1.000  C
  C13      1.0000 0.07620  0.82070  0.39088  Biso   1.000  C
  C14      1.0000 0.57620  0.32070  0.89088  Biso   1.000  C
  C15      1.0000 0.57620  0.17930  0.39088  Biso   1.000  C
  C16      1.0000 0.07620  0.67930  0.89088  Biso   1.000  C
  C17      1.0000 0.85260  0.97720  0.20149  Biso   1.000  C
  C18      1.0000 0.35260  0.47720  0.70149  Biso   1.000  C
  C19      1.0000 0.35260  0.02280  0.20149  Biso   1.000  C
  C20      1.0000 0.85260  0.52280  0.70149  Biso   1.000  C
  C21      1.0000 0.14740  0.02280  0.79851  Biso   1.000  C
  C22      1.0000 0.64740  0.52280  0.29851  Biso   1.000  C
  C23      1.0000 0.64740  0.97720  0.79851  Biso   1.000  C
  C24      1.0000 0.14740  0.47720  0.29851  Biso   1.000  C
  H1       1.0000 0.91270  0.02240  0.23500  Biso   1.000  H
  H2       1.0000 0.41270  0.52240  0.73500  Biso   1.000  H
  H3       1.0000 0.41270  0.97760  0.23500  Biso   1.000  H
  H4       1.0000 0.91270  0.47760  0.73500  Biso   1.000  H
  H5       1.0000 0.08730  0.97760  0.76500  Biso   1.000  H
  H6       1.0000 0.58730  0.47760  0.26500  Biso   1.000  H
  H7       1.0000 0.58730  0.02240  0.76500  Biso   1.000  H
  H8       1.0000 0.08730  0.52240  0.26500  Biso   1.000  H
  C25      1.0000 0.86310  0.84640  0.15578  Biso   1.000  C
  C26      1.0000 0.36310  0.34640  0.65578  Biso   1.000  C
  C27      1.0000 0.36310  0.15360  0.15578  Biso   1.000  C
  C28      1.0000 0.86310  0.65360  0.65578  Biso   1.000  C
  C29      1.0000 0.13690  0.15360  0.84422  Biso   1.000  C
  C30      1.0000 0.63690  0.65360  0.34422  Biso   1.000  C
  C31      1.0000 0.63690  0.84640  0.84422  Biso   1.000  C
  C32      1.0000 0.13690  0.34640  0.34422  Biso   1.000  C
  H9       1.0000 0.92950  0.80330  0.15810  Biso   1.000  H
  H10      1.0000 0.42950  0.30330  0.65810  Biso   1.000  H
  H11      1.0000 0.42950  0.19670  0.15810  Biso   1.000  H
  H12      1.0000 0.92950  0.69670  0.65810  Biso   1.000  H
  H13      1.0000 0.07050  0.19670  0.84190  Biso   1.000  H
  H14      1.0000 0.57050  0.69670  0.34190  Biso   1.000  H
  H15      1.0000 0.57050  0.80330  0.84190  Biso   1.000  H
  H16      1.0000 0.07050  0.30330  0.34190  Biso   1.000  H
  C33      1.0000 0.77656  0.77760  0.10616  Biso   1.000  C
  C34      1.0000 0.27656  0.27760  0.60616  Biso   1.000  C
  C35      1.0000 0.27656  0.22240  0.10616  Biso   1.000  C
  C36      1.0000 0.77656  0.72240  0.60616  Biso   1.000  C
  C37      1.0000 0.22344  0.22240  0.89384  Biso   1.000  C
  C38      1.0000 0.72344  0.72240  0.39384  Biso   1.000  C
  C39      1.0000 0.72344  0.77760  0.89384  Biso   1.000  C
  C40      1.0000 0.22344  0.27760  0.39384  Biso   1.000  C
  C41      1.0000 0.68150  0.84260  0.11004  Biso   1.000  C
  C42      1.0000 0.18150  0.34260  0.61004  Biso   1.000  C
  C43      1.0000 0.18150  0.15740  0.11004  Biso   1.000  C
  C44      1.0000 0.68150  0.65740  0.61004  Biso   1.000  C
  C45      1.0000 0.31850  0.15740  0.88996  Biso   1.000  C
  C46      1.0000 0.81850  0.65740  0.38996  Biso   1.000  C
  C47      1.0000 0.81850  0.84260  0.88996  Biso   1.000  C
  C48      1.0000 0.31850  0.34260  0.38996  Biso   1.000  C
  H17      1.0000 0.61980  0.79700  0.08010  Biso   1.000  H
  H18      1.0000 0.11980  0.29700  0.58010  Biso   1.000  H
  H19      1.0000 0.11980  0.20300  0.08010  Biso   1.000  H
  H20      1.0000 0.61980  0.70300  0.58010  Biso   1.000  H
  H21      1.0000 0.38020  0.20300  0.91990  Biso   1.000  H
  H22      1.0000 0.88020  0.70300  0.41990  Biso   1.000  H
  H23      1.0000 0.88020  0.79700  0.91990  Biso   1.000  H
  H24      1.0000 0.38020  0.29700  0.41990  Biso   1.000  H
  C49      1.0000 0.67695  0.97320  0.15733  Biso   1.000  C
  C50      1.0000 0.17695  0.47320  0.65733  Biso   1.000  C
  C51      1.0000 0.17695  0.02680  0.15733  Biso   1.000  C
  C52      1.0000 0.67695  0.52680  0.65733  Biso   1.000  C
  C53      1.0000 0.32305  0.02680  0.84267  Biso   1.000  C
  C54      1.0000 0.82305  0.52680  0.34267  Biso   1.000  C
  C55      1.0000 0.82305  0.97320  0.84267  Biso   1.000  C
  C56      1.0000 0.32305  0.47320  0.34267  Biso   1.000  C
  H25      1.0000 0.61120  0.01570  0.15930  Biso   1.000  H
  H26      1.0000 0.11120  0.51570  0.65930  Biso   1.000  H
  H27      1.0000 0.11120  0.98430  0.15930  Biso   1.000  H
  H28      1.0000 0.61120  0.48430  0.65930  Biso   1.000  H
  H29      1.0000 0.38880  0.98430  0.84070  Biso   1.000  H
  H30      1.0000 0.88880  0.48430  0.34070  Biso   1.000  H
  H31      1.0000 0.88880  0.01570  0.84070  Biso   1.000  H
  H32      1.0000 0.38880  0.51570  0.34070  Biso   1.000  H
  C57      1.0000 0.78540  0.63950  0.04872  Biso   1.000  C
  C58      1.0000 0.28540  0.13950  0.54872  Biso   1.000  C
  C59      1.0000 0.28540  0.36050  0.04872  Biso   1.000  C
  C60      1.0000 0.78540  0.86050  0.54872  Biso   1.000  C
  C61      1.0000 0.21460  0.36050  0.95128  Biso   1.000  C
  C62      1.0000 0.71460  0.86050  0.45128  Biso   1.000  C
  C63      1.0000 0.71460  0.63950  0.95128  Biso   1.000  C
  C64      1.0000 0.21460  0.13950  0.45128  Biso   1.000  C
  H33      1.0000 0.76790  0.55420  0.08610  Biso   1.000  H
  H34      1.0000 0.26790  0.05420  0.58610  Biso   1.000  H
  H35      1.0000 0.26790  0.44580  0.08610  Biso   1.000  H
  H36      1.0000 0.76790  0.94580  0.58610  Biso   1.000  H
  H37      1.0000 0.23210  0.44580  0.91390  Biso   1.000  H
  H38      1.0000 0.73210  0.94580  0.41390  Biso   1.000  H
  H39      1.0000 0.73210  0.55420  0.91390  Biso   1.000  H
  H40      1.0000 0.23210  0.05420  0.41390  Biso   1.000  H
  H41      1.0000 0.85790  0.62810  0.03820  Biso   1.000  H
  H42      1.0000 0.35790  0.12810  0.53820  Biso   1.000  H
  H43      1.0000 0.35790  0.37190  0.03820  Biso   1.000  H
  H44      1.0000 0.85790  0.87190  0.53820  Biso   1.000  H
  H45      1.0000 0.14210  0.37190  0.96180  Biso   1.000  H
  H46      1.0000 0.64210  0.87190  0.46180  Biso   1.000  H
  H47      1.0000 0.64210  0.62810  0.96180  Biso   1.000  H
  H48      1.0000 0.14210  0.12810  0.46180  Biso   1.000  H
