data_image0
_cell_length_a       8.1036
_cell_length_b       10.7607
_cell_length_c       15.554
_cell_angle_alpha    90
_cell_angle_beta     102.276
_cell_angle_gamma    90

_symmetry_space_group_name_H-M    "P 1"
_symmetry_int_tables_number       1

loop_
  _symmetry_equiv_pos_as_xyz
  'x, y, z'

loop_
  _atom_site_label
  _atom_site_occupancy
  _atom_site_fract_x
  _atom_site_fract_y
  _atom_site_fract_z
  _atom_site_thermal_displace_type
  _atom_site_B_iso_or_equiv
  _atom_site_type_symbol
  Cu1      1.0000 0.44824  0.37973  0.12841  Biso   1.000  Cu
  Cu2      1.0000 0.94824  0.12027  0.62841  Biso   1.000  Cu
  Cu3      1.0000 0.55176  0.62027  0.87159  Biso   1.000  Cu
  Cu4      1.0000 0.05176  0.87973  0.37159  Biso   1.000  Cu
  O1       1.0000 0.27680  0.37150  0.22310  Biso   1.000  O
  O2       1.0000 0.77680  0.12850  0.72310  Biso   1.000  O
  O3       1.0000 0.72320  0.62850  0.77690  Biso   1.000  O
  O4       1.0000 0.22320  0.87150  0.27690  Biso   1.000  O
  H1       1.0000 0.29100  0.45520  0.27380  Biso   1.000  H
  H2       1.0000 0.79100  0.04480  0.77380  Biso   1.000  H
  H3       1.0000 0.70900  0.54480  0.72620  Biso   1.000  H
  H4       1.0000 0.20900  0.95520  0.22620  Biso   1.000  H
  H5       1.0000 0.19960  0.31160  0.22300  Biso   1.000  H
  H6       1.0000 0.69960  0.18840  0.72300  Biso   1.000  H
  H7       1.0000 0.80040  0.68840  0.77700  Biso   1.000  H
  H8       1.0000 0.30040  0.81160  0.27700  Biso   1.000  H
  O5       1.0000 0.57890  0.56670  0.41720  Biso   1.000  O
  O6       1.0000 0.07890  0.93330  0.91720  Biso   1.000  O
  O7       1.0000 0.42110  0.43330  0.58280  Biso   1.000  O
  O8       1.0000 0.92110  0.06670  0.08280  Biso   1.000  O
  O9       1.0000 0.32710  0.56710  0.32890  Biso   1.000  O
  O10      1.0000 0.82710  0.93290  0.82890  Biso   1.000  O
  O11      1.0000 0.67290  0.43290  0.67110  Biso   1.000  O
  O12      1.0000 0.17290  0.06710  0.17110  Biso   1.000  O
  O13      1.0000 0.52250  0.72760  0.35020  Biso   1.000  O
  O14      1.0000 0.02250  0.77240  0.85020  Biso   1.000  O
  O15      1.0000 0.47750  0.27240  0.64980  Biso   1.000  O
  O16      1.0000 0.97750  0.22760  0.14980  Biso   1.000  O
  N1       1.0000 0.26930  0.35260  0.01610  Biso   1.000  N
  N2       1.0000 0.76930  0.14740  0.51610  Biso   1.000  N
  N3       1.0000 0.73070  0.64740  0.98390  Biso   1.000  N
  N4       1.0000 0.23070  0.85260  0.48390  Biso   1.000  N
  N5       1.0000 0.40380  0.55540  0.09320  Biso   1.000  N
  N6       1.0000 0.90380  0.94460  0.59320  Biso   1.000  N
  N7       1.0000 0.59620  0.44460  0.90680  Biso   1.000  N
  N8       1.0000 0.09620  0.05540  0.40680  Biso   1.000  N
  N9       1.0000 0.26240  0.68990  0.99850  Biso   1.000  N
  N10      1.0000 0.76240  0.81010  0.49850  Biso   1.000  N
  N11      1.0000 0.73760  0.31010  0.00150  Biso   1.000  N
  N12      1.0000 0.23760  0.18990  0.50150  Biso   1.000  N
  H9       1.0000 0.19320  0.72000  0.95180  Biso   1.000  H
  H10      1.0000 0.69320  0.78000  0.45180  Biso   1.000  H
  H11      1.0000 0.80680  0.28000  0.04820  Biso   1.000  H
  H12      1.0000 0.30680  0.22000  0.54820  Biso   1.000  H
  N13      1.0000 0.51470  0.20390  0.13580  Biso   1.000  N
  N14      1.0000 0.01470  0.29610  0.63580  Biso   1.000  N
  N15      1.0000 0.48530  0.79610  0.86420  Biso   1.000  N
  N16      1.0000 0.98530  0.70390  0.36420  Biso   1.000  N
  N17      1.0000 0.59940  0.98900  0.17280  Biso   1.000  N
  N18      1.0000 0.09940  0.51100  0.67280  Biso   1.000  N
  N19      1.0000 0.40060  0.01100  0.82720  Biso   1.000  N
  N20      1.0000 0.90060  0.48900  0.32720  Biso   1.000  N
  N21      1.0000 0.85150  0.92460  0.27990  Biso   1.000  N
  N22      1.0000 0.35150  0.57540  0.77990  Biso   1.000  N
  N23      1.0000 0.14850  0.07540  0.72010  Biso   1.000  N
  N24      1.0000 0.64850  0.42460  0.22010  Biso   1.000  N
  N25      1.0000 0.46870  0.62300  0.36140  Biso   1.000  N
  N26      1.0000 0.96870  0.87700  0.86140  Biso   1.000  N
  N27      1.0000 0.53130  0.37700  0.63860  Biso   1.000  N
  N28      1.0000 0.03130  0.12300  0.13860  Biso   1.000  N
  C1       1.0000 0.20490  0.24390  0.98220  Biso   1.000  C
  C2       1.0000 0.70490  0.25610  0.48220  Biso   1.000  C
  C3       1.0000 0.79510  0.75610  0.01780  Biso   1.000  C
  C4       1.0000 0.29510  0.74390  0.51780  Biso   1.000  C
  H13      1.0000 0.24880  0.16870  0.01010  Biso   1.000  H
  H14      1.0000 0.74880  0.33130  0.51010  Biso   1.000  H
  H15      1.0000 0.75120  0.83130  0.98990  Biso   1.000  H
  H16      1.0000 0.25120  0.66870  0.48990  Biso   1.000  H
  C5       1.0000 0.07630  0.23820  0.90780  Biso   1.000  C
  C6       1.0000 0.57630  0.26180  0.40780  Biso   1.000  C
  C7       1.0000 0.92370  0.76180  0.09220  Biso   1.000  C
  C8       1.0000 0.42370  0.73820  0.59220  Biso   1.000  C
  H17      1.0000 0.03230  0.16000  0.88550  Biso   1.000  H
  H18      1.0000 0.53230  0.34000  0.38550  Biso   1.000  H
  H19      1.0000 0.96770  0.84000  0.11450  Biso   1.000  H
  H20      1.0000 0.46770  0.66000  0.61450  Biso   1.000  H
  C9       1.0000 0.01290  0.34550  0.86640  Biso   1.000  C
  C10      1.0000 0.51290  0.15450  0.36640  Biso   1.000  C
  C11      1.0000 0.98710  0.65450  0.13360  Biso   1.000  C
  C12      1.0000 0.48710  0.84550  0.63360  Biso   1.000  C
  H21      1.0000 0.92430  0.34220  0.81540  Biso   1.000  H
  H22      1.0000 0.42430  0.15780  0.31540  Biso   1.000  H
  H23      1.0000 0.07570  0.65780  0.18460  Biso   1.000  H
  H24      1.0000 0.57570  0.84220  0.68460  Biso   1.000  H
  C13      1.0000 0.07860  0.45870  0.89900  Biso   1.000  C
  C14      1.0000 0.57860  0.04130  0.39900  Biso   1.000  C
  C15      1.0000 0.92140  0.54130  0.10100  Biso   1.000  C
  C16      1.0000 0.42140  0.95870  0.60100  Biso   1.000  C
  H25      1.0000 0.03700  0.53420  0.87090  Biso   1.000  H
  H26      1.0000 0.53700  0.96580  0.37090  Biso   1.000  H
  H27      1.0000 0.96300  0.46580  0.12910  Biso   1.000  H
  H28      1.0000 0.46300  0.03420  0.62910  Biso   1.000  H
  C17      1.0000 0.20800  0.45900  0.97460  Biso   1.000  C
  C18      1.0000 0.70800  0.04100  0.47460  Biso   1.000  C
  C19      1.0000 0.79200  0.54100  0.02540  Biso   1.000  C
  C20      1.0000 0.29200  0.95900  0.52540  Biso   1.000  C
  C21      1.0000 0.28890  0.56950  0.01910  Biso   1.000  C
  C22      1.0000 0.78890  0.93050  0.51910  Biso   1.000  C
  C23      1.0000 0.71110  0.43050  0.98090  Biso   1.000  C
  C24      1.0000 0.21110  0.06950  0.48090  Biso   1.000  C
  C25      1.0000 0.45210  0.67390  0.12270  Biso   1.000  C
  C26      1.0000 0.95210  0.82610  0.62270  Biso   1.000  C
  C27      1.0000 0.54790  0.32610  0.87730  Biso   1.000  C
  C28      1.0000 0.04790  0.17390  0.37730  Biso   1.000  C
  H29      1.0000 0.53290  0.69360  0.17470  Biso   1.000  H
  H30      1.0000 0.03290  0.80640  0.67470  Biso   1.000  H
  H31      1.0000 0.46710  0.30640  0.82530  Biso   1.000  H
  H32      1.0000 0.96710  0.19360  0.32530  Biso   1.000  H
  C29      1.0000 0.36450  0.75790  0.06470  Biso   1.000  C
  C30      1.0000 0.86450  0.74210  0.56470  Biso   1.000  C
  C31      1.0000 0.63550  0.24210  0.93530  Biso   1.000  C
  C32      1.0000 0.13550  0.25790  0.43530  Biso   1.000  C
  H33      1.0000 0.37210  0.84590  0.06890  Biso   1.000  H
  H34      1.0000 0.87210  0.65410  0.56890  Biso   1.000  H
  H35      1.0000 0.62790  0.15410  0.93110  Biso   1.000  H
  H36      1.0000 0.12790  0.34590  0.43110  Biso   1.000  H
  C33      1.0000 0.56200  0.10550  0.15580  Biso   1.000  C
  C34      1.0000 0.06200  0.39450  0.65580  Biso   1.000  C
  C35      1.0000 0.43800  0.89450  0.84420  Biso   1.000  C
  C36      1.0000 0.93800  0.60550  0.34420  Biso   1.000  C
  C37      1.0000 0.73610  0.95970  0.23040  Biso   1.000  C
  C38      1.0000 0.23610  0.54030  0.73040  Biso   1.000  C
  C39      1.0000 0.26390  0.04030  0.76960  Biso   1.000  C
  C40      1.0000 0.76390  0.45970  0.26960  Biso   1.000  C
