data_image0
_cell_length_a       16.1695
_cell_length_b       11.8116
_cell_length_c       7.0266
_cell_angle_alpha    90
_cell_angle_beta     99.531
_cell_angle_gamma    90

_symmetry_space_group_name_H-M    "P 1"
_symmetry_int_tables_number       1

loop_
  _symmetry_equiv_pos_as_xyz
  'x, y, z'

loop_
  _atom_site_label
  _atom_site_occupancy
  _atom_site_fract_x
  _atom_site_fract_y
  _atom_site_fract_z
  _atom_site_thermal_displace_type
  _atom_site_B_iso_or_equiv
  _atom_site_type_symbol
  Cu1      1.0000 0.13833  0.24700  0.18710  Biso   1.000  Cu
  Cu2      1.0000 0.13833  0.75300  0.68710  Biso   1.000  Cu
  Cu3      1.0000 0.63833  0.74700  0.18710  Biso   1.000  Cu
  Cu4      1.0000 0.63833  0.25300  0.68710  Biso   1.000  Cu
  S1       1.0000 0.13900  0.16330  0.68890  Biso   1.000  S
  S2       1.0000 0.13900  0.83670  0.18890  Biso   1.000  S
  S3       1.0000 0.63900  0.66330  0.68890  Biso   1.000  S
  S4       1.0000 0.63900  0.33670  0.18890  Biso   1.000  S
  O1       1.0000 0.05560  0.12400  0.21850  Biso   1.000  O
  O2       1.0000 0.05560  0.87600  0.71850  Biso   1.000  O
  O3       1.0000 0.55560  0.62400  0.21850  Biso   1.000  O
  O4       1.0000 0.55560  0.37600  0.71850  Biso   1.000  O
  N1       1.0000 0.04650  0.36370  0.15410  Biso   1.000  N
  N2       1.0000 0.04650  0.63630  0.65410  Biso   1.000  N
  N3       1.0000 0.54650  0.86370  0.15410  Biso   1.000  N
  N4       1.0000 0.54650  0.13630  0.65410  Biso   1.000  N
  N5       1.0000 0.22930  0.36520  0.21180  Biso   1.000  N
  N6       1.0000 0.22930  0.63480  0.71180  Biso   1.000  N
  N7       1.0000 0.72930  0.86520  0.21180  Biso   1.000  N
  N8       1.0000 0.72930  0.13480  0.71180  Biso   1.000  N
  O5       1.0000 0.06880  0.08990  0.58660  Biso   1.000  O
  O6       1.0000 0.06880  0.91010  0.08660  Biso   1.000  O
  O7       1.0000 0.56880  0.58990  0.58660  Biso   1.000  O
  O8       1.0000 0.56880  0.41010  0.08660  Biso   1.000  O
  C1       1.0000 0.22060  0.47770  0.21820  Biso   1.000  C
  C2       1.0000 0.22060  0.52230  0.71820  Biso   1.000  C
  C3       1.0000 0.72060  0.97770  0.21820  Biso   1.000  C
  C4       1.0000 0.72060  0.02230  0.71820  Biso   1.000  C
  O9       1.0000 0.20650  0.08990  0.78200  Biso   1.000  O
  O10      1.0000 0.20650  0.91010  0.28200  Biso   1.000  O
  O11      1.0000 0.70650  0.58990  0.78200  Biso   1.000  O
  O12      1.0000 0.70650  0.41010  0.28200  Biso   1.000  O
  C5       1.0000 0.06280  0.47720  0.15820  Biso   1.000  C
  C6       1.0000 0.06280  0.52280  0.65820  Biso   1.000  C
  C7       1.0000 0.56280  0.97720  0.15820  Biso   1.000  C
  C8       1.0000 0.56280  0.02280  0.65820  Biso   1.000  C
  C9       1.0000 0.31150  0.33080  0.24940  Biso   1.000  C
  C10      1.0000 0.31150  0.66920  0.74940  Biso   1.000  C
  C11      1.0000 0.81150  0.83080  0.24940  Biso   1.000  C
  C12      1.0000 0.81150  0.16920  0.74940  Biso   1.000  C
  H1       1.0000 0.32170  0.25330  0.25490  Biso   1.000  H
  H2       1.0000 0.32170  0.74670  0.75490  Biso   1.000  H
  H3       1.0000 0.82170  0.75330  0.25490  Biso   1.000  H
  H4       1.0000 0.82170  0.24670  0.75490  Biso   1.000  H
  O13      1.0000 0.17100  0.22930  0.54330  Biso   1.000  O
  O14      1.0000 0.17100  0.77070  0.04330  Biso   1.000  O
  O15      1.0000 0.67100  0.72930  0.54330  Biso   1.000  O
  O16      1.0000 0.67100  0.27070  0.04330  Biso   1.000  O
  C13      1.0000 0.96610  0.32640  0.12660  Biso   1.000  C
  C14      1.0000 0.96610  0.67360  0.62660  Biso   1.000  C
  C15      1.0000 0.46610  0.82640  0.12660  Biso   1.000  C
  C16      1.0000 0.46610  0.17360  0.62660  Biso   1.000  C
  N9       1.0000 0.13700  0.52230  0.19330  Biso   1.000  N
  N10      1.0000 0.13700  0.47770  0.69330  Biso   1.000  N
  N11      1.0000 0.63700  0.02230  0.19330  Biso   1.000  N
  N12      1.0000 0.63700  0.97770  0.69330  Biso   1.000  N
  C17      1.0000 0.89670  0.39900  0.09410  Biso   1.000  C
  C18      1.0000 0.89670  0.60100  0.59410  Biso   1.000  C
  C19      1.0000 0.39670  0.89900  0.09410  Biso   1.000  C
  C20      1.0000 0.39670  0.10100  0.59410  Biso   1.000  C
  C21      1.0000 0.37720  0.39860  0.27840  Biso   1.000  C
  C22      1.0000 0.37720  0.60140  0.77840  Biso   1.000  C
  C23      1.0000 0.87720  0.89860  0.27840  Biso   1.000  C
  C24      1.0000 0.87720  0.10140  0.77840  Biso   1.000  C
  O17      1.0000 0.22000  0.12270  0.16380  Biso   1.000  O
  O18      1.0000 0.22000  0.87730  0.66380  Biso   1.000  O
  O19      1.0000 0.72000  0.62270  0.16380  Biso   1.000  O
  O20      1.0000 0.72000  0.37730  0.66380  Biso   1.000  O
  C25      1.0000 0.91330  0.51940  0.09090  Biso   1.000  C
  C26      1.0000 0.91330  0.48060  0.59090  Biso   1.000  C
  C27      1.0000 0.41330  0.01940  0.09090  Biso   1.000  C
  C28      1.0000 0.41330  0.98060  0.59090  Biso   1.000  C
  C29      1.0000 0.36580  0.51080  0.27690  Biso   1.000  C
  C30      1.0000 0.36580  0.48920  0.77690  Biso   1.000  C
  C31      1.0000 0.86580  0.01080  0.27690  Biso   1.000  C
  C32      1.0000 0.86580  0.98920  0.77690  Biso   1.000  C
  H5       1.0000 0.41180  0.55920  0.29860  Biso   1.000  H
  H6       1.0000 0.41180  0.44080  0.79860  Biso   1.000  H
  H7       1.0000 0.91180  0.05920  0.29860  Biso   1.000  H
  H8       1.0000 0.91180  0.94080  0.79860  Biso   1.000  H
  C33      1.0000 0.28610  0.55410  0.24330  Biso   1.000  C
  C34      1.0000 0.28610  0.44590  0.74330  Biso   1.000  C
  C35      1.0000 0.78610  0.05410  0.24330  Biso   1.000  C
  C36      1.0000 0.78610  0.94590  0.74330  Biso   1.000  C
  C37      1.0000 0.99380  0.55390  0.12010  Biso   1.000  C
  C38      1.0000 0.99380  0.44610  0.62010  Biso   1.000  C
  C39      1.0000 0.49380  0.05390  0.12010  Biso   1.000  C
  C40      1.0000 0.49380  0.94610  0.62010  Biso   1.000  C
  O21      1.0000 0.11150  0.23880  0.83410  Biso   1.000  O
  O22      1.0000 0.11150  0.76120  0.33410  Biso   1.000  O
  O23      1.0000 0.61150  0.73880  0.83410  Biso   1.000  O
  O24      1.0000 0.61150  0.26120  0.33410  Biso   1.000  O
  H9       1.0000 0.95720  0.24350  0.14030  Biso   1.000  H
  H10      1.0000 0.95720  0.75650  0.64030  Biso   1.000  H
  H11      1.0000 0.45720  0.74350  0.14030  Biso   1.000  H
  H12      1.0000 0.45720  0.25650  0.64030  Biso   1.000  H
  H13      1.0000 0.85120  0.37930  0.10760  Biso   1.000  H
  H14      1.0000 0.85120  0.62070  0.60760  Biso   1.000  H
  H15      1.0000 0.35120  0.87930  0.10760  Biso   1.000  H
  H16      1.0000 0.35120  0.12070  0.60760  Biso   1.000  H
  H17      1.0000 0.87490  0.56450  0.06780  Biso   1.000  H
  H18      1.0000 0.87490  0.43550  0.56780  Biso   1.000  H
  H19      1.0000 0.37490  0.06450  0.06780  Biso   1.000  H
  H20      1.0000 0.37490  0.93550  0.56780  Biso   1.000  H
  H21      1.0000 0.01070  0.63990  0.16280  Biso   1.000  H
  H22      1.0000 0.01070  0.36010  0.66280  Biso   1.000  H
  H23      1.0000 0.51070  0.13990  0.16280  Biso   1.000  H
  H24      1.0000 0.51070  0.86010  0.66280  Biso   1.000  H
  H25      1.0000 0.43820  0.36460  0.32980  Biso   1.000  H
  H26      1.0000 0.43820  0.63540  0.82980  Biso   1.000  H
  H27      1.0000 0.93820  0.86460  0.32980  Biso   1.000  H
  H28      1.0000 0.93820  0.13540  0.82980  Biso   1.000  H
  H29      1.0000 0.27610  0.61790  0.27840  Biso   1.000  H
  H30      1.0000 0.27610  0.38210  0.77840  Biso   1.000  H
  H31      1.0000 0.77610  0.11790  0.27840  Biso   1.000  H
  H32      1.0000 0.77610  0.88210  0.77840  Biso   1.000  H
  H33      1.0000 0.14060  0.58120  0.14160  Biso   1.000  H
  H34      1.0000 0.14060  0.41880  0.64160  Biso   1.000  H
  H35      1.0000 0.64060  0.08120  0.14160  Biso   1.000  H
  H36      1.0000 0.64060  0.91880  0.64160  Biso   1.000  H
  H37      1.0000 0.06560  0.06150  0.17130  Biso   1.000  H
  H38      1.0000 0.06560  0.93850  0.67130  Biso   1.000  H
  H39      1.0000 0.56560  0.56150  0.17130  Biso   1.000  H
  H40      1.0000 0.56560  0.43850  0.67130  Biso   1.000  H
  H41      1.0000 0.22450  0.10800  0.01290  Biso   1.000  H
  H42      1.0000 0.22450  0.89200  0.51290  Biso   1.000  H
  H43      1.0000 0.72450  0.60800  0.01290  Biso   1.000  H
  H44      1.0000 0.72450  0.39200  0.51290  Biso   1.000  H
  H45      1.0000 0.06490  0.10710  0.28870  Biso   1.000  H
  H46      1.0000 0.06490  0.89290  0.78870  Biso   1.000  H
  H47      1.0000 0.56490  0.60710  0.28870  Biso   1.000  H
  H48      1.0000 0.56490  0.39290  0.78870  Biso   1.000  H
