data_image0
_cell_length_a       16.1695
_cell_length_b       11.8116
_cell_length_c       7.0266
_cell_angle_alpha    90
_cell_angle_beta     99.53
_cell_angle_gamma    90

_symmetry_space_group_name_H-M    "P 1"
_symmetry_int_tables_number       1

loop_
  _symmetry_equiv_pos_as_xyz
  'x, y, z'

loop_
  _atom_site_label
  _atom_site_occupancy
  _atom_site_fract_x
  _atom_site_fract_y
  _atom_site_fract_z
  _atom_site_thermal_displace_type
  _atom_site_B_iso_or_equiv
  _atom_site_type_symbol
  Cu1      1.0000 0.50000  0.24700  0.25000  Biso   1.000  Cu
  Cu2      1.0000 0.00000  0.74700  0.25000  Biso   1.000  Cu
  Cu3      1.0000 0.50000  0.75300  0.75000  Biso   1.000  Cu
  Cu4      1.0000 0.00000  0.25300  0.75000  Biso   1.000  Cu
  N1       1.0000 0.50000  0.52230  0.25000  Biso   1.000  N
  N2       1.0000 0.00000  0.02230  0.25000  Biso   1.000  N
  N3       1.0000 0.50000  0.47770  0.75000  Biso   1.000  N
  N4       1.0000 0.00000  0.97770  0.75000  Biso   1.000  N
  N5       1.0000 0.40860  0.36445  0.22115  Biso   1.000  N
  N6       1.0000 0.59140  0.36445  0.27885  Biso   1.000  N
  N7       1.0000 0.90860  0.86445  0.22115  Biso   1.000  N
  N8       1.0000 0.09140  0.86445  0.27885  Biso   1.000  N
  N9       1.0000 0.59140  0.63555  0.77885  Biso   1.000  N
  N10      1.0000 0.40860  0.63555  0.72115  Biso   1.000  N
  N11      1.0000 0.09140  0.13555  0.77885  Biso   1.000  N
  N12      1.0000 0.90860  0.13555  0.72115  Biso   1.000  N
  C1       1.0000 0.42110  0.47745  0.22000  Biso   1.000  C
  C2       1.0000 0.57890  0.47745  0.28000  Biso   1.000  C
  C3       1.0000 0.92110  0.97745  0.22000  Biso   1.000  C
  C4       1.0000 0.07890  0.97745  0.28000  Biso   1.000  C
  C5       1.0000 0.57890  0.52255  0.78000  Biso   1.000  C
  C6       1.0000 0.42110  0.52255  0.72000  Biso   1.000  C
  C7       1.0000 0.07890  0.02255  0.78000  Biso   1.000  C
  C8       1.0000 0.92110  0.02255  0.72000  Biso   1.000  C
  C9       1.0000 0.32730  0.32860  0.18860  Biso   1.000  C
  C10      1.0000 0.67270  0.32860  0.31140  Biso   1.000  C
  C11      1.0000 0.82730  0.82860  0.18860  Biso   1.000  C
  C12      1.0000 0.17270  0.82860  0.31140  Biso   1.000  C
  C13      1.0000 0.67270  0.67140  0.81140  Biso   1.000  C
  C14      1.0000 0.32730  0.67140  0.68860  Biso   1.000  C
  C15      1.0000 0.17270  0.17140  0.81140  Biso   1.000  C
  C16      1.0000 0.82730  0.17140  0.68860  Biso   1.000  C
  C17      1.0000 0.25975  0.39880  0.15785  Biso   1.000  C
  C18      1.0000 0.74025  0.39880  0.34215  Biso   1.000  C
  C19      1.0000 0.75975  0.89880  0.15785  Biso   1.000  C
  C20      1.0000 0.24025  0.89880  0.34215  Biso   1.000  C
  C21      1.0000 0.74025  0.60120  0.84215  Biso   1.000  C
  C22      1.0000 0.25975  0.60120  0.65785  Biso   1.000  C
  C23      1.0000 0.24025  0.10120  0.84215  Biso   1.000  C
  C24      1.0000 0.75975  0.10120  0.65785  Biso   1.000  C
  C25      1.0000 0.27375  0.51510  0.15700  Biso   1.000  C
  C26      1.0000 0.72625  0.51510  0.34300  Biso   1.000  C
  C27      1.0000 0.77375  0.01510  0.15700  Biso   1.000  C
  C28      1.0000 0.22625  0.01510  0.34300  Biso   1.000  C
  C29      1.0000 0.72625  0.48490  0.84300  Biso   1.000  C
  C30      1.0000 0.27375  0.48490  0.65700  Biso   1.000  C
  C31      1.0000 0.22625  0.98490  0.84300  Biso   1.000  C
  C32      1.0000 0.77375  0.98490  0.65700  Biso   1.000  C
  C33      1.0000 0.35385  0.55400  0.18840  Biso   1.000  C
  C34      1.0000 0.64615  0.55400  0.31160  Biso   1.000  C
  C35      1.0000 0.85385  0.05400  0.18840  Biso   1.000  C
  C36      1.0000 0.14615  0.05400  0.31160  Biso   1.000  C
  C37      1.0000 0.64615  0.44600  0.81160  Biso   1.000  C
  C38      1.0000 0.35385  0.44600  0.68840  Biso   1.000  C
  C39      1.0000 0.14615  0.94600  0.81160  Biso   1.000  C
  C40      1.0000 0.85385  0.94600  0.68840  Biso   1.000  C
  O1       1.0000 0.41780  0.12335  0.27735  Biso   1.000  O
  O2       1.0000 0.58220  0.12335  0.22265  Biso   1.000  O
  O3       1.0000 0.91780  0.62335  0.27735  Biso   1.000  O
  O4       1.0000 0.08220  0.62335  0.22265  Biso   1.000  O
  O5       1.0000 0.58220  0.87665  0.72265  Biso   1.000  O
  O6       1.0000 0.41780  0.87665  0.77735  Biso   1.000  O
  O7       1.0000 0.08220  0.37665  0.72265  Biso   1.000  O
  O8       1.0000 0.91780  0.37665  0.77735  Biso   1.000  O
  S1       1.0000 0.50000  0.16330  0.75000  Biso   1.000  S
  S2       1.0000 0.00000  0.66330  0.75000  Biso   1.000  S
  S3       1.0000 0.50000  0.83670  0.25000  Biso   1.000  S
  S4       1.0000 0.00000  0.33670  0.25000  Biso   1.000  S
  O9       1.0000 0.43115  0.08990  0.65230  Biso   1.000  O
  O10      1.0000 0.56885  0.08990  0.84770  Biso   1.000  O
  O11      1.0000 0.93115  0.58990  0.65230  Biso   1.000  O
  O12      1.0000 0.06885  0.58990  0.84770  Biso   1.000  O
  O13      1.0000 0.56885  0.91010  0.34770  Biso   1.000  O
  O14      1.0000 0.43115  0.91010  0.15230  Biso   1.000  O
  O15      1.0000 0.06885  0.41010  0.34770  Biso   1.000  O
  O16      1.0000 0.93115  0.41010  0.15230  Biso   1.000  O
  O17      1.0000 0.52975  0.23405  0.60460  Biso   1.000  O
  O18      1.0000 0.47025  0.23405  0.89540  Biso   1.000  O
  O19      1.0000 0.02975  0.73405  0.60460  Biso   1.000  O
  O20      1.0000 0.97025  0.73405  0.89540  Biso   1.000  O
  O21      1.0000 0.47025  0.76595  0.39540  Biso   1.000  O
  O22      1.0000 0.52975  0.76595  0.10460  Biso   1.000  O
  O23      1.0000 0.97025  0.26595  0.39540  Biso   1.000  O
  O24      1.0000 0.02975  0.26595  0.10460  Biso   1.000  O
  H1       1.0000 0.31775  0.24840  0.19270  Biso   1.000  H
  H2       1.0000 0.68225  0.24840  0.30730  Biso   1.000  H
  H3       1.0000 0.81775  0.74840  0.19270  Biso   1.000  H
  H4       1.0000 0.18225  0.74840  0.30730  Biso   1.000  H
  H5       1.0000 0.68225  0.75160  0.80730  Biso   1.000  H
  H6       1.0000 0.31775  0.75160  0.69270  Biso   1.000  H
  H7       1.0000 0.18225  0.25160  0.80730  Biso   1.000  H
  H8       1.0000 0.81775  0.25160  0.69270  Biso   1.000  H
  H9       1.0000 0.20650  0.37195  0.13890  Biso   1.000  H
  H10      1.0000 0.79350  0.37195  0.36110  Biso   1.000  H
  H11      1.0000 0.70650  0.87195  0.13890  Biso   1.000  H
  H12      1.0000 0.29350  0.87195  0.36110  Biso   1.000  H
  H13      1.0000 0.79350  0.62805  0.86110  Biso   1.000  H
  H14      1.0000 0.20650  0.62805  0.63890  Biso   1.000  H
  H15      1.0000 0.29350  0.12805  0.86110  Biso   1.000  H
  H16      1.0000 0.70650  0.12805  0.63890  Biso   1.000  H
  H17      1.0000 0.23155  0.56185  0.13460  Biso   1.000  H
  H18      1.0000 0.76845  0.56185  0.36540  Biso   1.000  H
  H19      1.0000 0.73155  0.06185  0.13460  Biso   1.000  H
  H20      1.0000 0.26845  0.06185  0.36540  Biso   1.000  H
  H21      1.0000 0.76845  0.43815  0.86540  Biso   1.000  H
  H22      1.0000 0.23155  0.43815  0.63460  Biso   1.000  H
  H23      1.0000 0.26845  0.93815  0.86540  Biso   1.000  H
  H24      1.0000 0.73155  0.93815  0.63460  Biso   1.000  H
  H25      1.0000 0.36730  0.62890  0.19220  Biso   1.000  H
  H26      1.0000 0.63270  0.62890  0.30780  Biso   1.000  H
  H27      1.0000 0.86730  0.12890  0.19220  Biso   1.000  H
  H28      1.0000 0.13270  0.12890  0.30780  Biso   1.000  H
  H29      1.0000 0.63270  0.37110  0.80780  Biso   1.000  H
  H30      1.0000 0.36730  0.37110  0.69220  Biso   1.000  H
  H31      1.0000 0.13270  0.87110  0.80780  Biso   1.000  H
  H32      1.0000 0.86730  0.87110  0.69220  Biso   1.000  H
  H33      1.0000 0.50000  0.58120  0.25000  Biso   1.000  H
  H34      1.0000 0.00000  0.08120  0.25000  Biso   1.000  H
  H35      1.0000 0.50000  0.41880  0.75000  Biso   1.000  H
  H36      1.0000 0.00000  0.91880  0.75000  Biso   1.000  H
