data_image0
_cell_length_a       6.1
_cell_length_b       10.186
_cell_length_c       11.046
_cell_angle_alpha    107.23
_cell_angle_beta     101.99
_cell_angle_gamma    97.87

_symmetry_space_group_name_H-M    "P 1"
_symmetry_int_tables_number       1

loop_
  _symmetry_equiv_pos_as_xyz
  'x, y, z'

loop_
  _atom_site_label
  _atom_site_occupancy
  _atom_site_fract_x
  _atom_site_fract_y
  _atom_site_fract_z
  _atom_site_thermal_displace_type
  _atom_site_B_iso_or_equiv
  _atom_site_type_symbol
  Cu1      1.0000 0.50000  0.50000  0.50000  Biso   1.000  Cu
  O1       1.0000 0.26850  0.49540  0.34440  Biso   1.000  O
  O2       1.0000 0.73150  0.50460  0.65560  Biso   1.000  O
  O3       1.0000 0.62060  0.35640  0.32870  Biso   1.000  O
  O4       1.0000 0.37940  0.64360  0.67130  Biso   1.000  O
  O5       1.0000 0.56650  0.16970  0.16540  Biso   1.000  O
  O6       1.0000 0.43350  0.83030  0.83460  Biso   1.000  O
  O7       1.0000 0.91980  0.00700  0.80650  Biso   1.000  O
  O8       1.0000 0.08020  0.99300  0.19350  Biso   1.000  O
  O9       1.0000 0.64240  0.11520  0.80120  Biso   1.000  O
  O10      1.0000 0.35760  0.88480  0.19880  Biso   1.000  O
  O11      1.0000 0.67850  0.53500  0.15230  Biso   1.000  O
  O12      1.0000 0.32150  0.46500  0.84770  Biso   1.000  O
  O13      1.0000 0.01750  0.66120  0.25220  Biso   1.000  O
  O14      1.0000 0.98250  0.33880  0.74780  Biso   1.000  O
  N1       1.0000 0.31530  0.32260  0.50570  Biso   1.000  N
  N2       1.0000 0.68470  0.67740  0.49430  Biso   1.000  N
  N3       1.0000 0.50070  0.27170  0.22330  Biso   1.000  N
  N4       1.0000 0.49930  0.72830  0.77670  Biso   1.000  N
  N5       1.0000 0.83200  0.10440  0.85130  Biso   1.000  N
  N6       1.0000 0.16800  0.89560  0.14870  Biso   1.000  N
  N7       1.0000 0.88670  0.54890  0.18810  Biso   1.000  N
  N8       1.0000 0.11330  0.45110  0.81190  Biso   1.000  N
  C1       1.0000 0.08740  0.28290  0.45400  Biso   1.000  C
  C2       1.0000 0.91260  0.71710  0.54600  Biso   1.000  C
  C3       1.0000 0.03950  0.15910  0.44990  Biso   1.000  C
  C4       1.0000 0.96050  0.84090  0.55010  Biso   1.000  C
  C5       1.0000 0.06530  0.06790  0.50130  Biso   1.000  C
  C6       1.0000 0.93470  0.93210  0.49870  Biso   1.000  C
  C7       1.0000 0.30020  0.11080  0.55600  Biso   1.000  C
  C8       1.0000 0.69980  0.88920  0.44400  Biso   1.000  C
  C9       1.0000 0.41730  0.23580  0.55710  Biso   1.000  C
  C10      1.0000 0.58270  0.76420  0.44290  Biso   1.000  C
  C11      1.0000 0.19100  0.41210  0.22740  Biso   1.000  C
  C12      1.0000 0.80900  0.58790  0.77260  Biso   1.000  C
  C13      1.0000 0.28100  0.29530  0.16290  Biso   1.000  C
  C14      1.0000 0.71900  0.70470  0.83710  Biso   1.000  C
  C15      1.0000 0.16610  0.19820  0.04100  Biso   1.000  C
  C16      1.0000 0.83390  0.80180  0.95900  Biso   1.000  C
  C17      1.0000 0.95930  0.21290  0.97630  Biso   1.000  C
  C18      1.0000 0.04070  0.78710  0.02370  Biso   1.000  C
  C19      1.0000 0.86820  0.32700  0.02510  Biso   1.000  C
  C20      1.0000 0.13180  0.67300  0.97490  Biso   1.000  C
  C21      1.0000 0.98420  0.42530  0.14440  Biso   1.000  C
  C22      1.0000 0.01580  0.57470  0.85560  Biso   1.000  C
