data_image0
_cell_length_a       22.782
_cell_length_b       22.782
_cell_length_c       9.804
_cell_angle_alpha    90
_cell_angle_beta     90
_cell_angle_gamma    90

_symmetry_space_group_name_H-M    "P 1"
_symmetry_int_tables_number       1

loop_
  _symmetry_equiv_pos_as_xyz
  'x, y, z'

loop_
  _atom_site_label
  _atom_site_occupancy
  _atom_site_fract_x
  _atom_site_fract_y
  _atom_site_fract_z
  _atom_site_thermal_displace_type
  _atom_site_B_iso_or_equiv
  _atom_site_type_symbol
  Cu1      1.0000 0.50000  0.00000  0.00000  Biso   1.000  Cu
  Cu2      1.0000 0.75000  0.75000  0.25000  Biso   1.000  Cu
  Cu3      1.0000 0.00000  0.00000  0.50000  Biso   1.000  Cu
  Cu4      1.0000 0.75000  0.25000  0.75000  Biso   1.000  Cu
  Cu5      1.0000 0.00000  0.50000  0.50000  Biso   1.000  Cu
  Cu6      1.0000 0.25000  0.25000  0.75000  Biso   1.000  Cu
  Cu7      1.0000 0.50000  0.50000  0.00000  Biso   1.000  Cu
  Cu8      1.0000 0.25000  0.75000  0.25000  Biso   1.000  Cu
  N1       1.0000 0.50509  0.06631  0.86422  Biso   1.000  N
  N2       1.0000 0.68369  0.75509  0.11422  Biso   1.000  N
  N3       1.0000 0.99491  0.93369  0.36422  Biso   1.000  N
  N4       1.0000 0.81631  0.24491  0.61422  Biso   1.000  N
  N5       1.0000 0.00509  0.56631  0.36422  Biso   1.000  N
  N6       1.0000 0.18369  0.25509  0.61422  Biso   1.000  N
  N7       1.0000 0.49491  0.43369  0.86422  Biso   1.000  N
  N8       1.0000 0.31631  0.74491  0.11422  Biso   1.000  N
  N9       1.0000 0.49491  0.93369  0.13578  Biso   1.000  N
  N10      1.0000 0.81631  0.74491  0.38578  Biso   1.000  N
  N11      1.0000 0.00509  0.06631  0.63578  Biso   1.000  N
  N12      1.0000 0.68369  0.25509  0.88578  Biso   1.000  N
  N13      1.0000 0.99491  0.43369  0.63578  Biso   1.000  N
  N14      1.0000 0.31631  0.24491  0.88578  Biso   1.000  N
  N15      1.0000 0.50509  0.56631  0.13578  Biso   1.000  N
  N16      1.0000 0.18369  0.75509  0.38578  Biso   1.000  N
  C1       1.0000 0.46458  0.07177  0.76858  Biso   1.000  C
  C2       1.0000 0.67823  0.71458  0.01858  Biso   1.000  C
  C3       1.0000 0.03542  0.92823  0.26858  Biso   1.000  C
  C4       1.0000 0.82177  0.28542  0.51858  Biso   1.000  C
  C5       1.0000 0.96458  0.57177  0.26858  Biso   1.000  C
  C6       1.0000 0.17823  0.21458  0.51858  Biso   1.000  C
  C7       1.0000 0.53542  0.42823  0.76858  Biso   1.000  C
  C8       1.0000 0.32177  0.78542  0.01858  Biso   1.000  C
  C9       1.0000 0.53542  0.92823  0.23142  Biso   1.000  C
  C10      1.0000 0.82177  0.78542  0.48142  Biso   1.000  C
  C11      1.0000 0.96458  0.07177  0.73142  Biso   1.000  C
  C12      1.0000 0.67823  0.21458  0.98142  Biso   1.000  C
  C13      1.0000 0.03542  0.42823  0.73142  Biso   1.000  C
  C14      1.0000 0.32177  0.28542  0.98142  Biso   1.000  C
  C15      1.0000 0.46458  0.57177  0.23142  Biso   1.000  C
  C16      1.0000 0.17823  0.71458  0.48142  Biso   1.000  C
  H1       1.0000 0.43220  0.04700  0.77130  Biso   1.000  H
  H2       1.0000 0.70300  0.68220  0.02130  Biso   1.000  H
  H3       1.0000 0.06780  0.95300  0.27130  Biso   1.000  H
  H4       1.0000 0.79700  0.31780  0.52130  Biso   1.000  H
  H5       1.0000 0.93220  0.54700  0.27130  Biso   1.000  H
  H6       1.0000 0.20300  0.18220  0.52130  Biso   1.000  H
  H7       1.0000 0.56780  0.45300  0.77130  Biso   1.000  H
  H8       1.0000 0.29700  0.81780  0.02130  Biso   1.000  H
  H9       1.0000 0.56780  0.95300  0.22870  Biso   1.000  H
  H10      1.0000 0.79700  0.81780  0.47870  Biso   1.000  H
  H11      1.0000 0.93220  0.04700  0.72870  Biso   1.000  H
  H12      1.0000 0.70300  0.18220  0.97870  Biso   1.000  H
  H13      1.0000 0.06780  0.45300  0.72870  Biso   1.000  H
  H14      1.0000 0.29700  0.31780  0.97870  Biso   1.000  H
  H15      1.0000 0.43220  0.54700  0.22870  Biso   1.000  H
  H16      1.0000 0.20300  0.68220  0.47870  Biso   1.000  H
  C17      1.0000 0.46814  0.11214  0.66586  Biso   1.000  C
  C18      1.0000 0.63786  0.71814  0.91586  Biso   1.000  C
  C19      1.0000 0.03186  0.88786  0.16586  Biso   1.000  C
  C20      1.0000 0.86214  0.28186  0.41586  Biso   1.000  C
  C21      1.0000 0.96814  0.61214  0.16586  Biso   1.000  C
  C22      1.0000 0.13786  0.21814  0.41586  Biso   1.000  C
  C23      1.0000 0.53186  0.38786  0.66586  Biso   1.000  C
  C24      1.0000 0.36214  0.78186  0.91586  Biso   1.000  C
  C25      1.0000 0.53186  0.88786  0.33414  Biso   1.000  C
  C26      1.0000 0.86214  0.78186  0.58414  Biso   1.000  C
  C27      1.0000 0.96814  0.11214  0.83414  Biso   1.000  C
  C28      1.0000 0.63786  0.21814  0.08414  Biso   1.000  C
  C29      1.0000 0.03186  0.38786  0.83414  Biso   1.000  C
  C30      1.0000 0.36214  0.28186  0.08414  Biso   1.000  C
  C31      1.0000 0.46814  0.61214  0.33414  Biso   1.000  C
  C32      1.0000 0.13786  0.71814  0.58414  Biso   1.000  C
  H17      1.0000 0.43850  0.11510  0.60090  Biso   1.000  H
  H18      1.0000 0.63490  0.68850  0.85090  Biso   1.000  H
  H19      1.0000 0.06150  0.88490  0.10090  Biso   1.000  H
  H20      1.0000 0.86510  0.31150  0.35090  Biso   1.000  H
  H21      1.0000 0.93850  0.61510  0.10090  Biso   1.000  H
  H22      1.0000 0.13490  0.18850  0.35090  Biso   1.000  H
  H23      1.0000 0.56150  0.38490  0.60090  Biso   1.000  H
  H24      1.0000 0.36510  0.81150  0.85090  Biso   1.000  H
  H25      1.0000 0.56150  0.88490  0.39910  Biso   1.000  H
  H26      1.0000 0.86510  0.81150  0.64910  Biso   1.000  H
  H27      1.0000 0.93850  0.11510  0.89910  Biso   1.000  H
  H28      1.0000 0.63490  0.18850  0.14910  Biso   1.000  H
  H29      1.0000 0.06150  0.38490  0.89910  Biso   1.000  H
  H30      1.0000 0.36510  0.31150  0.14910  Biso   1.000  H
  H31      1.0000 0.43850  0.61510  0.39910  Biso   1.000  H
  H32      1.0000 0.13490  0.68850  0.64910  Biso   1.000  H
  C33      1.0000 0.51589  0.14803  0.66051  Biso   1.000  C
  C34      1.0000 0.60197  0.76589  0.91051  Biso   1.000  C
  C35      1.0000 0.98411  0.85197  0.16051  Biso   1.000  C
  C36      1.0000 0.89803  0.23411  0.41051  Biso   1.000  C
  C37      1.0000 0.01589  0.64803  0.16051  Biso   1.000  C
  C38      1.0000 0.10197  0.26589  0.41051  Biso   1.000  C
  C39      1.0000 0.48411  0.35197  0.66051  Biso   1.000  C
  C40      1.0000 0.39803  0.73411  0.91051  Biso   1.000  C
  C41      1.0000 0.48411  0.85197  0.33949  Biso   1.000  C
  C42      1.0000 0.89803  0.73411  0.58949  Biso   1.000  C
  C43      1.0000 0.01589  0.14803  0.83949  Biso   1.000  C
  C44      1.0000 0.60197  0.26589  0.08949  Biso   1.000  C
  C45      1.0000 0.98411  0.35197  0.83949  Biso   1.000  C
  C46      1.0000 0.39803  0.23411  0.08949  Biso   1.000  C
  C47      1.0000 0.51589  0.64803  0.33949  Biso   1.000  C
  C48      1.0000 0.10197  0.76589  0.58949  Biso   1.000  C
  C49      1.0000 0.55758  0.14394  0.76148  Biso   1.000  C
  C50      1.0000 0.60606  0.80758  0.01148  Biso   1.000  C
  C51      1.0000 0.94242  0.85606  0.26148  Biso   1.000  C
  C52      1.0000 0.89394  0.19242  0.51148  Biso   1.000  C
  C53      1.0000 0.05758  0.64394  0.26148  Biso   1.000  C
  C54      1.0000 0.10606  0.30758  0.51148  Biso   1.000  C
  C55      1.0000 0.44242  0.35606  0.76148  Biso   1.000  C
  C56      1.0000 0.39394  0.69242  0.01148  Biso   1.000  C
  C57      1.0000 0.44242  0.85606  0.23852  Biso   1.000  C
  C58      1.0000 0.89394  0.69242  0.48852  Biso   1.000  C
  C59      1.0000 0.05758  0.14394  0.73852  Biso   1.000  C
  C60      1.0000 0.60606  0.30758  0.98852  Biso   1.000  C
  C61      1.0000 0.94242  0.35606  0.73852  Biso   1.000  C
  C62      1.0000 0.39394  0.19242  0.98852  Biso   1.000  C
  C63      1.0000 0.55758  0.64394  0.23852  Biso   1.000  C
  C64      1.0000 0.10606  0.80758  0.48852  Biso   1.000  C
  H33      1.0000 0.59030  0.16840  0.76170  Biso   1.000  H
  H34      1.0000 0.58160  0.84030  0.01170  Biso   1.000  H
  H35      1.0000 0.90970  0.83160  0.26170  Biso   1.000  H
  H36      1.0000 0.91840  0.15970  0.51170  Biso   1.000  H
  H37      1.0000 0.09030  0.66840  0.26170  Biso   1.000  H
  H38      1.0000 0.08160  0.34030  0.51170  Biso   1.000  H
  H39      1.0000 0.40970  0.33160  0.76170  Biso   1.000  H
  H40      1.0000 0.41840  0.65970  0.01170  Biso   1.000  H
  H41      1.0000 0.40970  0.83160  0.23830  Biso   1.000  H
  H42      1.0000 0.91840  0.65970  0.48830  Biso   1.000  H
  H43      1.0000 0.09030  0.16840  0.73830  Biso   1.000  H
  H44      1.0000 0.58160  0.34030  0.98830  Biso   1.000  H
  H45      1.0000 0.90970  0.33160  0.73830  Biso   1.000  H
  H46      1.0000 0.41840  0.15970  0.98830  Biso   1.000  H
  H47      1.0000 0.59030  0.66840  0.23830  Biso   1.000  H
  H48      1.0000 0.08160  0.84030  0.48830  Biso   1.000  H
  C65      1.0000 0.54958  0.10294  0.86148  Biso   1.000  C
  C66      1.0000 0.64706  0.79958  0.11148  Biso   1.000  C
  C67      1.0000 0.95042  0.89706  0.36148  Biso   1.000  C
  C68      1.0000 0.85294  0.20042  0.61148  Biso   1.000  C
  C69      1.0000 0.04958  0.60294  0.36148  Biso   1.000  C
  C70      1.0000 0.14706  0.29958  0.61148  Biso   1.000  C
  C71      1.0000 0.45042  0.39706  0.86148  Biso   1.000  C
  C72      1.0000 0.35294  0.70042  0.11148  Biso   1.000  C
  C73      1.0000 0.45042  0.89706  0.13852  Biso   1.000  C
  C74      1.0000 0.85294  0.70042  0.38852  Biso   1.000  C
  C75      1.0000 0.04958  0.10294  0.63852  Biso   1.000  C
  C76      1.0000 0.64706  0.29958  0.88852  Biso   1.000  C
  C77      1.0000 0.95042  0.39706  0.63852  Biso   1.000  C
  C78      1.0000 0.35294  0.20042  0.88852  Biso   1.000  C
  C79      1.0000 0.54958  0.60294  0.13852  Biso   1.000  C
  C80      1.0000 0.14706  0.79958  0.38852  Biso   1.000  C
  H49      1.0000 0.57710  0.10090  0.93130  Biso   1.000  H
  H50      1.0000 0.64910  0.82710  0.18130  Biso   1.000  H
  H51      1.0000 0.92290  0.89910  0.43130  Biso   1.000  H
  H52      1.0000 0.85090  0.17290  0.68130  Biso   1.000  H
  H53      1.0000 0.07710  0.60090  0.43130  Biso   1.000  H
  H54      1.0000 0.14910  0.32710  0.68130  Biso   1.000  H
  H55      1.0000 0.42290  0.39910  0.93130  Biso   1.000  H
  H56      1.0000 0.35090  0.67290  0.18130  Biso   1.000  H
  H57      1.0000 0.42290  0.89910  0.06870  Biso   1.000  H
  H58      1.0000 0.85090  0.67290  0.31870  Biso   1.000  H
  H59      1.0000 0.07710  0.10090  0.56870  Biso   1.000  H
  H60      1.0000 0.64910  0.32710  0.81870  Biso   1.000  H
  H61      1.0000 0.92290  0.39910  0.56870  Biso   1.000  H
  H62      1.0000 0.35090  0.17290  0.81870  Biso   1.000  H
  H63      1.0000 0.57710  0.60090  0.06870  Biso   1.000  H
  H64      1.0000 0.14910  0.82710  0.31870  Biso   1.000  H
  O1       1.0000 0.52601  0.18890  0.56310  Biso   1.000  O
  O2       1.0000 0.56110  0.77601  0.81310  Biso   1.000  O
  O3       1.0000 0.97399  0.81110  0.06310  Biso   1.000  O
  O4       1.0000 0.93890  0.22399  0.31310  Biso   1.000  O
  O5       1.0000 0.02601  0.68890  0.06310  Biso   1.000  O
  O6       1.0000 0.06110  0.27601  0.31310  Biso   1.000  O
  O7       1.0000 0.47399  0.31110  0.56310  Biso   1.000  O
  O8       1.0000 0.43890  0.72399  0.81310  Biso   1.000  O
  O9       1.0000 0.47399  0.81110  0.43690  Biso   1.000  O
  O10      1.0000 0.93890  0.72399  0.68690  Biso   1.000  O
  O11      1.0000 0.02601  0.18890  0.93690  Biso   1.000  O
  O12      1.0000 0.56110  0.27601  0.18690  Biso   1.000  O
  O13      1.0000 0.97399  0.31110  0.93690  Biso   1.000  O
  O14      1.0000 0.43890  0.22399  0.18690  Biso   1.000  O
  O15      1.0000 0.52601  0.68890  0.43690  Biso   1.000  O
  O16      1.0000 0.06110  0.77601  0.68690  Biso   1.000  O
  C81      1.0000 0.48078  0.19831  0.46415  Biso   1.000  C
  C82      1.0000 0.55169  0.73078  0.71415  Biso   1.000  C
  C83      1.0000 0.01922  0.80169  0.96415  Biso   1.000  C
  C84      1.0000 0.94831  0.26922  0.21415  Biso   1.000  C
  C85      1.0000 0.98078  0.69831  0.96415  Biso   1.000  C
  C86      1.0000 0.05169  0.23078  0.21415  Biso   1.000  C
  C87      1.0000 0.51922  0.30169  0.46415  Biso   1.000  C
  C88      1.0000 0.44831  0.76922  0.71415  Biso   1.000  C
  C89      1.0000 0.51922  0.80169  0.53585  Biso   1.000  C
  C90      1.0000 0.94831  0.76922  0.78585  Biso   1.000  C
  C91      1.0000 0.98078  0.19831  0.03585  Biso   1.000  C
  C92      1.0000 0.55169  0.23078  0.28585  Biso   1.000  C
  C93      1.0000 0.01922  0.30169  0.03585  Biso   1.000  C
  C94      1.0000 0.44831  0.26922  0.28585  Biso   1.000  C
  C95      1.0000 0.48078  0.69831  0.53585  Biso   1.000  C
  C96      1.0000 0.05169  0.73078  0.78585  Biso   1.000  C
  H65      1.0000 0.44390  0.20720  0.50910  Biso   1.000  H
  H66      1.0000 0.54280  0.69390  0.75910  Biso   1.000  H
  H67      1.0000 0.05610  0.79280  0.00910  Biso   1.000  H
  H68      1.0000 0.95720  0.30610  0.25910  Biso   1.000  H
  H69      1.0000 0.94390  0.70720  0.00910  Biso   1.000  H
  H70      1.0000 0.04280  0.19390  0.25910  Biso   1.000  H
  H71      1.0000 0.55610  0.29280  0.50910  Biso   1.000  H
  H72      1.0000 0.45720  0.80610  0.75910  Biso   1.000  H
  H73      1.0000 0.55610  0.79280  0.49090  Biso   1.000  H
  H74      1.0000 0.95720  0.80610  0.74090  Biso   1.000  H
  H75      1.0000 0.94390  0.20720  0.99090  Biso   1.000  H
  H76      1.0000 0.54280  0.19390  0.24090  Biso   1.000  H
  H77      1.0000 0.05610  0.29280  0.99090  Biso   1.000  H
  H78      1.0000 0.45720  0.30610  0.24090  Biso   1.000  H
  H79      1.0000 0.44390  0.70720  0.49090  Biso   1.000  H
  H80      1.0000 0.04280  0.69390  0.74090  Biso   1.000  H
  H81      1.0000 0.47550  0.16340  0.40880  Biso   1.000  H
  H82      1.0000 0.58660  0.72550  0.65880  Biso   1.000  H
  H83      1.0000 0.02450  0.83660  0.90880  Biso   1.000  H
  H84      1.0000 0.91340  0.27450  0.15880  Biso   1.000  H
  H85      1.0000 0.97550  0.66340  0.90880  Biso   1.000  H
  H86      1.0000 0.08660  0.22550  0.15880  Biso   1.000  H
  H87      1.0000 0.52450  0.33660  0.40880  Biso   1.000  H
  H88      1.0000 0.41340  0.77450  0.65880  Biso   1.000  H
  H89      1.0000 0.52450  0.83660  0.59120  Biso   1.000  H
  H90      1.0000 0.91340  0.77450  0.84120  Biso   1.000  H
  H91      1.0000 0.97550  0.16340  0.09120  Biso   1.000  H
  H92      1.0000 0.58660  0.22550  0.34120  Biso   1.000  H
  H93      1.0000 0.02450  0.33660  0.09120  Biso   1.000  H
  H94      1.0000 0.41340  0.27450  0.34120  Biso   1.000  H
  H95      1.0000 0.47550  0.66340  0.59120  Biso   1.000  H
  H96      1.0000 0.08660  0.72550  0.84120  Biso   1.000  H
  C97      1.0000 0.50000  0.25000  0.37500  Biso   1.000  C
  C98      1.0000 0.50000  0.75000  0.62500  Biso   1.000  C
  C99      1.0000 0.00000  0.75000  0.87500  Biso   1.000  C
  C100     1.0000 0.00000  0.25000  0.12500  Biso   1.000  C
  O17      1.0000 0.58467  0.98397  0.97966  Biso   1.000  O
  O18      1.0000 0.76603  0.83467  0.22966  Biso   1.000  O
  O19      1.0000 0.91533  0.01603  0.47966  Biso   1.000  O
  O20      1.0000 0.73397  0.16533  0.72966  Biso   1.000  O
  O21      1.0000 0.08467  0.48397  0.47966  Biso   1.000  O
  O22      1.0000 0.26603  0.33467  0.72966  Biso   1.000  O
  O23      1.0000 0.41533  0.51603  0.97966  Biso   1.000  O
  O24      1.0000 0.23397  0.66533  0.22966  Biso   1.000  O
  O25      1.0000 0.41533  0.01603  0.02034  Biso   1.000  O
  O26      1.0000 0.73397  0.66533  0.27034  Biso   1.000  O
  O27      1.0000 0.08467  0.98397  0.52034  Biso   1.000  O
  O28      1.0000 0.76603  0.33467  0.77034  Biso   1.000  O
  O29      1.0000 0.91533  0.51603  0.52034  Biso   1.000  O
  O30      1.0000 0.23397  0.16533  0.77034  Biso   1.000  O
  O31      1.0000 0.58467  0.48397  0.02034  Biso   1.000  O
  O32      1.0000 0.26603  0.83467  0.27034  Biso   1.000  O
  C101     1.0000 0.61151  0.95816  0.89350  Biso   1.000  C
  C102     1.0000 0.79184  0.86151  0.14350  Biso   1.000  C
  C103     1.0000 0.88849  0.04184  0.39350  Biso   1.000  C
  C104     1.0000 0.70816  0.13849  0.64350  Biso   1.000  C
  C105     1.0000 0.11151  0.45816  0.39350  Biso   1.000  C
  C106     1.0000 0.29184  0.36151  0.64350  Biso   1.000  C
  C107     1.0000 0.38849  0.54184  0.89350  Biso   1.000  C
  C108     1.0000 0.20816  0.63849  0.14350  Biso   1.000  C
  C109     1.0000 0.38849  0.04184  0.10650  Biso   1.000  C
  C110     1.0000 0.70816  0.63849  0.35650  Biso   1.000  C
  C111     1.0000 0.11151  0.95816  0.60650  Biso   1.000  C
  C112     1.0000 0.79184  0.36151  0.85650  Biso   1.000  C
  C113     1.0000 0.88849  0.54184  0.60650  Biso   1.000  C
  C114     1.0000 0.20816  0.13849  0.85650  Biso   1.000  C
  C115     1.0000 0.61151  0.45816  0.10650  Biso   1.000  C
  C116     1.0000 0.29184  0.86151  0.35650  Biso   1.000  C
  O33      1.0000 0.58907  0.93657  0.78726  Biso   1.000  O
  O34      1.0000 0.81343  0.83907  0.03726  Biso   1.000  O
  O35      1.0000 0.91093  0.06343  0.28726  Biso   1.000  O
  O36      1.0000 0.68657  0.16093  0.53726  Biso   1.000  O
  O37      1.0000 0.08907  0.43657  0.28726  Biso   1.000  O
  O38      1.0000 0.31343  0.33907  0.53726  Biso   1.000  O
  O39      1.0000 0.41093  0.56343  0.78726  Biso   1.000  O
  O40      1.0000 0.18657  0.66093  0.03726  Biso   1.000  O
  O41      1.0000 0.41093  0.06343  0.21274  Biso   1.000  O
  O42      1.0000 0.68657  0.66093  0.46274  Biso   1.000  O
  O43      1.0000 0.08907  0.93657  0.71274  Biso   1.000  O
  O44      1.0000 0.81343  0.33907  0.96274  Biso   1.000  O
  O45      1.0000 0.91093  0.56343  0.71274  Biso   1.000  O
  O46      1.0000 0.18657  0.16093  0.96274  Biso   1.000  O
  O47      1.0000 0.58907  0.43657  0.21274  Biso   1.000  O
  O48      1.0000 0.31343  0.83907  0.46274  Biso   1.000  O
  C117     1.0000 0.67800  0.95164  0.89720  Biso   1.000  C
  C118     1.0000 0.79836  0.92800  0.14720  Biso   1.000  C
  C119     1.0000 0.82200  0.04836  0.39720  Biso   1.000  C
  C120     1.0000 0.70164  0.07200  0.64720  Biso   1.000  C
  C121     1.0000 0.17800  0.45164  0.39720  Biso   1.000  C
  C122     1.0000 0.29836  0.42800  0.64720  Biso   1.000  C
  C123     1.0000 0.32200  0.54836  0.89720  Biso   1.000  C
  C124     1.0000 0.20164  0.57200  0.14720  Biso   1.000  C
  C125     1.0000 0.32200  0.04836  0.10280  Biso   1.000  C
  C126     1.0000 0.70164  0.57200  0.35280  Biso   1.000  C
  C127     1.0000 0.17800  0.95164  0.60280  Biso   1.000  C
  C128     1.0000 0.79836  0.42800  0.85280  Biso   1.000  C
  C129     1.0000 0.82200  0.54836  0.60280  Biso   1.000  C
  C130     1.0000 0.20164  0.07200  0.85280  Biso   1.000  C
  C131     1.0000 0.67800  0.45164  0.10280  Biso   1.000  C
  C132     1.0000 0.29836  0.92800  0.35280  Biso   1.000  C
  H97      1.0000 0.68950  0.93400  0.98190  Biso   1.000  H
  H98      1.0000 0.81600  0.93950  0.23190  Biso   1.000  H
  H99      1.0000 0.81050  0.06600  0.48190  Biso   1.000  H
  H100     1.0000 0.68400  0.06050  0.73190  Biso   1.000  H
  H101     1.0000 0.18950  0.43400  0.48190  Biso   1.000  H
  H102     1.0000 0.31600  0.43950  0.73190  Biso   1.000  H
  H103     1.0000 0.31050  0.56600  0.98190  Biso   1.000  H
  H104     1.0000 0.18400  0.56050  0.23190  Biso   1.000  H
  H105     1.0000 0.31050  0.06600  0.01810  Biso   1.000  H
  H106     1.0000 0.68400  0.56050  0.26810  Biso   1.000  H
  H107     1.0000 0.18950  0.93400  0.51810  Biso   1.000  H
  H108     1.0000 0.81600  0.43950  0.76810  Biso   1.000  H
  H109     1.0000 0.81050  0.56600  0.51810  Biso   1.000  H
  H110     1.0000 0.18400  0.06050  0.76810  Biso   1.000  H
  H111     1.0000 0.68950  0.43400  0.01810  Biso   1.000  H
  H112     1.0000 0.31600  0.93950  0.26810  Biso   1.000  H
  H113     1.0000 0.69590  0.98960  0.88900  Biso   1.000  H
  H114     1.0000 0.76040  0.94590  0.13900  Biso   1.000  H
  H115     1.0000 0.80410  0.01040  0.38900  Biso   1.000  H
  H116     1.0000 0.73960  0.05410  0.63900  Biso   1.000  H
  H117     1.0000 0.19590  0.48960  0.38900  Biso   1.000  H
  H118     1.0000 0.26040  0.44590  0.63900  Biso   1.000  H
  H119     1.0000 0.30410  0.51040  0.88900  Biso   1.000  H
  H120     1.0000 0.23960  0.55410  0.13900  Biso   1.000  H
  H121     1.0000 0.30410  0.01040  0.11100  Biso   1.000  H
  H122     1.0000 0.73960  0.55410  0.36100  Biso   1.000  H
  H123     1.0000 0.19590  0.98960  0.61100  Biso   1.000  H
  H124     1.0000 0.76040  0.44590  0.86100  Biso   1.000  H
  H125     1.0000 0.80410  0.51040  0.61100  Biso   1.000  H
  H126     1.0000 0.23960  0.05410  0.86100  Biso   1.000  H
  H127     1.0000 0.69590  0.48960  0.11100  Biso   1.000  H
  H128     1.0000 0.26040  0.94590  0.36100  Biso   1.000  H
  H129     1.0000 0.69050  0.92720  0.82280  Biso   1.000  H
  H130     1.0000 0.82280  0.94050  0.07280  Biso   1.000  H
  H131     1.0000 0.80950  0.07280  0.32280  Biso   1.000  H
  H132     1.0000 0.67720  0.05950  0.57280  Biso   1.000  H
  H133     1.0000 0.19050  0.42720  0.32280  Biso   1.000  H
  H134     1.0000 0.32280  0.44050  0.57280  Biso   1.000  H
  H135     1.0000 0.30950  0.57280  0.82280  Biso   1.000  H
  H136     1.0000 0.17720  0.55950  0.07280  Biso   1.000  H
  H137     1.0000 0.30950  0.07280  0.17720  Biso   1.000  H
  H138     1.0000 0.67720  0.55950  0.42720  Biso   1.000  H
  H139     1.0000 0.19050  0.92720  0.67720  Biso   1.000  H
  H140     1.0000 0.82280  0.44050  0.92720  Biso   1.000  H
  H141     1.0000 0.80950  0.57280  0.67720  Biso   1.000  H
  H142     1.0000 0.17720  0.05950  0.92720  Biso   1.000  H
  H143     1.0000 0.69050  0.42720  0.17720  Biso   1.000  H
  H144     1.0000 0.32280  0.94050  0.42720  Biso   1.000  H
  O49      1.0000 0.47741  0.92244  0.81416  Biso   1.000  O
  O50      1.0000 0.82756  0.72741  0.06416  Biso   1.000  O
  O51      1.0000 0.02259  0.07756  0.31416  Biso   1.000  O
  O52      1.0000 0.67244  0.27259  0.56416  Biso   1.000  O
  O53      1.0000 0.97741  0.42244  0.31416  Biso   1.000  O
  O54      1.0000 0.32756  0.22741  0.56416  Biso   1.000  O
  O55      1.0000 0.52259  0.57756  0.81416  Biso   1.000  O
  O56      1.0000 0.17244  0.77259  0.06416  Biso   1.000  O
  O57      1.0000 0.52259  0.07756  0.18584  Biso   1.000  O
  O58      1.0000 0.67244  0.77259  0.43584  Biso   1.000  O
  O59      1.0000 0.97741  0.92244  0.68584  Biso   1.000  O
  O60      1.0000 0.82756  0.22741  0.93584  Biso   1.000  O
  O61      1.0000 0.02259  0.57756  0.68584  Biso   1.000  O
  O62      1.0000 0.17244  0.27259  0.93584  Biso   1.000  O
  O63      1.0000 0.47741  0.42244  0.18584  Biso   1.000  O
  O64      1.0000 0.32756  0.72741  0.43584  Biso   1.000  O
  H145     1.0000 0.51170  0.91060  0.79830  Biso   1.000  H
  H146     1.0000 0.83940  0.76170  0.04830  Biso   1.000  H
  H147     1.0000 0.98830  0.08940  0.29830  Biso   1.000  H
  H148     1.0000 0.66060  0.23830  0.54830  Biso   1.000  H
  H149     1.0000 0.01170  0.41060  0.29830  Biso   1.000  H
  H150     1.0000 0.33940  0.26170  0.54830  Biso   1.000  H
  H151     1.0000 0.48830  0.58940  0.79830  Biso   1.000  H
  H152     1.0000 0.16060  0.73830  0.04830  Biso   1.000  H
  H153     1.0000 0.48830  0.08940  0.20170  Biso   1.000  H
  H154     1.0000 0.66060  0.73830  0.45170  Biso   1.000  H
  H155     1.0000 0.01170  0.91060  0.70170  Biso   1.000  H
  H156     1.0000 0.83940  0.26170  0.95170  Biso   1.000  H
  H157     1.0000 0.98830  0.58940  0.70170  Biso   1.000  H
  H158     1.0000 0.16060  0.23830  0.95170  Biso   1.000  H
  H159     1.0000 0.51170  0.41060  0.20170  Biso   1.000  H
  H160     1.0000 0.33940  0.76170  0.45170  Biso   1.000  H
  H161     1.0000 0.45500  0.89250  0.82330  Biso   1.000  H
  H162     1.0000 0.85750  0.70500  0.07330  Biso   1.000  H
  H163     1.0000 0.04500  0.10750  0.32330  Biso   1.000  H
  H164     1.0000 0.64250  0.29500  0.57330  Biso   1.000  H
  H165     1.0000 0.95500  0.39250  0.32330  Biso   1.000  H
  H166     1.0000 0.35750  0.20500  0.57330  Biso   1.000  H
  H167     1.0000 0.54500  0.60750  0.82330  Biso   1.000  H
  H168     1.0000 0.14250  0.79500  0.07330  Biso   1.000  H
  H169     1.0000 0.54500  0.10750  0.17670  Biso   1.000  H
  H170     1.0000 0.64250  0.79500  0.42670  Biso   1.000  H
  H171     1.0000 0.95500  0.89250  0.67670  Biso   1.000  H
  H172     1.0000 0.85750  0.20500  0.92670  Biso   1.000  H
  H173     1.0000 0.04500  0.60750  0.67670  Biso   1.000  H
  H174     1.0000 0.14250  0.29500  0.92670  Biso   1.000  H
  H175     1.0000 0.45500  0.39250  0.17670  Biso   1.000  H
  H176     1.0000 0.35750  0.70500  0.42670  Biso   1.000  H
  O65      1.0000 0.38718  0.91049  0.62984  Biso   1.000  O
  O66      1.0000 0.83951  0.63718  0.87984  Biso   1.000  O
  O67      1.0000 0.11282  0.08951  0.12984  Biso   1.000  O
  O68      1.0000 0.66049  0.36282  0.37984  Biso   1.000  O
  O69      1.0000 0.88718  0.41049  0.12984  Biso   1.000  O
  O70      1.0000 0.33951  0.13718  0.37984  Biso   1.000  O
  O71      1.0000 0.61282  0.58951  0.62984  Biso   1.000  O
  O72      1.0000 0.16049  0.86282  0.87984  Biso   1.000  O
  O73      1.0000 0.61282  0.08951  0.37016  Biso   1.000  O
  O74      1.0000 0.66049  0.86282  0.62016  Biso   1.000  O
  O75      1.0000 0.88718  0.91049  0.87016  Biso   1.000  O
  O76      1.0000 0.83951  0.13718  0.12016  Biso   1.000  O
  O77      1.0000 0.11282  0.58951  0.87016  Biso   1.000  O
  O78      1.0000 0.16049  0.36282  0.12016  Biso   1.000  O
  O79      1.0000 0.38718  0.41049  0.37016  Biso   1.000  O
  O80      1.0000 0.33951  0.63718  0.62016  Biso   1.000  O
  H177     1.0000 0.37660  0.88110  0.58230  Biso   1.000  H
  H178     1.0000 0.86890  0.62660  0.83230  Biso   1.000  H
  H179     1.0000 0.12340  0.11890  0.08230  Biso   1.000  H
  H180     1.0000 0.63110  0.37340  0.33230  Biso   1.000  H
  H181     1.0000 0.87660  0.38110  0.08230  Biso   1.000  H
  H182     1.0000 0.36890  0.12660  0.33230  Biso   1.000  H
  H183     1.0000 0.62340  0.61890  0.58230  Biso   1.000  H
  H184     1.0000 0.13110  0.87340  0.83230  Biso   1.000  H
  H185     1.0000 0.62340  0.11890  0.41770  Biso   1.000  H
  H186     1.0000 0.63110  0.87340  0.66770  Biso   1.000  H
  H187     1.0000 0.87660  0.88110  0.91770  Biso   1.000  H
  H188     1.0000 0.86890  0.12660  0.16770  Biso   1.000  H
  H189     1.0000 0.12340  0.61890  0.91770  Biso   1.000  H
  H190     1.0000 0.13110  0.37340  0.16770  Biso   1.000  H
  H191     1.0000 0.37660  0.38110  0.41770  Biso   1.000  H
  H192     1.0000 0.36890  0.62660  0.66770  Biso   1.000  H
  H193     1.0000 0.41260  0.91440  0.68480  Biso   1.000  H
  H194     1.0000 0.83560  0.66260  0.93480  Biso   1.000  H
  H195     1.0000 0.08740  0.08560  0.18480  Biso   1.000  H
  H196     1.0000 0.66440  0.33740  0.43480  Biso   1.000  H
  H197     1.0000 0.91260  0.41440  0.18480  Biso   1.000  H
  H198     1.0000 0.33560  0.16260  0.43480  Biso   1.000  H
  H199     1.0000 0.58740  0.58560  0.68480  Biso   1.000  H
  H200     1.0000 0.16440  0.83740  0.93480  Biso   1.000  H
  H201     1.0000 0.58740  0.08560  0.31520  Biso   1.000  H
  H202     1.0000 0.66440  0.83740  0.56520  Biso   1.000  H
  H203     1.0000 0.91260  0.91440  0.81520  Biso   1.000  H
  H204     1.0000 0.83560  0.16260  0.06520  Biso   1.000  H
  H205     1.0000 0.08740  0.58560  0.81520  Biso   1.000  H
  H206     1.0000 0.16440  0.33740  0.06520  Biso   1.000  H
  H207     1.0000 0.41260  0.41440  0.31520  Biso   1.000  H
  H208     1.0000 0.33560  0.66260  0.56520  Biso   1.000  H
  O81      1.0000 0.43508  0.99865  0.47175  Biso   1.000  O
  O82      1.0000 0.75135  0.68508  0.72175  Biso   1.000  O
  O83      1.0000 0.06492  0.00135  0.97175  Biso   1.000  O
  O84      1.0000 0.74865  0.31492  0.22175  Biso   1.000  O
  O85      1.0000 0.93508  0.49865  0.97175  Biso   1.000  O
  O86      1.0000 0.25135  0.18508  0.22175  Biso   1.000  O
  O87      1.0000 0.56492  0.50135  0.47175  Biso   1.000  O
  O88      1.0000 0.24865  0.81492  0.72175  Biso   1.000  O
  O89      1.0000 0.56492  0.00135  0.52825  Biso   1.000  O
  O90      1.0000 0.74865  0.81492  0.77825  Biso   1.000  O
  O91      1.0000 0.93508  0.99865  0.02825  Biso   1.000  O
  O92      1.0000 0.75135  0.18508  0.27825  Biso   1.000  O
  O93      1.0000 0.06492  0.50135  0.02825  Biso   1.000  O
  O94      1.0000 0.24865  0.31492  0.27825  Biso   1.000  O
  O95      1.0000 0.43508  0.49865  0.52825  Biso   1.000  O
  O96      1.0000 0.25135  0.68508  0.77825  Biso   1.000  O
  H209     1.0000 0.42620  0.01630  0.39570  Biso   1.000  H
  H210     1.0000 0.73370  0.67620  0.64570  Biso   1.000  H
  H211     1.0000 0.07380  0.98370  0.89570  Biso   1.000  H
  H212     1.0000 0.76630  0.32380  0.14570  Biso   1.000  H
  H213     1.0000 0.92620  0.51630  0.89570  Biso   1.000  H
  H214     1.0000 0.23370  0.17620  0.14570  Biso   1.000  H
  H215     1.0000 0.57380  0.48370  0.39570  Biso   1.000  H
  H216     1.0000 0.26630  0.82380  0.64570  Biso   1.000  H
  H217     1.0000 0.57380  0.98370  0.60430  Biso   1.000  H
  H218     1.0000 0.76630  0.82380  0.85430  Biso   1.000  H
  H219     1.0000 0.92620  0.01630  0.10430  Biso   1.000  H
  H220     1.0000 0.73370  0.17620  0.35430  Biso   1.000  H
  H221     1.0000 0.07380  0.48370  0.10430  Biso   1.000  H
  H222     1.0000 0.26630  0.32380  0.35430  Biso   1.000  H
  H223     1.0000 0.42620  0.51630  0.60430  Biso   1.000  H
  H224     1.0000 0.23370  0.67620  0.85430  Biso   1.000  H
  H225     1.0000 0.41980  0.97330  0.51800  Biso   1.000  H
  H226     1.0000 0.77670  0.66980  0.76800  Biso   1.000  H
  H227     1.0000 0.08020  0.02670  0.01800  Biso   1.000  H
  H228     1.0000 0.72330  0.33020  0.26800  Biso   1.000  H
  H229     1.0000 0.91980  0.47330  0.01800  Biso   1.000  H
  H230     1.0000 0.27670  0.16980  0.26800  Biso   1.000  H
  H231     1.0000 0.58020  0.52670  0.51800  Biso   1.000  H
  H232     1.0000 0.22330  0.83020  0.76800  Biso   1.000  H
  H233     1.0000 0.58020  0.02670  0.48200  Biso   1.000  H
  H234     1.0000 0.72330  0.83020  0.73200  Biso   1.000  H
  H235     1.0000 0.91980  0.97330  0.98200  Biso   1.000  H
  H236     1.0000 0.77670  0.16980  0.23200  Biso   1.000  H
  H237     1.0000 0.08020  0.52670  0.98200  Biso   1.000  H
  H238     1.0000 0.22330  0.33020  0.23200  Biso   1.000  H
  H239     1.0000 0.41980  0.47330  0.48200  Biso   1.000  H
  H240     1.0000 0.27670  0.66980  0.73200  Biso   1.000  H
  O97      1.0000 0.32281  0.94796  0.84898  Biso   1.000  O
  O98      1.0000 0.80204  0.57281  0.09898  Biso   1.000  O
  O99      1.0000 0.17719  0.05204  0.34898  Biso   1.000  O
  O100     1.0000 0.69796  0.42719  0.59898  Biso   1.000  O
  O101     1.0000 0.82281  0.44796  0.34898  Biso   1.000  O
  O102     1.0000 0.30204  0.07281  0.59898  Biso   1.000  O
  O103     1.0000 0.67719  0.55204  0.84898  Biso   1.000  O
  O104     1.0000 0.19796  0.92719  0.09898  Biso   1.000  O
  O105     1.0000 0.67719  0.05204  0.15102  Biso   1.000  O
  O106     1.0000 0.69796  0.92719  0.40102  Biso   1.000  O
  O107     1.0000 0.82281  0.94796  0.65102  Biso   1.000  O
  O108     1.0000 0.80204  0.07281  0.90102  Biso   1.000  O
  O109     1.0000 0.17719  0.55204  0.65102  Biso   1.000  O
  O110     1.0000 0.19796  0.42719  0.90102  Biso   1.000  O
  O111     1.0000 0.32281  0.44796  0.15102  Biso   1.000  O
  O112     1.0000 0.30204  0.57281  0.40102  Biso   1.000  O
  H241     1.0000 0.34110  0.93790  0.78320  Biso   1.000  H
  H242     1.0000 0.81210  0.59110  0.03320  Biso   1.000  H
  H243     1.0000 0.15890  0.06210  0.28320  Biso   1.000  H
  H244     1.0000 0.68790  0.40890  0.53320  Biso   1.000  H
  H245     1.0000 0.84110  0.43790  0.28320  Biso   1.000  H
  H246     1.0000 0.31210  0.09110  0.53320  Biso   1.000  H
  H247     1.0000 0.65890  0.56210  0.78320  Biso   1.000  H
  H248     1.0000 0.18790  0.90890  0.03320  Biso   1.000  H
  H249     1.0000 0.65890  0.06210  0.21680  Biso   1.000  H
  H250     1.0000 0.68790  0.90890  0.46680  Biso   1.000  H
  H251     1.0000 0.84110  0.93790  0.71680  Biso   1.000  H
  H252     1.0000 0.81210  0.09110  0.96680  Biso   1.000  H
  H253     1.0000 0.15890  0.56210  0.71680  Biso   1.000  H
  H254     1.0000 0.18790  0.40890  0.96680  Biso   1.000  H
  H255     1.0000 0.34110  0.43790  0.21680  Biso   1.000  H
  H256     1.0000 0.31210  0.59110  0.46680  Biso   1.000  H
  H257     1.0000 0.34660  0.96700  0.90370  Biso   1.000  H
  H258     1.0000 0.78300  0.59660  0.15370  Biso   1.000  H
  H259     1.0000 0.15340  0.03300  0.40370  Biso   1.000  H
  H260     1.0000 0.71700  0.40340  0.65370  Biso   1.000  H
  H261     1.0000 0.84660  0.46700  0.40370  Biso   1.000  H
  H262     1.0000 0.28300  0.09660  0.65370  Biso   1.000  H
  H263     1.0000 0.65340  0.53300  0.90370  Biso   1.000  H
  H264     1.0000 0.21700  0.90340  0.15370  Biso   1.000  H
  H265     1.0000 0.65340  0.03300  0.09630  Biso   1.000  H
  H266     1.0000 0.71700  0.90340  0.34630  Biso   1.000  H
  H267     1.0000 0.84660  0.96700  0.59630  Biso   1.000  H
  H268     1.0000 0.78300  0.09660  0.84630  Biso   1.000  H
  H269     1.0000 0.15340  0.53300  0.59630  Biso   1.000  H
  H270     1.0000 0.21700  0.40340  0.84630  Biso   1.000  H
  H271     1.0000 0.34660  0.46700  0.09630  Biso   1.000  H
  H272     1.0000 0.28300  0.59660  0.34630  Biso   1.000  H
