data_image0
_cell_length_a       30.337
_cell_length_b       30.337
_cell_length_c       7.423
_cell_angle_alpha    90
_cell_angle_beta     90
_cell_angle_gamma    90

_symmetry_space_group_name_H-M    "P 1"
_symmetry_int_tables_number       1

loop_
  _symmetry_equiv_pos_as_xyz
  'x, y, z'

loop_
  _atom_site_label
  _atom_site_occupancy
  _atom_site_fract_x
  _atom_site_fract_y
  _atom_site_fract_z
  _atom_site_thermal_displace_type
  _atom_site_B_iso_or_equiv
  _atom_site_type_symbol
  Cu1      1.0000 0.47409  0.47419  0.09665  Biso   1.000  Cu
  Cu2      1.0000 0.02591  0.02581  0.09665  Biso   1.000  Cu
  Cu3      1.0000 0.52581  0.97409  0.59665  Biso   1.000  Cu
  Cu4      1.0000 0.97419  0.52591  0.59665  Biso   1.000  Cu
  Cu5      1.0000 0.52591  0.52581  0.90335  Biso   1.000  Cu
  Cu6      1.0000 0.97409  0.97419  0.90335  Biso   1.000  Cu
  Cu7      1.0000 0.47419  0.02591  0.40335  Biso   1.000  Cu
  Cu8      1.0000 0.02581  0.47409  0.40335  Biso   1.000  Cu
  N1       1.0000 0.43362  0.43351  0.27520  Biso   1.000  N
  N2       1.0000 0.06638  0.06649  0.27520  Biso   1.000  N
  N3       1.0000 0.56649  0.93362  0.77520  Biso   1.000  N
  N4       1.0000 0.93351  0.56638  0.77520  Biso   1.000  N
  N5       1.0000 0.56638  0.56649  0.72480  Biso   1.000  N
  N6       1.0000 0.93362  0.93351  0.72480  Biso   1.000  N
  N7       1.0000 0.43351  0.06638  0.22480  Biso   1.000  N
  N8       1.0000 0.06649  0.43362  0.22480  Biso   1.000  N
  O1       1.0000 0.52943  0.46349  0.23320  Biso   1.000  O
  O2       1.0000 0.97057  0.03651  0.23320  Biso   1.000  O
  O3       1.0000 0.53651  0.02943  0.73320  Biso   1.000  O
  O4       1.0000 0.96349  0.47057  0.73320  Biso   1.000  O
  O5       1.0000 0.47057  0.53651  0.76680  Biso   1.000  O
  O6       1.0000 0.02943  0.96349  0.76680  Biso   1.000  O
  O7       1.0000 0.46349  0.97057  0.26680  Biso   1.000  O
  O8       1.0000 0.03651  0.52943  0.26680  Biso   1.000  O
  O9       1.0000 0.49176  0.42773  0.92470  Biso   1.000  O
  O10      1.0000 0.00824  0.07227  0.92470  Biso   1.000  O
  O11      1.0000 0.57227  0.99176  0.42470  Biso   1.000  O
  O12      1.0000 0.92773  0.50824  0.42470  Biso   1.000  O
  O13      1.0000 0.50824  0.57227  0.07530  Biso   1.000  O
  O14      1.0000 0.99176  0.92773  0.07530  Biso   1.000  O
  O15      1.0000 0.42773  0.00824  0.57530  Biso   1.000  O
  O16      1.0000 0.07227  0.49176  0.57530  Biso   1.000  O
  O17      1.0000 0.57219  0.50832  0.07510  Biso   1.000  O
  O18      1.0000 0.92781  0.99168  0.07510  Biso   1.000  O
  O19      1.0000 0.49168  0.07219  0.57510  Biso   1.000  O
  O20      1.0000 0.00832  0.42781  0.57510  Biso   1.000  O
  O21      1.0000 0.42781  0.49168  0.92490  Biso   1.000  O
  O22      1.0000 0.07219  0.00832  0.92490  Biso   1.000  O
  O23      1.0000 0.50832  0.92781  0.42490  Biso   1.000  O
  O24      1.0000 0.99168  0.57219  0.42490  Biso   1.000  O
  O25      1.0000 0.53659  0.47085  0.76540  Biso   1.000  O
  O26      1.0000 0.96341  0.02915  0.76540  Biso   1.000  O
  O27      1.0000 0.52915  0.03659  0.26540  Biso   1.000  O
  O28      1.0000 0.97085  0.46341  0.26540  Biso   1.000  O
  O29      1.0000 0.46341  0.52915  0.23460  Biso   1.000  O
  O30      1.0000 0.03659  0.97085  0.23460  Biso   1.000  O
  O31      1.0000 0.47085  0.96341  0.73460  Biso   1.000  O
  O32      1.0000 0.02915  0.53659  0.73460  Biso   1.000  O
  C1       1.0000 0.25000  0.25000  0.25000  Biso   1.000  C
  C2       1.0000 0.75000  0.75000  0.75000  Biso   1.000  C
  C3       1.0000 0.38679  0.38626  0.53320  Biso   1.000  C
  C4       1.0000 0.11321  0.11374  0.53320  Biso   1.000  C
  C5       1.0000 0.61374  0.88679  0.03320  Biso   1.000  C
  C6       1.0000 0.88626  0.61321  0.03320  Biso   1.000  C
  C7       1.0000 0.61321  0.61374  0.46680  Biso   1.000  C
  C8       1.0000 0.88679  0.88626  0.46680  Biso   1.000  C
  C9       1.0000 0.38626  0.11321  0.96680  Biso   1.000  C
  C10      1.0000 0.11374  0.38679  0.96680  Biso   1.000  C
  C11      1.0000 0.43916  0.43911  0.45060  Biso   1.000  C
  C12      1.0000 0.06084  0.06089  0.45060  Biso   1.000  C
  C13      1.0000 0.56089  0.93916  0.95060  Biso   1.000  C
  C14      1.0000 0.93911  0.56084  0.95060  Biso   1.000  C
  C15      1.0000 0.56084  0.56089  0.54940  Biso   1.000  C
  C16      1.0000 0.93916  0.93911  0.54940  Biso   1.000  C
  C17      1.0000 0.43911  0.06084  0.04940  Biso   1.000  C
  C18      1.0000 0.06089  0.43916  0.04940  Biso   1.000  C
  H1       1.0000 0.45990  0.46020  0.48850  Biso   1.000  H
  H2       1.0000 0.04010  0.03980  0.48850  Biso   1.000  H
  H3       1.0000 0.53980  0.95990  0.98850  Biso   1.000  H
  H4       1.0000 0.96020  0.54010  0.98850  Biso   1.000  H
  H5       1.0000 0.54010  0.53980  0.51150  Biso   1.000  H
  H6       1.0000 0.95990  0.96020  0.51150  Biso   1.000  H
  H7       1.0000 0.46020  0.04010  0.01150  Biso   1.000  H
  H8       1.0000 0.03980  0.45990  0.01150  Biso   1.000  H
  C19      1.0000 0.41646  0.41607  0.58120  Biso   1.000  C
  C20      1.0000 0.08354  0.08393  0.58120  Biso   1.000  C
  C21      1.0000 0.58393  0.91646  0.08120  Biso   1.000  C
  C22      1.0000 0.91607  0.58354  0.08120  Biso   1.000  C
  C23      1.0000 0.58354  0.58393  0.41880  Biso   1.000  C
  C24      1.0000 0.91646  0.91607  0.41880  Biso   1.000  C
  C25      1.0000 0.41607  0.08354  0.91880  Biso   1.000  C
  C26      1.0000 0.08393  0.41646  0.91880  Biso   1.000  C
  H9       1.0000 0.42200  0.42150  0.70380  Biso   1.000  H
  H10      1.0000 0.07800  0.07850  0.70380  Biso   1.000  H
  H11      1.0000 0.57850  0.92200  0.20380  Biso   1.000  H
  H12      1.0000 0.92150  0.57800  0.20380  Biso   1.000  H
  H13      1.0000 0.57800  0.57850  0.29620  Biso   1.000  H
  H14      1.0000 0.92200  0.92150  0.29620  Biso   1.000  H
  H15      1.0000 0.42150  0.07800  0.79620  Biso   1.000  H
  H16      1.0000 0.07850  0.42200  0.79620  Biso   1.000  H
  C27      1.0000 0.38111  0.38100  0.34560  Biso   1.000  C
  C28      1.0000 0.11889  0.11900  0.34560  Biso   1.000  C
  C29      1.0000 0.61900  0.88111  0.84560  Biso   1.000  C
  C30      1.0000 0.88100  0.61889  0.84560  Biso   1.000  C
  C31      1.0000 0.61889  0.61900  0.65440  Biso   1.000  C
  C32      1.0000 0.88111  0.88100  0.65440  Biso   1.000  C
  C33      1.0000 0.38100  0.11889  0.15440  Biso   1.000  C
  C34      1.0000 0.11900  0.38111  0.15440  Biso   1.000  C
  H17      1.0000 0.36040  0.36050  0.30300  Biso   1.000  H
  H18      1.0000 0.13960  0.13950  0.30300  Biso   1.000  H
  H19      1.0000 0.63950  0.86040  0.80300  Biso   1.000  H
  H20      1.0000 0.86050  0.63960  0.80300  Biso   1.000  H
  H21      1.0000 0.63960  0.63950  0.69700  Biso   1.000  H
  H22      1.0000 0.86040  0.86050  0.69700  Biso   1.000  H
  H23      1.0000 0.36050  0.13960  0.19700  Biso   1.000  H
  H24      1.0000 0.13950  0.36040  0.19700  Biso   1.000  H
  C35      1.0000 0.40417  0.40417  0.22880  Biso   1.000  C
  C36      1.0000 0.09583  0.09583  0.22880  Biso   1.000  C
  C37      1.0000 0.59583  0.90417  0.72880  Biso   1.000  C
  C38      1.0000 0.90417  0.59583  0.72880  Biso   1.000  C
  C39      1.0000 0.59583  0.59583  0.77120  Biso   1.000  C
  C40      1.0000 0.90417  0.90417  0.77120  Biso   1.000  C
  C41      1.0000 0.40417  0.09583  0.27120  Biso   1.000  C
  C42      1.0000 0.09583  0.40417  0.27120  Biso   1.000  C
  H25      1.0000 0.39920  0.39940  0.10540  Biso   1.000  H
  H26      1.0000 0.10080  0.10060  0.10540  Biso   1.000  H
  H27      1.0000 0.60060  0.89920  0.60540  Biso   1.000  H
  H28      1.0000 0.89940  0.60080  0.60540  Biso   1.000  H
  H29      1.0000 0.60080  0.60060  0.89460  Biso   1.000  H
  H30      1.0000 0.89920  0.89940  0.89460  Biso   1.000  H
  H31      1.0000 0.39940  0.10080  0.39460  Biso   1.000  H
  H32      1.0000 0.10060  0.39920  0.39460  Biso   1.000  H
  C43      1.0000 0.36040  0.36058  0.66970  Biso   1.000  C
  C44      1.0000 0.13960  0.13942  0.66970  Biso   1.000  C
  C45      1.0000 0.63942  0.86040  0.16970  Biso   1.000  C
  C46      1.0000 0.86058  0.63960  0.16970  Biso   1.000  C
  C47      1.0000 0.63960  0.63942  0.33030  Biso   1.000  C
  C48      1.0000 0.86040  0.86058  0.33030  Biso   1.000  C
  C49      1.0000 0.36058  0.13960  0.83030  Biso   1.000  C
  C50      1.0000 0.13942  0.36040  0.83030  Biso   1.000  C
  C51      1.0000 0.31417  0.31420  0.92520  Biso   1.000  C
  C52      1.0000 0.18583  0.18580  0.92520  Biso   1.000  C
  C53      1.0000 0.68580  0.81417  0.42520  Biso   1.000  C
  C54      1.0000 0.81420  0.68583  0.42520  Biso   1.000  C
  C55      1.0000 0.68583  0.68580  0.07480  Biso   1.000  C
  C56      1.0000 0.81417  0.81420  0.07480  Biso   1.000  C
  C57      1.0000 0.31420  0.18583  0.57480  Biso   1.000  C
  C58      1.0000 0.18580  0.31417  0.57480  Biso   1.000  C
  C59      1.0000 0.33619  0.38080  0.80660  Biso   1.000  C
  C60      1.0000 0.16381  0.11920  0.80660  Biso   1.000  C
  C61      1.0000 0.61920  0.83619  0.30660  Biso   1.000  C
  C62      1.0000 0.88080  0.66381  0.30660  Biso   1.000  C
  C63      1.0000 0.66381  0.61920  0.19340  Biso   1.000  C
  C64      1.0000 0.83619  0.88080  0.19340  Biso   1.000  C
  C65      1.0000 0.38080  0.16381  0.69340  Biso   1.000  C
  C66      1.0000 0.11920  0.33619  0.69340  Biso   1.000  C
  C67      1.0000 0.32560  0.42750  0.81660  Biso   1.000  C
  C68      1.0000 0.17440  0.07250  0.81660  Biso   1.000  C
  C69      1.0000 0.57250  0.82560  0.31660  Biso   1.000  C
  C70      1.0000 0.92750  0.67440  0.31660  Biso   1.000  C
  C71      1.0000 0.67440  0.57250  0.18340  Biso   1.000  C
  C72      1.0000 0.82560  0.92750  0.18340  Biso   1.000  C
  C73      1.0000 0.42750  0.17440  0.68340  Biso   1.000  C
  C74      1.0000 0.07250  0.32560  0.68340  Biso   1.000  C
  H33      1.0000 0.34100  0.44320  0.72170  Biso   1.000  H
  H34      1.0000 0.15900  0.05680  0.72170  Biso   1.000  H
  H35      1.0000 0.55680  0.84100  0.22170  Biso   1.000  H
  H36      1.0000 0.94320  0.65900  0.22170  Biso   1.000  H
  H37      1.0000 0.65900  0.55680  0.27830  Biso   1.000  H
  H38      1.0000 0.84100  0.94320  0.27830  Biso   1.000  H
  H39      1.0000 0.44320  0.15900  0.77830  Biso   1.000  H
  H40      1.0000 0.05680  0.34100  0.77830  Biso   1.000  H
  H41      1.0000 0.33470  0.43900  0.93280  Biso   1.000  H
  H42      1.0000 0.16530  0.06100  0.93280  Biso   1.000  H
  H43      1.0000 0.56100  0.83470  0.43280  Biso   1.000  H
  H44      1.0000 0.93900  0.66530  0.43280  Biso   1.000  H
  H45      1.0000 0.66530  0.56100  0.06720  Biso   1.000  H
  H46      1.0000 0.83470  0.93900  0.06720  Biso   1.000  H
  H47      1.0000 0.43900  0.16530  0.56720  Biso   1.000  H
  H48      1.0000 0.06100  0.33470  0.56720  Biso   1.000  H
  H49      1.0000 0.29410  0.43150  0.80210  Biso   1.000  H
  H50      1.0000 0.20590  0.06850  0.80210  Biso   1.000  H
  H51      1.0000 0.56850  0.79410  0.30210  Biso   1.000  H
  H52      1.0000 0.93150  0.70590  0.30210  Biso   1.000  H
  H53      1.0000 0.70590  0.56850  0.19790  Biso   1.000  H
  H54      1.0000 0.79410  0.93150  0.19790  Biso   1.000  H
  H55      1.0000 0.43150  0.20590  0.69790  Biso   1.000  H
  H56      1.0000 0.06850  0.29410  0.69790  Biso   1.000  H
  C75      1.0000 0.31240  0.35880  0.93840  Biso   1.000  C
  C76      1.0000 0.18760  0.14120  0.93840  Biso   1.000  C
  C77      1.0000 0.64120  0.81240  0.43840  Biso   1.000  C
  C78      1.0000 0.85880  0.68760  0.43840  Biso   1.000  C
  C79      1.0000 0.68760  0.64120  0.06160  Biso   1.000  C
  C80      1.0000 0.81240  0.85880  0.06160  Biso   1.000  C
  C81      1.0000 0.35880  0.18760  0.56160  Biso   1.000  C
  C82      1.0000 0.14120  0.31240  0.56160  Biso   1.000  C
  H57      1.0000 0.29650  0.37350  0.02900  Biso   1.000  H
  H58      1.0000 0.20350  0.12650  0.02900  Biso   1.000  H
  H59      1.0000 0.62650  0.79650  0.52900  Biso   1.000  H
  H60      1.0000 0.87350  0.70350  0.52900  Biso   1.000  H
  H61      1.0000 0.70350  0.62650  0.97100  Biso   1.000  H
  H62      1.0000 0.79650  0.87350  0.97100  Biso   1.000  H
  H63      1.0000 0.37350  0.20350  0.47100  Biso   1.000  H
  H64      1.0000 0.12650  0.29650  0.47100  Biso   1.000  H
  C83      1.0000 0.33840  0.29270  0.79000  Biso   1.000  C
  C84      1.0000 0.16160  0.20730  0.79000  Biso   1.000  C
  C85      1.0000 0.70730  0.83840  0.29000  Biso   1.000  C
  C86      1.0000 0.79270  0.66160  0.29000  Biso   1.000  C
  C87      1.0000 0.66160  0.70730  0.21000  Biso   1.000  C
  C88      1.0000 0.83840  0.79270  0.21000  Biso   1.000  C
  C89      1.0000 0.29270  0.16160  0.71000  Biso   1.000  C
  C90      1.0000 0.20730  0.33840  0.71000  Biso   1.000  C
  H65      1.0000 0.33970  0.26180  0.78300  Biso   1.000  H
  H66      1.0000 0.16030  0.23820  0.78300  Biso   1.000  H
  H67      1.0000 0.73820  0.83970  0.28300  Biso   1.000  H
  H68      1.0000 0.76180  0.66030  0.28300  Biso   1.000  H
  H69      1.0000 0.66030  0.73820  0.21700  Biso   1.000  H
  H70      1.0000 0.83970  0.76180  0.21700  Biso   1.000  H
  H71      1.0000 0.26180  0.16030  0.71700  Biso   1.000  H
  H72      1.0000 0.23820  0.33970  0.71700  Biso   1.000  H
  C91      1.0000 0.36030  0.31940  0.66720  Biso   1.000  C
  C92      1.0000 0.13970  0.18060  0.66720  Biso   1.000  C
  C93      1.0000 0.68060  0.86030  0.16720  Biso   1.000  C
  C94      1.0000 0.81940  0.63970  0.16720  Biso   1.000  C
  C95      1.0000 0.63970  0.68060  0.33280  Biso   1.000  C
  C96      1.0000 0.86030  0.81940  0.33280  Biso   1.000  C
  C97      1.0000 0.31940  0.13970  0.83280  Biso   1.000  C
  C98      1.0000 0.18060  0.36030  0.83280  Biso   1.000  C
  H73      1.0000 0.37640  0.30540  0.57510  Biso   1.000  H
  H74      1.0000 0.12360  0.19460  0.57510  Biso   1.000  H
  H75      1.0000 0.69460  0.87640  0.07510  Biso   1.000  H
  H76      1.0000 0.80540  0.62360  0.07510  Biso   1.000  H
  H77      1.0000 0.62360  0.69460  0.42490  Biso   1.000  H
  H78      1.0000 0.87640  0.80540  0.42490  Biso   1.000  H
  H79      1.0000 0.30540  0.12360  0.92490  Biso   1.000  H
  H80      1.0000 0.19460  0.37640  0.92490  Biso   1.000  H
  O33      1.0000 0.30290  0.27720  0.03570  Biso   1.000  O
  O34      1.0000 0.19710  0.22280  0.03570  Biso   1.000  O
  O35      1.0000 0.72280  0.80290  0.53570  Biso   1.000  O
  O36      1.0000 0.77720  0.69710  0.53570  Biso   1.000  O
  O37      1.0000 0.69710  0.72280  0.96430  Biso   1.000  O
  O38      1.0000 0.80290  0.77720  0.96430  Biso   1.000  O
  O39      1.0000 0.27720  0.19710  0.46430  Biso   1.000  O
  O40      1.0000 0.22280  0.30290  0.46430  Biso   1.000  O
  C99      1.0000 0.26530  0.28750  0.12640  Biso   1.000  C
  C100     1.0000 0.23470  0.21250  0.12640  Biso   1.000  C
  C101     1.0000 0.71250  0.76530  0.62640  Biso   1.000  C
  C102     1.0000 0.78750  0.73470  0.62640  Biso   1.000  C
  C103     1.0000 0.73470  0.71250  0.87360  Biso   1.000  C
  C104     1.0000 0.76530  0.78750  0.87360  Biso   1.000  C
  C105     1.0000 0.28750  0.23470  0.37360  Biso   1.000  C
  C106     1.0000 0.21250  0.26530  0.37360  Biso   1.000  C
  H81      1.0000 0.24190  0.29410  0.03940  Biso   1.000  H
  H82      1.0000 0.25810  0.20590  0.03940  Biso   1.000  H
  H83      1.0000 0.70590  0.74190  0.53940  Biso   1.000  H
  H84      1.0000 0.79410  0.75810  0.53940  Biso   1.000  H
  H85      1.0000 0.75810  0.70590  0.96060  Biso   1.000  H
  H86      1.0000 0.74190  0.79410  0.96060  Biso   1.000  H
  H87      1.0000 0.29410  0.25810  0.46060  Biso   1.000  H
  H88      1.0000 0.20590  0.24190  0.46060  Biso   1.000  H
  H89      1.0000 0.27040  0.31400  0.19890  Biso   1.000  H
  H90      1.0000 0.22960  0.18600  0.19890  Biso   1.000  H
  H91      1.0000 0.68600  0.77040  0.69890  Biso   1.000  H
  H92      1.0000 0.81400  0.72960  0.69890  Biso   1.000  H
  H93      1.0000 0.72960  0.68600  0.80110  Biso   1.000  H
  H94      1.0000 0.77040  0.81400  0.80110  Biso   1.000  H
  H95      1.0000 0.31400  0.22960  0.30110  Biso   1.000  H
  H96      1.0000 0.18600  0.27040  0.30110  Biso   1.000  H
  C107     1.0000 0.38060  0.33657  0.80790  Biso   1.000  C
  C108     1.0000 0.11940  0.16343  0.80790  Biso   1.000  C
  C109     1.0000 0.66343  0.88060  0.30790  Biso   1.000  C
  C110     1.0000 0.83657  0.61940  0.30790  Biso   1.000  C
  C111     1.0000 0.61940  0.66343  0.19210  Biso   1.000  C
  C112     1.0000 0.88060  0.83657  0.19210  Biso   1.000  C
  C113     1.0000 0.33657  0.11940  0.69210  Biso   1.000  C
  C114     1.0000 0.16343  0.38060  0.69210  Biso   1.000  C
  C115     1.0000 0.42750  0.32590  0.81900  Biso   1.000  C
  C116     1.0000 0.07250  0.17410  0.81900  Biso   1.000  C
  C117     1.0000 0.67410  0.92750  0.31900  Biso   1.000  C
  C118     1.0000 0.82590  0.57250  0.31900  Biso   1.000  C
  C119     1.0000 0.57250  0.67410  0.18100  Biso   1.000  C
  C120     1.0000 0.92750  0.82590  0.18100  Biso   1.000  C
  C121     1.0000 0.32590  0.07250  0.68100  Biso   1.000  C
  C122     1.0000 0.17410  0.42750  0.68100  Biso   1.000  C
  H97      1.0000 0.44330  0.34130  0.72450  Biso   1.000  H
  H98      1.0000 0.05670  0.15870  0.72450  Biso   1.000  H
  H99      1.0000 0.65870  0.94330  0.22450  Biso   1.000  H
  H100     1.0000 0.84130  0.55670  0.22450  Biso   1.000  H
  H101     1.0000 0.55670  0.65870  0.27550  Biso   1.000  H
  H102     1.0000 0.94330  0.84130  0.27550  Biso   1.000  H
  H103     1.0000 0.34130  0.05670  0.77550  Biso   1.000  H
  H104     1.0000 0.15870  0.44330  0.77550  Biso   1.000  H
  H105     1.0000 0.43150  0.29440  0.80450  Biso   1.000  H
  H106     1.0000 0.06850  0.20560  0.80450  Biso   1.000  H
  H107     1.0000 0.70560  0.93150  0.30450  Biso   1.000  H
  H108     1.0000 0.79440  0.56850  0.30450  Biso   1.000  H
  H109     1.0000 0.56850  0.70560  0.19550  Biso   1.000  H
  H110     1.0000 0.93150  0.79440  0.19550  Biso   1.000  H
  H111     1.0000 0.29440  0.06850  0.69550  Biso   1.000  H
  H112     1.0000 0.20560  0.43150  0.69550  Biso   1.000  H
  H113     1.0000 0.43880  0.33500  0.93550  Biso   1.000  H
  H114     1.0000 0.06120  0.16500  0.93550  Biso   1.000  H
  H115     1.0000 0.66500  0.93880  0.43550  Biso   1.000  H
  H116     1.0000 0.83500  0.56120  0.43550  Biso   1.000  H
  H117     1.0000 0.56120  0.66500  0.06450  Biso   1.000  H
  H118     1.0000 0.93880  0.83500  0.06450  Biso   1.000  H
  H119     1.0000 0.33500  0.06120  0.56450  Biso   1.000  H
  H120     1.0000 0.16500  0.43880  0.56450  Biso   1.000  H
  C123     1.0000 0.35870  0.31280  0.93960  Biso   1.000  C
  C124     1.0000 0.14130  0.18720  0.93960  Biso   1.000  C
  C125     1.0000 0.68720  0.85870  0.43960  Biso   1.000  C
  C126     1.0000 0.81280  0.64130  0.43960  Biso   1.000  C
  C127     1.0000 0.64130  0.68720  0.06040  Biso   1.000  C
  C128     1.0000 0.85870  0.81280  0.06040  Biso   1.000  C
  C129     1.0000 0.31280  0.14130  0.56040  Biso   1.000  C
  C130     1.0000 0.18720  0.35870  0.56040  Biso   1.000  C
  H121     1.0000 0.37340  0.29710  0.03080  Biso   1.000  H
  H122     1.0000 0.12660  0.20290  0.03080  Biso   1.000  H
  H123     1.0000 0.70290  0.87340  0.53080  Biso   1.000  H
  H124     1.0000 0.79710  0.62660  0.53080  Biso   1.000  H
  H125     1.0000 0.62660  0.70290  0.96920  Biso   1.000  H
  H126     1.0000 0.87340  0.79710  0.96920  Biso   1.000  H
  H127     1.0000 0.29710  0.12660  0.46920  Biso   1.000  H
  H128     1.0000 0.20290  0.37340  0.46920  Biso   1.000  H
  C131     1.0000 0.29260  0.33810  0.78910  Biso   1.000  C
  C132     1.0000 0.20740  0.16190  0.78910  Biso   1.000  C
  C133     1.0000 0.66190  0.79260  0.28910  Biso   1.000  C
  C134     1.0000 0.83810  0.70740  0.28910  Biso   1.000  C
  C135     1.0000 0.70740  0.66190  0.21090  Biso   1.000  C
  C136     1.0000 0.79260  0.83810  0.21090  Biso   1.000  C
  C137     1.0000 0.33810  0.20740  0.71090  Biso   1.000  C
  C138     1.0000 0.16190  0.29260  0.71090  Biso   1.000  C
  H129     1.0000 0.26170  0.33920  0.78140  Biso   1.000  H
  H130     1.0000 0.23830  0.16080  0.78140  Biso   1.000  H
  H131     1.0000 0.66080  0.76170  0.28140  Biso   1.000  H
  H132     1.0000 0.83920  0.73830  0.28140  Biso   1.000  H
  H133     1.0000 0.73830  0.66080  0.21860  Biso   1.000  H
  H134     1.0000 0.76170  0.83920  0.21860  Biso   1.000  H
  H135     1.0000 0.33920  0.23830  0.71860  Biso   1.000  H
  H136     1.0000 0.16080  0.26170  0.71860  Biso   1.000  H
  C139     1.0000 0.31930  0.36020  0.66660  Biso   1.000  C
  C140     1.0000 0.18070  0.13980  0.66660  Biso   1.000  C
  C141     1.0000 0.63980  0.81930  0.16660  Biso   1.000  C
  C142     1.0000 0.86020  0.68070  0.16660  Biso   1.000  C
  C143     1.0000 0.68070  0.63980  0.33340  Biso   1.000  C
  C144     1.0000 0.81930  0.86020  0.33340  Biso   1.000  C
  C145     1.0000 0.36020  0.18070  0.83340  Biso   1.000  C
  C146     1.0000 0.13980  0.31930  0.83340  Biso   1.000  C
  H137     1.0000 0.30530  0.37600  0.57410  Biso   1.000  H
  H138     1.0000 0.19470  0.12400  0.57410  Biso   1.000  H
  H139     1.0000 0.62400  0.80530  0.07410  Biso   1.000  H
  H140     1.0000 0.87600  0.69470  0.07410  Biso   1.000  H
  H141     1.0000 0.69470  0.62400  0.42590  Biso   1.000  H
  H142     1.0000 0.80530  0.87600  0.42590  Biso   1.000  H
  H143     1.0000 0.37600  0.19470  0.92590  Biso   1.000  H
  H144     1.0000 0.12400  0.30530  0.92590  Biso   1.000  H
  O41      1.0000 0.27600  0.30210  0.03160  Biso   1.000  O
  O42      1.0000 0.22400  0.19790  0.03160  Biso   1.000  O
  O43      1.0000 0.69790  0.77600  0.53160  Biso   1.000  O
  O44      1.0000 0.80210  0.72400  0.53160  Biso   1.000  O
  O45      1.0000 0.72400  0.69790  0.96840  Biso   1.000  O
  O46      1.0000 0.77600  0.80210  0.96840  Biso   1.000  O
  O47      1.0000 0.30210  0.22400  0.46840  Biso   1.000  O
  O48      1.0000 0.19790  0.27600  0.46840  Biso   1.000  O
  C147     1.0000 0.28560  0.26400  0.12220  Biso   1.000  C
  C148     1.0000 0.21440  0.23600  0.12220  Biso   1.000  C
  C149     1.0000 0.73600  0.78560  0.62220  Biso   1.000  C
  C150     1.0000 0.76400  0.71440  0.62220  Biso   1.000  C
  C151     1.0000 0.71440  0.73600  0.87780  Biso   1.000  C
  C152     1.0000 0.78560  0.76400  0.87780  Biso   1.000  C
  C153     1.0000 0.26400  0.21440  0.37780  Biso   1.000  C
  C154     1.0000 0.23600  0.28560  0.37780  Biso   1.000  C
  H145     1.0000 0.31300  0.26820  0.18980  Biso   1.000  H
  H146     1.0000 0.18700  0.23180  0.18980  Biso   1.000  H
  H147     1.0000 0.73180  0.81300  0.68980  Biso   1.000  H
  H148     1.0000 0.76820  0.68700  0.68980  Biso   1.000  H
  H149     1.0000 0.68700  0.73180  0.81020  Biso   1.000  H
  H150     1.0000 0.81300  0.76820  0.81020  Biso   1.000  H
  H151     1.0000 0.26820  0.18700  0.31020  Biso   1.000  H
  H152     1.0000 0.23180  0.31300  0.31020  Biso   1.000  H
  H153     1.0000 0.29060  0.24040  0.03440  Biso   1.000  H
  H154     1.0000 0.20940  0.25960  0.03440  Biso   1.000  H
  H155     1.0000 0.75960  0.79060  0.53440  Biso   1.000  H
  H156     1.0000 0.74040  0.70940  0.53440  Biso   1.000  H
  H157     1.0000 0.70940  0.75960  0.96560  Biso   1.000  H
  H158     1.0000 0.79060  0.74040  0.96560  Biso   1.000  H
  H159     1.0000 0.24040  0.20940  0.46560  Biso   1.000  H
  H160     1.0000 0.25960  0.29060  0.46560  Biso   1.000  H
  C155     1.0000 0.53350  0.39694  0.68960  Biso   1.000  C
  C156     1.0000 0.96650  0.10306  0.68960  Biso   1.000  C
  C157     1.0000 0.60306  0.03350  0.18960  Biso   1.000  C
  C158     1.0000 0.89694  0.46650  0.18960  Biso   1.000  C
  C159     1.0000 0.46650  0.60306  0.31040  Biso   1.000  C
  C160     1.0000 0.03350  0.89694  0.31040  Biso   1.000  C
  C161     1.0000 0.39694  0.96650  0.81040  Biso   1.000  C
  C162     1.0000 0.10306  0.53350  0.81040  Biso   1.000  C
  H161     1.0000 0.51780  0.37060  0.72620  Biso   1.000  H
  H162     1.0000 0.98220  0.12940  0.72620  Biso   1.000  H
  H163     1.0000 0.62940  0.01780  0.22620  Biso   1.000  H
  H164     1.0000 0.87060  0.48220  0.22620  Biso   1.000  H
  H165     1.0000 0.48220  0.62940  0.27380  Biso   1.000  H
  H166     1.0000 0.01780  0.87060  0.27380  Biso   1.000  H
  H167     1.0000 0.37060  0.98220  0.77380  Biso   1.000  H
  H168     1.0000 0.12940  0.51780  0.77380  Biso   1.000  H
  H169     1.0000 0.52690  0.40340  0.56450  Biso   1.000  H
  H170     1.0000 0.97310  0.09660  0.56450  Biso   1.000  H
  H171     1.0000 0.59660  0.02690  0.06450  Biso   1.000  H
  H172     1.0000 0.90340  0.47310  0.06450  Biso   1.000  H
  H173     1.0000 0.47310  0.59660  0.43550  Biso   1.000  H
  H174     1.0000 0.02690  0.90340  0.43550  Biso   1.000  H
  H175     1.0000 0.40340  0.97310  0.93550  Biso   1.000  H
  H176     1.0000 0.09660  0.52690  0.93550  Biso   1.000  H
  H177     1.0000 0.56500  0.39230  0.70330  Biso   1.000  H
  H178     1.0000 0.93500  0.10770  0.70330  Biso   1.000  H
  H179     1.0000 0.60770  0.06500  0.20330  Biso   1.000  H
  H180     1.0000 0.89230  0.43500  0.20330  Biso   1.000  H
  H181     1.0000 0.43500  0.60770  0.29670  Biso   1.000  H
  H182     1.0000 0.06500  0.89230  0.29670  Biso   1.000  H
  H183     1.0000 0.39230  0.93500  0.79670  Biso   1.000  H
  H184     1.0000 0.10770  0.56500  0.79670  Biso   1.000  H
  C163     1.0000 0.51975  0.43395  0.80220  Biso   1.000  C
  C164     1.0000 0.98025  0.06605  0.80220  Biso   1.000  C
  C165     1.0000 0.56605  0.01975  0.30220  Biso   1.000  C
  C166     1.0000 0.93395  0.48025  0.30220  Biso   1.000  C
  C167     1.0000 0.48025  0.56605  0.19780  Biso   1.000  C
  C168     1.0000 0.01975  0.93395  0.19780  Biso   1.000  C
  C169     1.0000 0.43395  0.98025  0.69780  Biso   1.000  C
  C170     1.0000 0.06605  0.51975  0.69780  Biso   1.000  C
  C171     1.0000 0.56614  0.48059  0.19890  Biso   1.000  C
  C172     1.0000 0.93386  0.01941  0.19890  Biso   1.000  C
  C173     1.0000 0.51941  0.06614  0.69890  Biso   1.000  C
  C174     1.0000 0.98059  0.43386  0.69890  Biso   1.000  C
  C175     1.0000 0.43386  0.51941  0.80110  Biso   1.000  C
  C176     1.0000 0.06614  0.98059  0.80110  Biso   1.000  C
  C177     1.0000 0.48059  0.93386  0.30110  Biso   1.000  C
  C178     1.0000 0.01941  0.56614  0.30110  Biso   1.000  C
  C179     1.0000 0.60320  0.46610  0.31070  Biso   1.000  C
  C180     1.0000 0.89680  0.03390  0.31070  Biso   1.000  C
  C181     1.0000 0.53390  0.10320  0.81070  Biso   1.000  C
  C182     1.0000 0.96610  0.39680  0.81070  Biso   1.000  C
  C183     1.0000 0.39680  0.53390  0.68930  Biso   1.000  C
  C184     1.0000 0.10320  0.96610  0.68930  Biso   1.000  C
  C185     1.0000 0.46610  0.89680  0.18930  Biso   1.000  C
  C186     1.0000 0.03390  0.60320  0.18930  Biso   1.000  C
  H185     1.0000 0.62950  0.48240  0.27700  Biso   1.000  H
  H186     1.0000 0.87050  0.01760  0.27700  Biso   1.000  H
  H187     1.0000 0.51760  0.12950  0.77700  Biso   1.000  H
  H188     1.0000 0.98240  0.37050  0.77700  Biso   1.000  H
  H189     1.0000 0.37050  0.51760  0.72300  Biso   1.000  H
  H190     1.0000 0.12950  0.98240  0.72300  Biso   1.000  H
  H191     1.0000 0.48240  0.87050  0.22300  Biso   1.000  H
  H192     1.0000 0.01760  0.62950  0.22300  Biso   1.000  H
  H193     1.0000 0.60820  0.43490  0.29250  Biso   1.000  H
  H194     1.0000 0.89180  0.06510  0.29250  Biso   1.000  H
  H195     1.0000 0.56510  0.10820  0.79250  Biso   1.000  H
  H196     1.0000 0.93490  0.39180  0.79250  Biso   1.000  H
  H197     1.0000 0.39180  0.56510  0.70750  Biso   1.000  H
  H198     1.0000 0.10820  0.93490  0.70750  Biso   1.000  H
  H199     1.0000 0.43490  0.89180  0.20750  Biso   1.000  H
  H200     1.0000 0.06510  0.60820  0.20750  Biso   1.000  H
  H201     1.0000 0.59650  0.47160  0.43650  Biso   1.000  H
  H202     1.0000 0.90350  0.02840  0.43650  Biso   1.000  H
  H203     1.0000 0.52840  0.09650  0.93650  Biso   1.000  H
  H204     1.0000 0.97160  0.40350  0.93650  Biso   1.000  H
  H205     1.0000 0.40350  0.52840  0.56350  Biso   1.000  H
  H206     1.0000 0.09650  0.97160  0.56350  Biso   1.000  H
  H207     1.0000 0.47160  0.90350  0.06350  Biso   1.000  H
  H208     1.0000 0.02840  0.59650  0.06350  Biso   1.000  H
