data_image0
_cell_length_a       7.364
_cell_length_b       9.884
_cell_length_c       10.077
_cell_angle_alpha    119.113
_cell_angle_beta     98.733
_cell_angle_gamma    100.102

_symmetry_space_group_name_H-M    "P 1"
_symmetry_int_tables_number       1

loop_
  _symmetry_equiv_pos_as_xyz
  'x, y, z'

loop_
  _atom_site_label
  _atom_site_occupancy
  _atom_site_fract_x
  _atom_site_fract_y
  _atom_site_fract_z
  _atom_site_thermal_displace_type
  _atom_site_B_iso_or_equiv
  _atom_site_type_symbol
  Cu1      1.0000 0.36037  0.75646  0.51431  Biso   1.000  Cu
  Cu2      1.0000 0.63963  0.24354  0.48569  Biso   1.000  Cu
  C1       1.0000 0.53700  0.53180  0.30100  Biso   1.000  C
  C2       1.0000 0.46300  0.46820  0.69900  Biso   1.000  C
  H1       1.0000 0.48090  0.46720  0.33540  Biso   1.000  H
  H2       1.0000 0.51910  0.53280  0.66460  Biso   1.000  H
  C3       1.0000 0.65840  0.47950  0.20970  Biso   1.000  C
  C4       1.0000 0.34160  0.52050  0.79030  Biso   1.000  C
  H3       1.0000 0.68580  0.38270  0.18370  Biso   1.000  H
  H4       1.0000 0.31420  0.61730  0.81630  Biso   1.000  H
  C5       1.0000 0.73900  0.57480  0.15720  Biso   1.000  C
  C6       1.0000 0.26100  0.42520  0.84280  Biso   1.000  C
  C7       1.0000 0.69100  0.71430  0.19310  Biso   1.000  C
  C8       1.0000 0.30900  0.28570  0.80690  Biso   1.000  C
  H5       1.0000 0.73780  0.77680  0.15350  Biso   1.000  H
  H6       1.0000 0.26220  0.22320  0.84650  Biso   1.000  H
  C9       1.0000 0.57090  0.75900  0.28990  Biso   1.000  C
  C10      1.0000 0.42910  0.24100  0.71010  Biso   1.000  C
  H7       1.0000 0.54240  0.85590  0.31870  Biso   1.000  H
  H8       1.0000 0.45760  0.14410  0.68130  Biso   1.000  H
  N1       1.0000 0.49420  0.67070  0.34390  Biso   1.000  N
  N2       1.0000 0.50580  0.32930  0.65610  Biso   1.000  N
  C11      1.0000 0.87160  0.52320  0.07670  Biso   1.000  C
  C12      1.0000 0.12840  0.47680  0.92330  Biso   1.000  C
  N3       1.0000 0.96060  0.41370  0.09870  Biso   1.000  N
  N4       1.0000 0.03940  0.58630  0.90130  Biso   1.000  N
  N5       1.0000 0.89520  0.61840  0.98540  Biso   1.000  N
  N6       1.0000 0.10480  0.38160  0.01460  Biso   1.000  N
  S1       1.0000 0.02690  0.43890  0.03430  Biso   1.000  S
  S2       1.0000 0.97310  0.56110  0.96570  Biso   1.000  S
  C13      1.0000 0.08960  0.87080  0.69780  Biso   1.000  C
  C14      1.0000 0.91040  0.12920  0.30220  Biso   1.000  C
  C15      1.0000 0.04070  0.93710  0.85330  Biso   1.000  C
  C16      1.0000 0.95930  0.06290  0.14670  Biso   1.000  C
  C17      1.0000 0.85760  0.95110  0.86410  Biso   1.000  C
  C18      1.0000 0.14240  0.04890  0.13590  Biso   1.000  C
  C19      1.0000 0.69460  0.90160  0.72430  Biso   1.000  C
  C20      1.0000 0.30540  0.09840  0.27570  Biso   1.000  C
  C21      1.0000 0.18010  0.98750  0.99150  Biso   1.000  C
  C22      1.0000 0.81990  0.01250  0.00850  Biso   1.000  C
  H9       1.0000 0.30270  0.97910  0.98550  Biso   1.000  H
  H10      1.0000 0.69730  0.02090  0.01450  Biso   1.000  H
  O1       1.0000 0.25440  0.85270  0.69640  Biso   1.000  O
  O2       1.0000 0.74560  0.14730  0.30360  Biso   1.000  O
  O3       1.0000 0.96320  0.83520  0.58020  Biso   1.000  O
  O4       1.0000 0.03680  0.16480  0.41980  Biso   1.000  O
  O5       1.0000 0.66690  0.00220  0.69040  Biso   1.000  O
  O6       1.0000 0.33310  0.99780  0.30960  Biso   1.000  O
  O7       1.0000 0.57980  0.76070  0.65810  Biso   1.000  O
  O8       1.0000 0.42020  0.23930  0.34190  Biso   1.000  O
  O9       1.0000 0.15770  0.49290  0.42270  Biso   1.000  O
  O10      1.0000 0.84230  0.50710  0.57730  Biso   1.000  O
  H11      1.0000 0.12540  0.49220  0.49680  Biso   1.000  H
  H12      1.0000 0.87460  0.50780  0.50320  Biso   1.000  H
  H13      1.0000 0.06280  0.47060  0.35150  Biso   1.000  H
  H14      1.0000 0.93720  0.52940  0.64850  Biso   1.000  H
  O11      1.0000 0.16910  0.79080  0.38350  Biso   1.000  O
  O12      1.0000 0.83090  0.20920  0.61650  Biso   1.000  O
  H15      1.0000 0.22290  0.85750  0.36540  Biso   1.000  H
  H16      1.0000 0.77710  0.14250  0.63460  Biso   1.000  H
  H17      1.0000 0.09050  0.82180  0.43410  Biso   1.000  H
  H18      1.0000 0.90950  0.17820  0.56590  Biso   1.000  H
