data_image0
_cell_length_a       8.2998
_cell_length_b       10.0819
_cell_length_c       17.318
_cell_angle_alpha    96.652
_cell_angle_beta     100.629
_cell_angle_gamma    108.077

_symmetry_space_group_name_H-M    "P 1"
_symmetry_int_tables_number       1

loop_
  _symmetry_equiv_pos_as_xyz
  'x, y, z'

loop_
  _atom_site_label
  _atom_site_occupancy
  _atom_site_fract_x
  _atom_site_fract_y
  _atom_site_fract_z
  _atom_site_thermal_displace_type
  _atom_site_B_iso_or_equiv
  _atom_site_type_symbol
  Cu1      1.0000 0.69955  0.19000  0.87738  Biso   1.000  Cu
  Cu2      1.0000 0.30045  0.81000  0.12262  Biso   1.000  Cu
  Cu3      1.0000 0.85661  0.36762  0.60834  Biso   1.000  Cu
  Cu4      1.0000 0.14339  0.63238  0.39166  Biso   1.000  Cu
  S1       1.0000 0.77687  0.77422  0.74914  Biso   1.000  S
  S2       1.0000 0.22313  0.22578  0.25086  Biso   1.000  S
  O1       1.0000 0.89820  0.17190  0.68300  Biso   1.000  O
  O2       1.0000 0.10180  0.82810  0.31700  Biso   1.000  O
  O3       1.0000 0.71090  0.12660  0.76290  Biso   1.000  O
  O4       1.0000 0.28910  0.87340  0.23710  Biso   1.000  O
  O5       1.0000 0.77510  0.25520  0.99709  Biso   1.000  O
  O6       1.0000 0.22490  0.74480  0.00291  Biso   1.000  O
  O7       1.0000 0.01340  0.37720  0.09410  Biso   1.000  O
  O8       1.0000 0.98660  0.62280  0.90590  Biso   1.000  O
  O9       1.0000 0.91890  0.29600  0.50830  Biso   1.000  O
  O10      1.0000 0.08110  0.70400  0.49170  Biso   1.000  O
  O11      1.0000 0.80150  0.15420  0.38920  Biso   1.000  O
  O12      1.0000 0.19850  0.84580  0.61080  Biso   1.000  O
  O13      1.0000 0.71500  0.40400  0.68550  Biso   1.000  O
  O14      1.0000 0.28500  0.59600  0.31450  Biso   1.000  O
  O15      1.0000 0.44820  0.31980  0.70640  Biso   1.000  O
  O16      1.0000 0.55180  0.68020  0.29360  Biso   1.000  O
  O17      1.0000 0.66300  0.40060  0.85770  Biso   1.000  O
  O18      1.0000 0.33700  0.59940  0.14230  Biso   1.000  O
  H1       1.0000 0.75820  0.46590  0.87040  Biso   1.000  H
  H2       1.0000 0.24180  0.53410  0.12960  Biso   1.000  H
  H3       1.0000 0.61810  0.38840  0.80910  Biso   1.000  H
  H4       1.0000 0.38190  0.61160  0.19090  Biso   1.000  H
  O19      1.0000 0.80350  0.58990  0.56360  Biso   1.000  O
  O20      1.0000 0.19650  0.41010  0.43640  Biso   1.000  O
  H5       1.0000 0.79660  0.63350  0.60720  Biso   1.000  H
  H6       1.0000 0.20340  0.36650  0.39280  Biso   1.000  H
  H7       1.0000 0.89020  0.63590  0.54630  Biso   1.000  H
  H8       1.0000 0.10980  0.36410  0.45370  Biso   1.000  H
  N1       1.0000 0.94430  0.26250  0.88850  Biso   1.000  N
  N2       1.0000 0.05570  0.73750  0.11150  Biso   1.000  N
  N3       1.0000 0.63030  0.25130  0.54730  Biso   1.000  N
  N4       1.0000 0.36970  0.74870  0.45270  Biso   1.000  N
  N5       1.0000 0.45170  0.08890  0.86650  Biso   1.000  N
  N6       1.0000 0.54830  0.91110  0.13350  Biso   1.000  N
  N7       1.0000 0.82180  0.90380  0.89030  Biso   1.000  N
  N8       1.0000 0.17820  0.09620  0.10970  Biso   1.000  N
  N9       1.0000 0.64730  0.83010  0.86500  Biso   1.000  N
  N10      1.0000 0.35270  0.16990  0.13500  Biso   1.000  N
  N11      1.0000 0.08730  0.49640  0.66840  Biso   1.000  N
  N12      1.0000 0.91270  0.50360  0.33160  Biso   1.000  N
  C1       1.0000 0.86220  0.17920  0.74900  Biso   1.000  C
  C2       1.0000 0.13780  0.82080  0.25100  Biso   1.000  C
  C3       1.0000 0.00720  0.25500  0.82310  Biso   1.000  C
  C4       1.0000 0.99280  0.74500  0.17690  Biso   1.000  C
  C5       1.0000 0.18230  0.31190  0.82850  Biso   1.000  C
  C6       1.0000 0.81770  0.68810  0.17150  Biso   1.000  C
  H9       1.0000 0.22710  0.30820  0.78320  Biso   1.000  H
  H10      1.0000 0.77290  0.69180  0.21680  Biso   1.000  H
  C7       1.0000 0.29060  0.37480  0.90280  Biso   1.000  C
  C8       1.0000 0.70940  0.62520  0.09720  Biso   1.000  C
  H11      1.0000 0.41040  0.41260  0.90810  Biso   1.000  H
  H12      1.0000 0.58960  0.58740  0.09190  Biso   1.000  H
  C9       1.0000 0.22280  0.38230  0.96950  Biso   1.000  C
  C10      1.0000 0.77720  0.61770  0.03050  Biso   1.000  C
  H13      1.0000 0.29570  0.42600  0.01960  Biso   1.000  H
  H14      1.0000 0.70430  0.57400  0.98040  Biso   1.000  H
  C11      1.0000 0.04550  0.32410  0.96080  Biso   1.000  C
  C12      1.0000 0.95450  0.67590  0.03920  Biso   1.000  C
  C13      1.0000 0.93930  0.32180  0.02390  Biso   1.000  C
  C14      1.0000 0.06070  0.67820  0.97610  Biso   1.000  C
  C15      1.0000 0.78790  0.21050  0.45290  Biso   1.000  C
  C16      1.0000 0.21210  0.78950  0.54710  Biso   1.000  C
  C17      1.0000 0.61400  0.18510  0.47390  Biso   1.000  C
  C18      1.0000 0.38600  0.81490  0.52610  Biso   1.000  C
  C19      1.0000 0.45170  0.10240  0.42680  Biso   1.000  C
  C20      1.0000 0.54830  0.89760  0.57320  Biso   1.000  C
  H15      1.0000 0.43850  0.05490  0.37550  Biso   1.000  H
  H16      1.0000 0.56150  0.94510  0.62450  Biso   1.000  H
  C21      1.0000 0.30930  0.09400  0.46000  Biso   1.000  C
  C22      1.0000 0.69070  0.90600  0.54000  Biso   1.000  C
  H17      1.0000 0.19790  0.04150  0.42960  Biso   1.000  H
  H18      1.0000 0.80210  0.95850  0.57040  Biso   1.000  H
  C23      1.0000 0.32910  0.16220  0.53790  Biso   1.000  C
  C24      1.0000 0.67090  0.83780  0.46210  Biso   1.000  C
  H19      1.0000 0.23350  0.15410  0.56020  Biso   1.000  H
  H20      1.0000 0.76650  0.84590  0.43980  Biso   1.000  H
  C25      1.0000 0.49590  0.24180  0.58040  Biso   1.000  C
  C26      1.0000 0.50410  0.75820  0.41960  Biso   1.000  C
  C27      1.0000 0.55180  0.32560  0.66400  Biso   1.000  C
  C28      1.0000 0.44820  0.67440  0.33600  Biso   1.000  C
  C29      1.0000 0.34740  0.02770  0.79350  Biso   1.000  C
  C30      1.0000 0.65260  0.97230  0.20650  Biso   1.000  C
  H21      1.0000 0.39690  0.03150  0.74940  Biso   1.000  H
  H22      1.0000 0.60310  0.96850  0.25060  Biso   1.000  H
  C31      1.0000 0.17140  0.96010  0.78130  Biso   1.000  C
  C32      1.0000 0.82860  0.03990  0.21870  Biso   1.000  C
  H23      1.0000 0.10350  0.91910  0.73000  Biso   1.000  H
  H24      1.0000 0.89650  0.08090  0.27000  Biso   1.000  H
  C33      1.0000 0.09560  0.95360  0.84660  Biso   1.000  C
  C34      1.0000 0.90440  0.04640  0.15340  Biso   1.000  C
  C35      1.0000 0.20280  0.01470  0.92190  Biso   1.000  C
  C36      1.0000 0.79720  0.98530  0.07810  Biso   1.000  C
  H25      1.0000 0.15670  0.01110  0.96700  Biso   1.000  H
  H26      1.0000 0.84330  0.98890  0.03300  Biso   1.000  H
  C37      1.0000 0.37770  0.08050  0.92910  Biso   1.000  C
  C38      1.0000 0.62230  0.91950  0.07090  Biso   1.000  C
  H27      1.0000 0.44850  0.12140  0.97990  Biso   1.000  H
  H28      1.0000 0.55150  0.87860  0.02010  Biso   1.000  H
  C39      1.0000 0.90760  0.88500  0.83540  Biso   1.000  C
  C40      1.0000 0.09240  0.11500  0.16460  Biso   1.000  C
  C41      1.0000 0.60270  0.75650  0.79310  Biso   1.000  C
  C42      1.0000 0.39730  0.24350  0.20690  Biso   1.000  C
  C43      1.0000 0.22380  0.51180  0.63440  Biso   1.000  C
  C44      1.0000 0.77620  0.48820  0.36560  Biso   1.000  C
  H29      1.0000 0.20450  0.46410  0.58250  Biso   1.000  H
  H30      1.0000 0.79550  0.53590  0.41750  Biso   1.000  H
  C45      1.0000 0.38960  0.59480  0.67350  Biso   1.000  C
  C46      1.0000 0.61040  0.40520  0.32650  Biso   1.000  C
  H31      1.0000 0.48050  0.60170  0.64810  Biso   1.000  H
  H32      1.0000 0.51950  0.39830  0.35190  Biso   1.000  H
  C47      1.0000 0.42410  0.66870  0.75050  Biso   1.000  C
  C48      1.0000 0.57590  0.33130  0.24950  Biso   1.000  C
  C49      1.0000 0.28360  0.65480  0.78600  Biso   1.000  C
  C50      1.0000 0.71640  0.34520  0.21400  Biso   1.000  C
  H33      1.0000 0.29950  0.70140  0.83780  Biso   1.000  H
  H34      1.0000 0.70050  0.29860  0.16220  Biso   1.000  H
  C51      1.0000 0.11900  0.56950  0.74170  Biso   1.000  C
  C52      1.0000 0.88100  0.43050  0.25830  Biso   1.000  C
  H35      1.0000 0.02490  0.56310  0.76480  Biso   1.000  H
  H36      1.0000 0.97510  0.43690  0.23520  Biso   1.000  H
