data_image0
_cell_length_a       8.6574
_cell_length_b       12.592
_cell_length_c       14.496
_cell_angle_alpha    101.046
_cell_angle_beta     102.874
_cell_angle_gamma    102.479

_symmetry_space_group_name_H-M    "P 1"
_symmetry_int_tables_number       1

loop_
  _symmetry_equiv_pos_as_xyz
  'x, y, z'

loop_
  _atom_site_label
  _atom_site_occupancy
  _atom_site_fract_x
  _atom_site_fract_y
  _atom_site_fract_z
  _atom_site_thermal_displace_type
  _atom_site_B_iso_or_equiv
  _atom_site_type_symbol
  Cu1      1.0000 0.77603  0.69672  0.55756  Biso   1.000  Cu
  Cu2      1.0000 0.22397  0.30328  0.44244  Biso   1.000  Cu
  Cu3      1.0000 0.74048  0.30695  0.00642  Biso   1.000  Cu
  Cu4      1.0000 0.25952  0.69305  0.99358  Biso   1.000  Cu
  S1       1.0000 0.23780  0.98543  0.26531  Biso   1.000  S
  S2       1.0000 0.76220  0.01457  0.73469  Biso   1.000  S
  O1       1.0000 0.97180  0.83330  0.84290  Biso   1.000  O
  O2       1.0000 0.02820  0.16670  0.15710  Biso   1.000  O
  O3       1.0000 0.90820  0.77130  0.68500  Biso   1.000  O
  O4       1.0000 0.09180  0.22870  0.31500  Biso   1.000  O
  O5       1.0000 0.61390  0.61640  0.60700  Biso   1.000  O
  O6       1.0000 0.38610  0.38360  0.39300  Biso   1.000  O
  O7       1.0000 0.37840  0.37790  0.56900  Biso   1.000  O
  O8       1.0000 0.62160  0.62210  0.43100  Biso   1.000  O
  O9       1.0000 0.24660  0.50790  0.59850  Biso   1.000  O
  O10      1.0000 0.75340  0.49210  0.40150  Biso   1.000  O
  O11      1.0000 0.54490  0.24020  0.89890  Biso   1.000  O
  O12      1.0000 0.45510  0.75980  0.10110  Biso   1.000  O
  O13      1.0000 0.42170  0.14040  0.74720  Biso   1.000  O
  O14      1.0000 0.57830  0.85960  0.25280  Biso   1.000  O
  O15      1.0000 0.84310  0.38420  0.92450  Biso   1.000  O
  O16      1.0000 0.15690  0.61580  0.07550  Biso   1.000  O
  O17      1.0000 0.07450  0.59050  0.88610  Biso   1.000  O
  O18      1.0000 0.92550  0.40950  0.11390  Biso   1.000  O
  O19      1.0000 0.18840  0.44790  0.88750  Biso   1.000  O
  O20      1.0000 0.81160  0.55210  0.11250  Biso   1.000  O
  O21      1.0000 0.98010  0.58120  0.56140  Biso   1.000  O
  O22      1.0000 0.01990  0.41880  0.43860  Biso   1.000  O
  H1       1.0000 0.04150  0.58540  0.51310  Biso   1.000  H
  H2       1.0000 0.95850  0.41460  0.48690  Biso   1.000  H
  H3       1.0000 0.93890  0.50540  0.55010  Biso   1.000  H
  H4       1.0000 0.06110  0.49460  0.44990  Biso   1.000  H
  O23      1.0000 0.78630  0.96570  0.15270  Biso   1.000  O
  O24      1.0000 0.21370  0.03430  0.84730  Biso   1.000  O
  H5       1.0000 0.83690  0.03330  0.16610  Biso   1.000  H
  H6       1.0000 0.16310  0.96670  0.83390  Biso   1.000  H
  H7       1.0000 0.72460  0.95520  0.18900  Biso   1.000  H
  H8       1.0000 0.27540  0.04480  0.81100  Biso   1.000  H
  O25      1.0000 0.91200  0.78120  0.11820  Biso   1.000  O
  O26      1.0000 0.08800  0.21880  0.88180  Biso   1.000  O
  H9       1.0000 0.84850  0.71730  0.10570  Biso   1.000  H
  H10      1.0000 0.15150  0.28270  0.89430  Biso   1.000  H
  H11      1.0000 0.86040  0.82980  0.11890  Biso   1.000  H
  H12      1.0000 0.13960  0.17020  0.88110  Biso   1.000  H
  O27      1.0000 0.85030  0.16040  0.97080  Biso   1.000  O
  O28      1.0000 0.14970  0.83960  0.02920  Biso   1.000  O
  H13      1.0000 0.88980  0.14440  0.02150  Biso   1.000  H
  H14      1.0000 0.11020  0.85560  0.97850  Biso   1.000  H
  H15      1.0000 0.91990  0.17520  0.94040  Biso   1.000  H
  H16      1.0000 0.08010  0.82480  0.05960  Biso   1.000  H
  N1       1.0000 0.62600  0.60600  0.69840  Biso   1.000  N
  N2       1.0000 0.37400  0.39400  0.30160  Biso   1.000  N
  N3       1.0000 0.92740  0.79710  0.50280  Biso   1.000  N
  N4       1.0000 0.07260  0.20290  0.49720  Biso   1.000  N
  N5       1.0000 0.38060  0.08440  0.44420  Biso   1.000  N
  N6       1.0000 0.61940  0.91560  0.55580  Biso   1.000  N
  N7       1.0000 0.47350  0.13790  0.39300  Biso   1.000  N
  N8       1.0000 0.52650  0.86210  0.60700  Biso   1.000  N
  N9       1.0000 0.63670  0.23670  0.09840  Biso   1.000  N
  N10      1.0000 0.36330  0.76330  0.90160  Biso   1.000  N
  N11      1.0000 0.80330  0.35650  0.82730  Biso   1.000  N
  N12      1.0000 0.19670  0.64350  0.17270  Biso   1.000  N
  C1       1.0000 0.36460  0.46890  0.61650  Biso   1.000  C
  C2       1.0000 0.63540  0.53110  0.38350  Biso   1.000  C
  C3       1.0000 0.50170  0.52750  0.70770  Biso   1.000  C
  C4       1.0000 0.49830  0.47250  0.29230  Biso   1.000  C
  C5       1.0000 0.50320  0.50920  0.79760  Biso   1.000  C
  C6       1.0000 0.49680  0.49080  0.20240  Biso   1.000  C
  H17      1.0000 0.41850  0.45370  0.80370  Biso   1.000  H
  H18      1.0000 0.58150  0.54630  0.19630  Biso   1.000  H
  C7       1.0000 0.62660  0.57100  0.87900  Biso   1.000  C
  C8       1.0000 0.37340  0.42900  0.12100  Biso   1.000  C
  H19      1.0000 0.62860  0.55750  0.94010  Biso   1.000  H
  H20      1.0000 0.37140  0.44250  0.05990  Biso   1.000  H
  C9       1.0000 0.74890  0.65440  0.86730  Biso   1.000  C
  C10      1.0000 0.25110  0.34560  0.13270  Biso   1.000  C
  H21      1.0000 0.83080  0.69980  0.92240  Biso   1.000  H
  H22      1.0000 0.16920  0.30020  0.07760  Biso   1.000  H
  C11      1.0000 0.75390  0.67270  0.77720  Biso   1.000  C
  C12      1.0000 0.24610  0.32730  0.22280  Biso   1.000  C
  C13      1.0000 0.88590  0.76480  0.76710  Biso   1.000  C
  C14      1.0000 0.11410  0.23520  0.23290  Biso   1.000  C
  C15      1.0000 0.07280  0.86300  0.55780  Biso   1.000  C
  C16      1.0000 0.92720  0.13700  0.44220  Biso   1.000  C
  H23      1.0000 0.10320  0.86230  0.62330  Biso   1.000  H
  H24      1.0000 0.89680  0.13770  0.37670  Biso   1.000  H
  C17      1.0000 0.18240  0.93270  0.52430  Biso   1.000  C
  C18      1.0000 0.81760  0.06730  0.47570  Biso   1.000  C
  H25      1.0000 0.28200  0.97870  0.56630  Biso   1.000  H
  H26      1.0000 0.71800  0.02130  0.43370  Biso   1.000  H
  C19      1.0000 0.13900  0.93180  0.42650  Biso   1.000  C
  C20      1.0000 0.86100  0.06820  0.57350  Biso   1.000  C
  C21      1.0000 0.99060  0.86470  0.36920  Biso   1.000  C
  C22      1.0000 0.00940  0.13530  0.63080  Biso   1.000  C
  H27      1.0000 0.95840  0.86320  0.30320  Biso   1.000  H
  H28      1.0000 0.04160  0.13680  0.69680  Biso   1.000  H
  C23      1.0000 0.88740  0.79880  0.40860  Biso   1.000  C
  C24      1.0000 0.11260  0.20120  0.59140  Biso   1.000  C
  H29      1.0000 0.78600  0.75380  0.36810  Biso   1.000  H
  H30      1.0000 0.21400  0.24620  0.63190  Biso   1.000  H
  C25      1.0000 0.25230  0.00240  0.38690  Biso   1.000  C
  C26      1.0000 0.74770  0.99760  0.61310  Biso   1.000  C
  C27      1.0000 0.41260  0.09490  0.29690  Biso   1.000  C
  C28      1.0000 0.58740  0.90510  0.70310  Biso   1.000  C
  C29      1.0000 0.49000  0.13880  0.22630  Biso   1.000  C
  C30      1.0000 0.51000  0.86120  0.77370  Biso   1.000  C
  C31      1.0000 0.42920  0.09740  0.12860  Biso   1.000  C
  C32      1.0000 0.57080  0.90260  0.87140  Biso   1.000  C
  H31      1.0000 0.33760  0.03550  0.10290  Biso   1.000  H
  H32      1.0000 0.66240  0.96450  0.89710  Biso   1.000  H
  C33      1.0000 0.50320  0.14720  0.06710  Biso   1.000  C
  C34      1.0000 0.49680  0.85280  0.93290  Biso   1.000  C
  H33      1.0000 0.45850  0.11740  0.00010  Biso   1.000  H
  H34      1.0000 0.54150  0.88260  0.99990  Biso   1.000  H
  C35      1.0000 0.69600  0.27570  0.19590  Biso   1.000  C
  C36      1.0000 0.30400  0.72430  0.80410  Biso   1.000  C
  H35      1.0000 0.78920  0.33660  0.22050  Biso   1.000  H
  H36      1.0000 0.21080  0.66340  0.77950  Biso   1.000  H
  C37      1.0000 0.62700  0.23080  0.26150  Biso   1.000  C
  C38      1.0000 0.37300  0.76920  0.73850  Biso   1.000  C
  H37      1.0000 0.67170  0.26170  0.32840  Biso   1.000  H
  H38      1.0000 0.32830  0.73830  0.67160  Biso   1.000  H
  C39      1.0000 0.53470  0.21460  0.80890  Biso   1.000  C
  C40      1.0000 0.46530  0.78540  0.19110  Biso   1.000  C
  C41      1.0000 0.66280  0.27940  0.76900  Biso   1.000  C
  C42      1.0000 0.33720  0.72060  0.23100  Biso   1.000  C
  C43      1.0000 0.63590  0.26380  0.66870  Biso   1.000  C
  C44      1.0000 0.36410  0.73620  0.33130  Biso   1.000  C
  H39      1.0000 0.54180  0.21060  0.62730  Biso   1.000  H
  H40      1.0000 0.45820  0.78940  0.37270  Biso   1.000  H
  C45      1.0000 0.74270  0.32370  0.62820  Biso   1.000  C
  C46      1.0000 0.25730  0.67630  0.37180  Biso   1.000  C
  H41      1.0000 0.71980  0.31420  0.56090  Biso   1.000  H
  H42      1.0000 0.28020  0.68580  0.43910  Biso   1.000  H
  C47      1.0000 0.88500  0.39840  0.69040  Biso   1.000  C
  C48      1.0000 0.11500  0.60160  0.30960  Biso   1.000  C
  H43      1.0000 0.96130  0.43870  0.66500  Biso   1.000  H
  H44      1.0000 0.03870  0.56130  0.33500  Biso   1.000  H
  C49      1.0000 0.91450  0.41350  0.78950  Biso   1.000  C
  C50      1.0000 0.08550  0.58650  0.21050  Biso   1.000  C
  C51      1.0000 0.07390  0.48830  0.86220  Biso   1.000  C
  C52      1.0000 0.92610  0.51170  0.13780  Biso   1.000  C
