data_image0
_cell_length_a       18.119
_cell_length_b       18.119
_cell_length_c       12.935
_cell_angle_alpha    90
_cell_angle_beta     90
_cell_angle_gamma    90

_symmetry_space_group_name_H-M    "P 1"
_symmetry_int_tables_number       1

loop_
  _symmetry_equiv_pos_as_xyz
  'x, y, z'

loop_
  _atom_site_label
  _atom_site_occupancy
  _atom_site_fract_x
  _atom_site_fract_y
  _atom_site_fract_z
  _atom_site_thermal_displace_type
  _atom_site_B_iso_or_equiv
  _atom_site_type_symbol
  Cu1      1.0000 0.03859  0.56162  0.09725  Biso   1.000  Cu
  Cu2      1.0000 0.46141  0.93838  0.59725  Biso   1.000  Cu
  Cu3      1.0000 0.43838  0.53859  0.34725  Biso   1.000  Cu
  Cu4      1.0000 0.06162  0.96141  0.84725  Biso   1.000  Cu
  Cu5      1.0000 0.53859  0.06162  0.59725  Biso   1.000  Cu
  Cu6      1.0000 0.96141  0.43838  0.09725  Biso   1.000  Cu
  Cu7      1.0000 0.93838  0.03859  0.84725  Biso   1.000  Cu
  Cu8      1.0000 0.56162  0.46141  0.34725  Biso   1.000  Cu
  O1       1.0000 0.09540  0.66500  0.09750  Biso   1.000  O
  O2       1.0000 0.40460  0.83500  0.59750  Biso   1.000  O
  O3       1.0000 0.33500  0.59540  0.34750  Biso   1.000  O
  O4       1.0000 0.16500  0.90460  0.84750  Biso   1.000  O
  O5       1.0000 0.59540  0.16500  0.59750  Biso   1.000  O
  O6       1.0000 0.90460  0.33500  0.09750  Biso   1.000  O
  O7       1.0000 0.83500  0.09540  0.84750  Biso   1.000  O
  O8       1.0000 0.66500  0.40460  0.34750  Biso   1.000  O
  O9       1.0000 0.95790  0.58990  0.99860  Biso   1.000  O
  O10      1.0000 0.54210  0.91010  0.49860  Biso   1.000  O
  O11      1.0000 0.41010  0.45790  0.24860  Biso   1.000  O
  O12      1.0000 0.08990  0.04210  0.74860  Biso   1.000  O
  O13      1.0000 0.45790  0.08990  0.49860  Biso   1.000  O
  O14      1.0000 0.04210  0.41010  0.99860  Biso   1.000  O
  O15      1.0000 0.91010  0.95790  0.74860  Biso   1.000  O
  O16      1.0000 0.58990  0.54210  0.24860  Biso   1.000  O
  O17      1.0000 0.90740  0.48090  0.98350  Biso   1.000  O
  O18      1.0000 0.59260  0.01910  0.48350  Biso   1.000  O
  O19      1.0000 0.51910  0.40740  0.23350  Biso   1.000  O
  O20      1.0000 0.98090  0.09260  0.73350  Biso   1.000  O
  O21      1.0000 0.40740  0.98090  0.48350  Biso   1.000  O
  O22      1.0000 0.09260  0.51910  0.98350  Biso   1.000  O
  O23      1.0000 0.01910  0.90740  0.73350  Biso   1.000  O
  O24      1.0000 0.48090  0.59260  0.23350  Biso   1.000  O
  O25      1.0000 0.58880  0.52420  0.46620  Biso   1.000  O
  O26      1.0000 0.91120  0.97580  0.96620  Biso   1.000  O
  O27      1.0000 0.47580  0.08880  0.71620  Biso   1.000  O
  O28      1.0000 0.02420  0.41120  0.21620  Biso   1.000  O
  O29      1.0000 0.08880  0.02420  0.96620  Biso   1.000  O
  O30      1.0000 0.41120  0.47580  0.46620  Biso   1.000  O
  O31      1.0000 0.97580  0.58880  0.21620  Biso   1.000  O
  O32      1.0000 0.52420  0.91120  0.71620  Biso   1.000  O
  O33      1.0000 0.49740  0.60300  0.44250  Biso   1.000  O
  O34      1.0000 0.00260  0.89700  0.94250  Biso   1.000  O
  O35      1.0000 0.39700  0.99740  0.69250  Biso   1.000  O
  O36      1.0000 0.10300  0.50260  0.19250  Biso   1.000  O
  O37      1.0000 0.99740  0.10300  0.94250  Biso   1.000  O
  O38      1.0000 0.50260  0.39700  0.44250  Biso   1.000  O
  O39      1.0000 0.89700  0.49740  0.19250  Biso   1.000  O
  O40      1.0000 0.60300  0.00260  0.69250  Biso   1.000  O
  C1       1.0000 0.91220  0.54940  0.95920  Biso   1.000  C
  C2       1.0000 0.58780  0.95060  0.45920  Biso   1.000  C
  C3       1.0000 0.45060  0.41220  0.20920  Biso   1.000  C
  C4       1.0000 0.04940  0.08780  0.70920  Biso   1.000  C
  C5       1.0000 0.41220  0.04940  0.45920  Biso   1.000  C
  C6       1.0000 0.08780  0.45060  0.95920  Biso   1.000  C
  C7       1.0000 0.95060  0.91220  0.70920  Biso   1.000  C
  C8       1.0000 0.54940  0.58780  0.20920  Biso   1.000  C
  C9       1.0000 0.85670  0.57580  0.88960  Biso   1.000  C
  C10      1.0000 0.64330  0.92420  0.38960  Biso   1.000  C
  C11      1.0000 0.42420  0.35670  0.13960  Biso   1.000  C
  C12      1.0000 0.07580  0.14330  0.63960  Biso   1.000  C
  C13      1.0000 0.35670  0.07580  0.38960  Biso   1.000  C
  C14      1.0000 0.14330  0.42420  0.88960  Biso   1.000  C
  C15      1.0000 0.92420  0.85670  0.63960  Biso   1.000  C
  C16      1.0000 0.57580  0.64330  0.13960  Biso   1.000  C
  C17      1.0000 0.79250  0.53580  0.86980  Biso   1.000  C
  C18      1.0000 0.70750  0.96420  0.36980  Biso   1.000  C
  C19      1.0000 0.46420  0.29250  0.11980  Biso   1.000  C
  C20      1.0000 0.03580  0.20750  0.61980  Biso   1.000  C
  C21      1.0000 0.29250  0.03580  0.36980  Biso   1.000  C
  C22      1.0000 0.20750  0.46420  0.86980  Biso   1.000  C
  C23      1.0000 0.96420  0.79250  0.61980  Biso   1.000  C
  C24      1.0000 0.53580  0.70750  0.11980  Biso   1.000  C
  H1       1.0000 0.78620  0.49030  0.90180  Biso   1.000  H
  H2       1.0000 0.71380  0.00970  0.40180  Biso   1.000  H
  H3       1.0000 0.50970  0.28620  0.15180  Biso   1.000  H
  H4       1.0000 0.99030  0.21380  0.65180  Biso   1.000  H
  H5       1.0000 0.28620  0.99030  0.40180  Biso   1.000  H
  H6       1.0000 0.21380  0.50970  0.90180  Biso   1.000  H
  H7       1.0000 0.00970  0.78620  0.65180  Biso   1.000  H
  H8       1.0000 0.49030  0.71380  0.15180  Biso   1.000  H
  C25      1.0000 0.73750  0.56160  0.80380  Biso   1.000  C
  C26      1.0000 0.76250  0.93840  0.30380  Biso   1.000  C
  C27      1.0000 0.43840  0.23750  0.05380  Biso   1.000  C
  C28      1.0000 0.06160  0.26250  0.55380  Biso   1.000  C
  C29      1.0000 0.23750  0.06160  0.30380  Biso   1.000  C
  C30      1.0000 0.26250  0.43840  0.80380  Biso   1.000  C
  C31      1.0000 0.93840  0.73750  0.55380  Biso   1.000  C
  C32      1.0000 0.56160  0.76250  0.05380  Biso   1.000  C
  H9       1.0000 0.69550  0.53300  0.79320  Biso   1.000  H
  H10      1.0000 0.80450  0.96700  0.29320  Biso   1.000  H
  H11      1.0000 0.46700  0.19550  0.04320  Biso   1.000  H
  H12      1.0000 0.03300  0.30450  0.54320  Biso   1.000  H
  H13      1.0000 0.19550  0.03300  0.29320  Biso   1.000  H
  H14      1.0000 0.30450  0.46700  0.79320  Biso   1.000  H
  H15      1.0000 0.96700  0.69550  0.54320  Biso   1.000  H
  H16      1.0000 0.53300  0.80450  0.04320  Biso   1.000  H
  C33      1.0000 0.74390  0.62840  0.75370  Biso   1.000  C
  C34      1.0000 0.75610  0.87160  0.25370  Biso   1.000  C
  C35      1.0000 0.37160  0.24390  0.00370  Biso   1.000  C
  C36      1.0000 0.12840  0.25610  0.50370  Biso   1.000  C
  C37      1.0000 0.24390  0.12840  0.25370  Biso   1.000  C
  C38      1.0000 0.25610  0.37160  0.75370  Biso   1.000  C
  C39      1.0000 0.87160  0.74390  0.50370  Biso   1.000  C
  C40      1.0000 0.62840  0.75610  0.00370  Biso   1.000  C
  C41      1.0000 0.80960  0.67130  0.77440  Biso   1.000  C
  C42      1.0000 0.69040  0.82870  0.27440  Biso   1.000  C
  C43      1.0000 0.32870  0.30960  0.02440  Biso   1.000  C
  C44      1.0000 0.17130  0.19040  0.52440  Biso   1.000  C
  C45      1.0000 0.30960  0.17130  0.27440  Biso   1.000  C
  C46      1.0000 0.19040  0.32870  0.77440  Biso   1.000  C
  C47      1.0000 0.82870  0.80960  0.52440  Biso   1.000  C
  C48      1.0000 0.67130  0.69040  0.02440  Biso   1.000  C
  H17      1.0000 0.81610  0.71680  0.74240  Biso   1.000  H
  H18      1.0000 0.68390  0.78320  0.24240  Biso   1.000  H
  H19      1.0000 0.28320  0.31610  0.99240  Biso   1.000  H
  H20      1.0000 0.21680  0.18390  0.49240  Biso   1.000  H
  H21      1.0000 0.31610  0.21680  0.24240  Biso   1.000  H
  H22      1.0000 0.18390  0.28320  0.74240  Biso   1.000  H
  H23      1.0000 0.78320  0.81610  0.49240  Biso   1.000  H
  H24      1.0000 0.71680  0.68390  0.99240  Biso   1.000  H
  C49      1.0000 0.86240  0.64490  0.84150  Biso   1.000  C
  C50      1.0000 0.63760  0.85510  0.34150  Biso   1.000  C
  C51      1.0000 0.35510  0.36240  0.09150  Biso   1.000  C
  C52      1.0000 0.14490  0.13760  0.59150  Biso   1.000  C
  C53      1.0000 0.36240  0.14490  0.34150  Biso   1.000  C
  C54      1.0000 0.13760  0.35510  0.84150  Biso   1.000  C
  C55      1.0000 0.85510  0.86240  0.59150  Biso   1.000  C
  C56      1.0000 0.64490  0.63760  0.09150  Biso   1.000  C
  H25      1.0000 0.90350  0.67410  0.85540  Biso   1.000  H
  H26      1.0000 0.59650  0.82590  0.35540  Biso   1.000  H
  H27      1.0000 0.32590  0.40350  0.10540  Biso   1.000  H
  H28      1.0000 0.17410  0.09650  0.60540  Biso   1.000  H
  H29      1.0000 0.40350  0.17410  0.35540  Biso   1.000  H
  H30      1.0000 0.09650  0.32590  0.85540  Biso   1.000  H
  H31      1.0000 0.82590  0.90350  0.60540  Biso   1.000  H
  H32      1.0000 0.67410  0.59650  0.10540  Biso   1.000  H
  C57      1.0000 0.69030  0.65820  0.68030  Biso   1.000  C
  C58      1.0000 0.80970  0.84180  0.18030  Biso   1.000  C
  C59      1.0000 0.34180  0.19030  0.93030  Biso   1.000  C
  C60      1.0000 0.15820  0.30970  0.43030  Biso   1.000  C
  C61      1.0000 0.19030  0.15820  0.18030  Biso   1.000  C
  C62      1.0000 0.30970  0.34180  0.68030  Biso   1.000  C
  C63      1.0000 0.84180  0.69030  0.43030  Biso   1.000  C
  C64      1.0000 0.65820  0.80970  0.93030  Biso   1.000  C
  C65      1.0000 0.66980  0.73060  0.67870  Biso   1.000  C
  C66      1.0000 0.83020  0.76940  0.17870  Biso   1.000  C
  C67      1.0000 0.26940  0.16980  0.92870  Biso   1.000  C
  C68      1.0000 0.23060  0.33020  0.42870  Biso   1.000  C
  C69      1.0000 0.16980  0.23060  0.17870  Biso   1.000  C
  C70      1.0000 0.33020  0.26940  0.67870  Biso   1.000  C
  C71      1.0000 0.76940  0.66980  0.42870  Biso   1.000  C
  C72      1.0000 0.73060  0.83020  0.92870  Biso   1.000  C
  H33      1.0000 0.69350  0.76270  0.72390  Biso   1.000  H
  H34      1.0000 0.80650  0.73730  0.22390  Biso   1.000  H
  H35      1.0000 0.23730  0.19350  0.97390  Biso   1.000  H
  H36      1.0000 0.26270  0.30650  0.47390  Biso   1.000  H
  H37      1.0000 0.19350  0.26270  0.22390  Biso   1.000  H
  H38      1.0000 0.30650  0.23730  0.72390  Biso   1.000  H
  H39      1.0000 0.73730  0.69350  0.47390  Biso   1.000  H
  H40      1.0000 0.76270  0.80650  0.97390  Biso   1.000  H
  C73      1.0000 0.61600  0.75940  0.61440  Biso   1.000  C
  C74      1.0000 0.88400  0.74060  0.11440  Biso   1.000  C
  C75      1.0000 0.24060  0.11600  0.86440  Biso   1.000  C
  C76      1.0000 0.25940  0.38400  0.36440  Biso   1.000  C
  C77      1.0000 0.11600  0.25940  0.11440  Biso   1.000  C
  C78      1.0000 0.38400  0.24060  0.61440  Biso   1.000  C
  C79      1.0000 0.74060  0.61600  0.36440  Biso   1.000  C
  C80      1.0000 0.75940  0.88400  0.86440  Biso   1.000  C
  H41      1.0000 0.60600  0.80970  0.61280  Biso   1.000  H
  H42      1.0000 0.89400  0.69030  0.11280  Biso   1.000  H
  H43      1.0000 0.19030  0.10600  0.86280  Biso   1.000  H
  H44      1.0000 0.30970  0.39400  0.36280  Biso   1.000  H
  H45      1.0000 0.10600  0.30970  0.11280  Biso   1.000  H
  H46      1.0000 0.39400  0.19030  0.61280  Biso   1.000  H
  H47      1.0000 0.69030  0.60600  0.36280  Biso   1.000  H
  H48      1.0000 0.80970  0.89400  0.86280  Biso   1.000  H
  C81      1.0000 0.57820  0.71060  0.55310  Biso   1.000  C
  C82      1.0000 0.92180  0.78940  0.05310  Biso   1.000  C
  C83      1.0000 0.28940  0.07820  0.80310  Biso   1.000  C
  C84      1.0000 0.21060  0.42180  0.30310  Biso   1.000  C
  C85      1.0000 0.07820  0.21060  0.05310  Biso   1.000  C
  C86      1.0000 0.42180  0.28940  0.55310  Biso   1.000  C
  C87      1.0000 0.78940  0.57820  0.30310  Biso   1.000  C
  C88      1.0000 0.71060  0.92180  0.80310  Biso   1.000  C
  H49      1.0000 0.54030  0.72710  0.51040  Biso   1.000  H
  H50      1.0000 0.95970  0.77290  0.01040  Biso   1.000  H
  H51      1.0000 0.27290  0.04030  0.76040  Biso   1.000  H
  H52      1.0000 0.22710  0.45970  0.26040  Biso   1.000  H
  H53      1.0000 0.04030  0.22710  0.01040  Biso   1.000  H
  H54      1.0000 0.45970  0.27290  0.51040  Biso   1.000  H
  H55      1.0000 0.77290  0.54030  0.26040  Biso   1.000  H
  H56      1.0000 0.72710  0.95970  0.76040  Biso   1.000  H
  C89      1.0000 0.59650  0.63780  0.55520  Biso   1.000  C
  C90      1.0000 0.90350  0.86220  0.05520  Biso   1.000  C
  C91      1.0000 0.36220  0.09650  0.80520  Biso   1.000  C
  C92      1.0000 0.13780  0.40350  0.30520  Biso   1.000  C
  C93      1.0000 0.09650  0.13780  0.05520  Biso   1.000  C
  C94      1.0000 0.40350  0.36220  0.55520  Biso   1.000  C
  C95      1.0000 0.86220  0.59650  0.30520  Biso   1.000  C
  C96      1.0000 0.63780  0.90350  0.80520  Biso   1.000  C
  C97      1.0000 0.65010  0.61020  0.62060  Biso   1.000  C
  C98      1.0000 0.84990  0.88980  0.12060  Biso   1.000  C
  C99      1.0000 0.38980  0.15010  0.87060  Biso   1.000  C
  C100     1.0000 0.11020  0.34990  0.37060  Biso   1.000  C
  C101     1.0000 0.15010  0.11020  0.12060  Biso   1.000  C
  C102     1.0000 0.34990  0.38980  0.62060  Biso   1.000  C
  C103     1.0000 0.88980  0.65010  0.37060  Biso   1.000  C
  C104     1.0000 0.61020  0.84990  0.87060  Biso   1.000  C
  H57      1.0000 0.65890  0.55970  0.62410  Biso   1.000  H
  H58      1.0000 0.84110  0.94030  0.12410  Biso   1.000  H
  H59      1.0000 0.44030  0.15890  0.87410  Biso   1.000  H
  H60      1.0000 0.05970  0.34110  0.37410  Biso   1.000  H
  H61      1.0000 0.15890  0.05970  0.12410  Biso   1.000  H
  H62      1.0000 0.34110  0.44030  0.62410  Biso   1.000  H
  H63      1.0000 0.94030  0.65890  0.37410  Biso   1.000  H
  H64      1.0000 0.55970  0.84110  0.87410  Biso   1.000  H
  C105     1.0000 0.55760  0.58300  0.47960  Biso   1.000  C
  C106     1.0000 0.94240  0.91700  0.97960  Biso   1.000  C
  C107     1.0000 0.41700  0.05760  0.72960  Biso   1.000  C
  C108     1.0000 0.08300  0.44240  0.22960  Biso   1.000  C
  C109     1.0000 0.05760  0.08300  0.97960  Biso   1.000  C
  C110     1.0000 0.44240  0.41700  0.47960  Biso   1.000  C
  C111     1.0000 0.91700  0.55760  0.22960  Biso   1.000  C
  C112     1.0000 0.58300  0.94240  0.72960  Biso   1.000  C
  H65      1.0000 0.10400  0.71150  0.09800  Biso   1.000  H
  H66      1.0000 0.39600  0.78850  0.59800  Biso   1.000  H
  H67      1.0000 0.28850  0.60400  0.34800  Biso   1.000  H
  H68      1.0000 0.21150  0.89600  0.84800  Biso   1.000  H
  H69      1.0000 0.60400  0.21150  0.59800  Biso   1.000  H
  H70      1.0000 0.89600  0.28850  0.09800  Biso   1.000  H
  H71      1.0000 0.78850  0.10400  0.84800  Biso   1.000  H
  H72      1.0000 0.71150  0.39600  0.34800  Biso   1.000  H
  H73      1.0000 0.13900  0.64600  0.10000  Biso   1.000  H
  H74      1.0000 0.36100  0.85400  0.60000  Biso   1.000  H
  H75      1.0000 0.35400  0.63900  0.35000  Biso   1.000  H
  H76      1.0000 0.14600  0.86100  0.85000  Biso   1.000  H
  H77      1.0000 0.63900  0.14600  0.60000  Biso   1.000  H
  H78      1.0000 0.86100  0.35400  0.10000  Biso   1.000  H
  H79      1.0000 0.85400  0.13900  0.85000  Biso   1.000  H
  H80      1.0000 0.64600  0.36100  0.35000  Biso   1.000  H
