data_image0
_cell_length_a       31.681
_cell_length_b       31.681
_cell_length_c       14.297
_cell_angle_alpha    90
_cell_angle_beta     90
_cell_angle_gamma    120

_symmetry_space_group_name_H-M    "P 1"
_symmetry_int_tables_number       1

loop_
  _symmetry_equiv_pos_as_xyz
  'x, y, z'

loop_
  _atom_site_label
  _atom_site_occupancy
  _atom_site_fract_x
  _atom_site_fract_y
  _atom_site_fract_z
  _atom_site_thermal_displace_type
  _atom_site_B_iso_or_equiv
  _atom_site_type_symbol
  Cu1      1.0000 0.15667  0.28835  0.31641  Biso   1.000  Cu
  Cu2      1.0000 0.71165  0.86832  0.31641  Biso   1.000  Cu
  Cu3      1.0000 0.13168  0.84333  0.31641  Biso   1.000  Cu
  Cu4      1.0000 0.82334  0.62168  0.64974  Biso   1.000  Cu
  Cu5      1.0000 0.37832  0.20165  0.64974  Biso   1.000  Cu
  Cu6      1.0000 0.79835  0.17666  0.64974  Biso   1.000  Cu
  Cu7      1.0000 0.49000  0.95502  0.98308  Biso   1.000  Cu
  Cu8      1.0000 0.04498  0.53499  0.98308  Biso   1.000  Cu
  Cu9      1.0000 0.46501  0.51000  0.98308  Biso   1.000  Cu
  Cu10     1.0000 0.84333  0.71165  0.68359  Biso   1.000  Cu
  Cu11     1.0000 0.28835  0.13168  0.68359  Biso   1.000  Cu
  Cu12     1.0000 0.86832  0.15667  0.68359  Biso   1.000  Cu
  Cu13     1.0000 0.51000  0.04498  0.01692  Biso   1.000  Cu
  Cu14     1.0000 0.95502  0.46501  0.01692  Biso   1.000  Cu
  Cu15     1.0000 0.53499  0.49000  0.01692  Biso   1.000  Cu
  Cu16     1.0000 0.17666  0.37832  0.35026  Biso   1.000  Cu
  Cu17     1.0000 0.62168  0.79835  0.35026  Biso   1.000  Cu
  Cu18     1.0000 0.20165  0.82334  0.35026  Biso   1.000  Cu
  O1       1.0000 0.13421  0.21384  0.28241  Biso   1.000  O
  O2       1.0000 0.78616  0.92037  0.28241  Biso   1.000  O
  O3       1.0000 0.07963  0.86579  0.28241  Biso   1.000  O
  O4       1.0000 0.80088  0.54717  0.61574  Biso   1.000  O
  O5       1.0000 0.45283  0.25370  0.61574  Biso   1.000  O
  O6       1.0000 0.74630  0.19912  0.61574  Biso   1.000  O
  O7       1.0000 0.46754  0.88051  0.94908  Biso   1.000  O
  O8       1.0000 0.11949  0.58704  0.94908  Biso   1.000  O
  O9       1.0000 0.41296  0.53246  0.94908  Biso   1.000  O
  O10      1.0000 0.86579  0.78616  0.71759  Biso   1.000  O
  O11      1.0000 0.21384  0.07963  0.71759  Biso   1.000  O
  O12      1.0000 0.92037  0.13421  0.71759  Biso   1.000  O
  O13      1.0000 0.53246  0.11949  0.05092  Biso   1.000  O
  O14      1.0000 0.88051  0.41296  0.05092  Biso   1.000  O
  O15      1.0000 0.58704  0.46754  0.05092  Biso   1.000  O
  O16      1.0000 0.19912  0.45283  0.38426  Biso   1.000  O
  O17      1.0000 0.54717  0.74630  0.38426  Biso   1.000  O
  O18      1.0000 0.25370  0.80088  0.38426  Biso   1.000  O
  O19      1.0000 0.45414  0.47113  0.86976  Biso   1.000  O
  O20      1.0000 0.52887  0.98301  0.86976  Biso   1.000  O
  O21      1.0000 0.01699  0.54586  0.86976  Biso   1.000  O
  O22      1.0000 0.12081  0.80446  0.20309  Biso   1.000  O
  O23      1.0000 0.19554  0.31634  0.20309  Biso   1.000  O
  O24      1.0000 0.68366  0.87919  0.20309  Biso   1.000  O
  O25      1.0000 0.78747  0.13780  0.53643  Biso   1.000  O
  O26      1.0000 0.86220  0.64968  0.53643  Biso   1.000  O
  O27      1.0000 0.35032  0.21253  0.53643  Biso   1.000  O
  O28      1.0000 0.54586  0.52887  0.13024  Biso   1.000  O
  O29      1.0000 0.47113  0.01699  0.13024  Biso   1.000  O
  O30      1.0000 0.98301  0.45414  0.13024  Biso   1.000  O
  O31      1.0000 0.21253  0.86220  0.46357  Biso   1.000  O
  O32      1.0000 0.13780  0.35032  0.46357  Biso   1.000  O
  O33      1.0000 0.64968  0.78747  0.46357  Biso   1.000  O
  O34      1.0000 0.87919  0.19554  0.79691  Biso   1.000  O
  O35      1.0000 0.80446  0.68366  0.79691  Biso   1.000  O
  O36      1.0000 0.31634  0.12081  0.79691  Biso   1.000  O
  O37      1.0000 0.51414  0.45489  0.89735  Biso   1.000  O
  O38      1.0000 0.54511  0.05925  0.89735  Biso   1.000  O
  O39      1.0000 0.94075  0.48586  0.89735  Biso   1.000  O
  O40      1.0000 0.18081  0.78822  0.23068  Biso   1.000  O
  O41      1.0000 0.21178  0.39258  0.23068  Biso   1.000  O
  O42      1.0000 0.60742  0.81919  0.23068  Biso   1.000  O
  O43      1.0000 0.84747  0.12156  0.56402  Biso   1.000  O
  O44      1.0000 0.87844  0.72592  0.56402  Biso   1.000  O
  O45      1.0000 0.27408  0.15253  0.56402  Biso   1.000  O
  O46      1.0000 0.48586  0.54511  0.10265  Biso   1.000  O
  O47      1.0000 0.45489  0.94075  0.10265  Biso   1.000  O
  O48      1.0000 0.05925  0.51414  0.10265  Biso   1.000  O
  O49      1.0000 0.15253  0.87844  0.43598  Biso   1.000  O
  O50      1.0000 0.12156  0.27408  0.43598  Biso   1.000  O
  O51      1.0000 0.72592  0.84747  0.43598  Biso   1.000  O
  O52      1.0000 0.81919  0.21178  0.76932  Biso   1.000  O
  O53      1.0000 0.78822  0.60742  0.76932  Biso   1.000  O
  O54      1.0000 0.39258  0.18081  0.76932  Biso   1.000  O
  O55      1.0000 0.23354  0.38215  0.41376  Biso   1.000  O
  O56      1.0000 0.61785  0.85139  0.41376  Biso   1.000  O
  O57      1.0000 0.14861  0.76646  0.41376  Biso   1.000  O
  O58      1.0000 0.90021  0.71548  0.74709  Biso   1.000  O
  O59      1.0000 0.28452  0.18472  0.74709  Biso   1.000  O
  O60      1.0000 0.81528  0.09979  0.74709  Biso   1.000  O
  O61      1.0000 0.56687  0.04882  0.08043  Biso   1.000  O
  O62      1.0000 0.95118  0.51806  0.08043  Biso   1.000  O
  O63      1.0000 0.48194  0.43313  0.08043  Biso   1.000  O
  O64      1.0000 0.76646  0.61785  0.58624  Biso   1.000  O
  O65      1.0000 0.38215  0.14861  0.58624  Biso   1.000  O
  O66      1.0000 0.85139  0.23354  0.58624  Biso   1.000  O
  O67      1.0000 0.43313  0.95118  0.91957  Biso   1.000  O
  O68      1.0000 0.04882  0.48194  0.91957  Biso   1.000  O
  O69      1.0000 0.51806  0.56687  0.91957  Biso   1.000  O
  O70      1.0000 0.09979  0.28452  0.25291  Biso   1.000  O
  O71      1.0000 0.71548  0.81528  0.25291  Biso   1.000  O
  O72      1.0000 0.18472  0.90021  0.25291  Biso   1.000  O
  O73      1.0000 0.21623  0.30589  0.38564  Biso   1.000  O
  O74      1.0000 0.69411  0.91034  0.38564  Biso   1.000  O
  O75      1.0000 0.08966  0.78377  0.38564  Biso   1.000  O
  O76      1.0000 0.88290  0.63922  0.71897  Biso   1.000  O
  O77      1.0000 0.36078  0.24367  0.71897  Biso   1.000  O
  O78      1.0000 0.75633  0.11710  0.71897  Biso   1.000  O
  O79      1.0000 0.54956  0.97256  0.05231  Biso   1.000  O
  O80      1.0000 0.02744  0.57701  0.05231  Biso   1.000  O
  O81      1.0000 0.42299  0.45044  0.05231  Biso   1.000  O
  O82      1.0000 0.78377  0.69411  0.61436  Biso   1.000  O
  O83      1.0000 0.30589  0.08966  0.61436  Biso   1.000  O
  O84      1.0000 0.91034  0.21623  0.61436  Biso   1.000  O
  O85      1.0000 0.45044  0.02744  0.94769  Biso   1.000  O
  O86      1.0000 0.97256  0.42299  0.94769  Biso   1.000  O
  O87      1.0000 0.57701  0.54956  0.94769  Biso   1.000  O
  O88      1.0000 0.11710  0.36078  0.28103  Biso   1.000  O
  O89      1.0000 0.63922  0.75633  0.28103  Biso   1.000  O
  O90      1.0000 0.24367  0.88290  0.28103  Biso   1.000  O
  C1       1.0000 0.47910  0.45210  0.85012  Biso   1.000  C
  C2       1.0000 0.54790  0.02700  0.85012  Biso   1.000  C
  C3       1.0000 0.97300  0.52090  0.85012  Biso   1.000  C
  C4       1.0000 0.14577  0.78543  0.18345  Biso   1.000  C
  C5       1.0000 0.21457  0.36033  0.18345  Biso   1.000  C
  C6       1.0000 0.63967  0.85423  0.18345  Biso   1.000  C
  C7       1.0000 0.81243  0.11877  0.51679  Biso   1.000  C
  C8       1.0000 0.88123  0.69367  0.51679  Biso   1.000  C
  C9       1.0000 0.30633  0.18757  0.51679  Biso   1.000  C
  C10      1.0000 0.52090  0.54790  0.14988  Biso   1.000  C
  C11      1.0000 0.45210  0.97300  0.14988  Biso   1.000  C
  C12      1.0000 0.02700  0.47910  0.14988  Biso   1.000  C
  C13      1.0000 0.18757  0.88123  0.48321  Biso   1.000  C
  C14      1.0000 0.11877  0.30633  0.48321  Biso   1.000  C
  C15      1.0000 0.69367  0.81243  0.48321  Biso   1.000  C
  C16      1.0000 0.85423  0.21457  0.81655  Biso   1.000  C
  C17      1.0000 0.78543  0.63967  0.81655  Biso   1.000  C
  C18      1.0000 0.36033  0.14577  0.81655  Biso   1.000  C
  C19      1.0000 0.46622  0.42159  0.76256  Biso   1.000  C
  C20      1.0000 0.57841  0.04463  0.76256  Biso   1.000  C
  C21      1.0000 0.95537  0.53378  0.76256  Biso   1.000  C
  C22      1.0000 0.13289  0.75492  0.09589  Biso   1.000  C
  C23      1.0000 0.24508  0.37796  0.09589  Biso   1.000  C
  C24      1.0000 0.62204  0.86711  0.09589  Biso   1.000  C
  C25      1.0000 0.79955  0.08826  0.42923  Biso   1.000  C
  C26      1.0000 0.91174  0.71130  0.42923  Biso   1.000  C
  C27      1.0000 0.28870  0.20045  0.42923  Biso   1.000  C
  C28      1.0000 0.53378  0.57841  0.23744  Biso   1.000  C
  C29      1.0000 0.42159  0.95537  0.23744  Biso   1.000  C
  C30      1.0000 0.04463  0.46622  0.23744  Biso   1.000  C
  C31      1.0000 0.20045  0.91174  0.57077  Biso   1.000  C
  C32      1.0000 0.08826  0.28870  0.57077  Biso   1.000  C
  C33      1.0000 0.71130  0.79955  0.57077  Biso   1.000  C
  C34      1.0000 0.86711  0.24508  0.90411  Biso   1.000  C
  C35      1.0000 0.75492  0.62204  0.90411  Biso   1.000  C
  C36      1.0000 0.37796  0.13289  0.90411  Biso   1.000  C
  C37      1.0000 0.42726  0.41506  0.70903  Biso   1.000  C
  C38      1.0000 0.58494  0.01220  0.70903  Biso   1.000  C
  C39      1.0000 0.98780  0.57274  0.70903  Biso   1.000  C
  C40      1.0000 0.09393  0.74839  0.04236  Biso   1.000  C
  C41      1.0000 0.25161  0.34553  0.04236  Biso   1.000  C
  C42      1.0000 0.65447  0.90607  0.04236  Biso   1.000  C
  C43      1.0000 0.76059  0.08173  0.37570  Biso   1.000  C
  C44      1.0000 0.91827  0.67887  0.37570  Biso   1.000  C
  C45      1.0000 0.32113  0.23941  0.37570  Biso   1.000  C
  C46      1.0000 0.57274  0.58494  0.29097  Biso   1.000  C
  C47      1.0000 0.41506  0.98780  0.29097  Biso   1.000  C
  C48      1.0000 0.01220  0.42726  0.29097  Biso   1.000  C
  C49      1.0000 0.23941  0.91827  0.62430  Biso   1.000  C
  C50      1.0000 0.08173  0.32113  0.62430  Biso   1.000  C
  C51      1.0000 0.67887  0.76059  0.62430  Biso   1.000  C
  C52      1.0000 0.90607  0.25161  0.95764  Biso   1.000  C
  C53      1.0000 0.74839  0.65447  0.95764  Biso   1.000  C
  C54      1.0000 0.34553  0.09393  0.95764  Biso   1.000  C
  H1       1.0000 0.41070  0.43150  0.72450  Biso   1.000  H
  H2       1.0000 0.56850  0.97920  0.72450  Biso   1.000  H
  H3       1.0000 0.02080  0.58930  0.72450  Biso   1.000  H
  H4       1.0000 0.07737  0.76483  0.05783  Biso   1.000  H
  H5       1.0000 0.23517  0.31253  0.05783  Biso   1.000  H
  H6       1.0000 0.68747  0.92263  0.05783  Biso   1.000  H
  H7       1.0000 0.74403  0.09817  0.39117  Biso   1.000  H
  H8       1.0000 0.90183  0.64587  0.39117  Biso   1.000  H
  H9       1.0000 0.35413  0.25597  0.39117  Biso   1.000  H
  H10      1.0000 0.58930  0.56850  0.27550  Biso   1.000  H
  H11      1.0000 0.43150  0.02080  0.27550  Biso   1.000  H
  H12      1.0000 0.97920  0.41070  0.27550  Biso   1.000  H
  H13      1.0000 0.25597  0.90183  0.60883  Biso   1.000  H
  H14      1.0000 0.09817  0.35413  0.60883  Biso   1.000  H
  H15      1.0000 0.64587  0.74403  0.60883  Biso   1.000  H
  H16      1.0000 0.92263  0.23517  0.94217  Biso   1.000  H
  H17      1.0000 0.76483  0.68747  0.94217  Biso   1.000  H
  H18      1.0000 0.31253  0.07737  0.94217  Biso   1.000  H
  C55      1.0000 0.41234  0.38384  0.63154  Biso   1.000  C
  C56      1.0000 0.61616  0.02850  0.63154  Biso   1.000  C
  C57      1.0000 0.97150  0.58766  0.63154  Biso   1.000  C
  C58      1.0000 0.07901  0.71717  0.96487  Biso   1.000  C
  C59      1.0000 0.28283  0.36183  0.96487  Biso   1.000  C
  C60      1.0000 0.63817  0.92099  0.96487  Biso   1.000  C
  C61      1.0000 0.74567  0.05051  0.29821  Biso   1.000  C
  C62      1.0000 0.94949  0.69517  0.29821  Biso   1.000  C
  C63      1.0000 0.30483  0.25433  0.29821  Biso   1.000  C
  C64      1.0000 0.58766  0.61616  0.36846  Biso   1.000  C
  C65      1.0000 0.38384  0.97150  0.36846  Biso   1.000  C
  C66      1.0000 0.02850  0.41234  0.36846  Biso   1.000  C
  C67      1.0000 0.25433  0.94949  0.70179  Biso   1.000  C
  C68      1.0000 0.05051  0.30483  0.70179  Biso   1.000  C
  C69      1.0000 0.69517  0.74567  0.70179  Biso   1.000  C
  C70      1.0000 0.92099  0.28283  0.03513  Biso   1.000  C
  C71      1.0000 0.71717  0.63817  0.03513  Biso   1.000  C
  C72      1.0000 0.36183  0.07901  0.03513  Biso   1.000  C
  C73      1.0000 0.43775  0.36094  0.60948  Biso   1.000  C
  C74      1.0000 0.63906  0.07681  0.60948  Biso   1.000  C
  C75      1.0000 0.92319  0.56225  0.60948  Biso   1.000  C
  C76      1.0000 0.10442  0.69427  0.94281  Biso   1.000  C
  C77      1.0000 0.30573  0.41014  0.94281  Biso   1.000  C
  C78      1.0000 0.58986  0.89558  0.94281  Biso   1.000  C
  C79      1.0000 0.77108  0.02761  0.27615  Biso   1.000  C
  C80      1.0000 0.97239  0.74348  0.27615  Biso   1.000  C
  C81      1.0000 0.25652  0.22892  0.27615  Biso   1.000  C
  C82      1.0000 0.56225  0.63906  0.39052  Biso   1.000  C
  C83      1.0000 0.36094  0.92319  0.39052  Biso   1.000  C
  C84      1.0000 0.07681  0.43775  0.39052  Biso   1.000  C
  C85      1.0000 0.22892  0.97239  0.72385  Biso   1.000  C
  C86      1.0000 0.02761  0.25652  0.72385  Biso   1.000  C
  C87      1.0000 0.74348  0.77108  0.72385  Biso   1.000  C
  C88      1.0000 0.89558  0.30573  0.05719  Biso   1.000  C
  C89      1.0000 0.69427  0.58986  0.05719  Biso   1.000  C
  C90      1.0000 0.41014  0.10442  0.05719  Biso   1.000  C
  H19      1.0000 0.42810  0.33990  0.55860  Biso   1.000  H
  H20      1.0000 0.66010  0.08820  0.55860  Biso   1.000  H
  H21      1.0000 0.91180  0.57190  0.55860  Biso   1.000  H
  H22      1.0000 0.09477  0.67323  0.89193  Biso   1.000  H
  H23      1.0000 0.32677  0.42153  0.89193  Biso   1.000  H
  H24      1.0000 0.57847  0.90523  0.89193  Biso   1.000  H
  H25      1.0000 0.76143  0.00657  0.22527  Biso   1.000  H
  H26      1.0000 0.99343  0.75487  0.22527  Biso   1.000  H
  H27      1.0000 0.24513  0.23857  0.22527  Biso   1.000  H
  H28      1.0000 0.57190  0.66010  0.44140  Biso   1.000  H
  H29      1.0000 0.33990  0.91180  0.44140  Biso   1.000  H
  H30      1.0000 0.08820  0.42810  0.44140  Biso   1.000  H
  H31      1.0000 0.23857  0.99343  0.77473  Biso   1.000  H
  H32      1.0000 0.00657  0.24513  0.77473  Biso   1.000  H
  H33      1.0000 0.75487  0.76143  0.77473  Biso   1.000  H
  H34      1.0000 0.90523  0.32677  0.10807  Biso   1.000  H
  H35      1.0000 0.67323  0.57847  0.10807  Biso   1.000  H
  H36      1.0000 0.42153  0.09477  0.10807  Biso   1.000  H
  C91      1.0000 0.47776  0.36871  0.66230  Biso   1.000  C
  C92      1.0000 0.63129  0.10905  0.66230  Biso   1.000  C
  C93      1.0000 0.89095  0.52224  0.66230  Biso   1.000  C
  C94      1.0000 0.14443  0.70204  0.99563  Biso   1.000  C
  C95      1.0000 0.29796  0.44238  0.99563  Biso   1.000  C
  C96      1.0000 0.55762  0.85557  0.99563  Biso   1.000  C
  C97      1.0000 0.81109  0.03538  0.32897  Biso   1.000  C
  C98      1.0000 0.96462  0.77572  0.32897  Biso   1.000  C
  C99      1.0000 0.22428  0.18891  0.32897  Biso   1.000  C
  C100     1.0000 0.52224  0.63129  0.33770  Biso   1.000  C
  C101     1.0000 0.36871  0.89095  0.33770  Biso   1.000  C
  C102     1.0000 0.10905  0.47776  0.33770  Biso   1.000  C
  C103     1.0000 0.18891  0.96462  0.67103  Biso   1.000  C
  C104     1.0000 0.03538  0.22428  0.67103  Biso   1.000  C
  C105     1.0000 0.77572  0.81109  0.67103  Biso   1.000  C
  C106     1.0000 0.85557  0.29796  0.00437  Biso   1.000  C
  C107     1.0000 0.70204  0.55762  0.00437  Biso   1.000  C
  C108     1.0000 0.44238  0.14443  0.00437  Biso   1.000  C
  H37      1.0000 0.49520  0.35350  0.64540  Biso   1.000  H
  H38      1.0000 0.64650  0.14170  0.64540  Biso   1.000  H
  H39      1.0000 0.85830  0.50480  0.64540  Biso   1.000  H
  H40      1.0000 0.16187  0.68683  0.97873  Biso   1.000  H
  H41      1.0000 0.31317  0.47503  0.97873  Biso   1.000  H
  H42      1.0000 0.52497  0.83813  0.97873  Biso   1.000  H
  H43      1.0000 0.82853  0.02017  0.31207  Biso   1.000  H
  H44      1.0000 0.97983  0.80837  0.31207  Biso   1.000  H
  H45      1.0000 0.19163  0.17147  0.31207  Biso   1.000  H
  H46      1.0000 0.50480  0.64650  0.35460  Biso   1.000  H
  H47      1.0000 0.35350  0.85830  0.35460  Biso   1.000  H
  H48      1.0000 0.14170  0.49520  0.35460  Biso   1.000  H
  H49      1.0000 0.17147  0.97983  0.68793  Biso   1.000  H
  H50      1.0000 0.02017  0.19163  0.68793  Biso   1.000  H
  H51      1.0000 0.80837  0.82853  0.68793  Biso   1.000  H
  H52      1.0000 0.83813  0.31317  0.02127  Biso   1.000  H
  H53      1.0000 0.68683  0.52497  0.02127  Biso   1.000  H
  H54      1.0000 0.47503  0.16187  0.02127  Biso   1.000  H
  C109     1.0000 0.49166  0.39839  0.73838  Biso   1.000  C
  C110     1.0000 0.60161  0.09327  0.73838  Biso   1.000  C
  C111     1.0000 0.90673  0.50834  0.73838  Biso   1.000  C
  C112     1.0000 0.15833  0.73172  0.07171  Biso   1.000  C
  C113     1.0000 0.26828  0.42660  0.07171  Biso   1.000  C
  C114     1.0000 0.57340  0.84167  0.07171  Biso   1.000  C
  C115     1.0000 0.82499  0.06506  0.40505  Biso   1.000  C
  C116     1.0000 0.93494  0.75994  0.40505  Biso   1.000  C
  C117     1.0000 0.24006  0.17501  0.40505  Biso   1.000  C
  C118     1.0000 0.50834  0.60161  0.26162  Biso   1.000  C
  C119     1.0000 0.39839  0.90673  0.26162  Biso   1.000  C
  C120     1.0000 0.09327  0.49166  0.26162  Biso   1.000  C
  C121     1.0000 0.17501  0.93494  0.59495  Biso   1.000  C
  C122     1.0000 0.06506  0.24006  0.59495  Biso   1.000  C
  C123     1.0000 0.75994  0.82499  0.59495  Biso   1.000  C
  C124     1.0000 0.84167  0.26828  0.92829  Biso   1.000  C
  C125     1.0000 0.73172  0.57340  0.92829  Biso   1.000  C
  C126     1.0000 0.42660  0.15833  0.92829  Biso   1.000  C
  H55      1.0000 0.51820  0.40310  0.77400  Biso   1.000  H
  H56      1.0000 0.59690  0.11510  0.77400  Biso   1.000  H
  H57      1.0000 0.88490  0.48180  0.77400  Biso   1.000  H
  H58      1.0000 0.18487  0.73643  0.10733  Biso   1.000  H
  H59      1.0000 0.26357  0.44843  0.10733  Biso   1.000  H
  H60      1.0000 0.55157  0.81513  0.10733  Biso   1.000  H
  H61      1.0000 0.85153  0.06977  0.44067  Biso   1.000  H
  H62      1.0000 0.93023  0.78177  0.44067  Biso   1.000  H
  H63      1.0000 0.21823  0.14847  0.44067  Biso   1.000  H
  H64      1.0000 0.48180  0.59690  0.22600  Biso   1.000  H
  H65      1.0000 0.40310  0.88490  0.22600  Biso   1.000  H
  H66      1.0000 0.11510  0.51820  0.22600  Biso   1.000  H
  H67      1.0000 0.14847  0.93023  0.55933  Biso   1.000  H
  H68      1.0000 0.06977  0.21823  0.55933  Biso   1.000  H
  H69      1.0000 0.78177  0.85153  0.55933  Biso   1.000  H
  H70      1.0000 0.81513  0.26357  0.89267  Biso   1.000  H
  H71      1.0000 0.73643  0.55157  0.89267  Biso   1.000  H
  H72      1.0000 0.44843  0.18487  0.89267  Biso   1.000  H
  C127     1.0000 0.36870  0.37479  0.57751  Biso   1.000  C
  C128     1.0000 0.62521  0.99391  0.57751  Biso   1.000  C
  C129     1.0000 0.00609  0.63130  0.57751  Biso   1.000  C
  C130     1.0000 0.03537  0.70812  0.91084  Biso   1.000  C
  C131     1.0000 0.29188  0.32724  0.91084  Biso   1.000  C
  C132     1.0000 0.67276  0.96463  0.91084  Biso   1.000  C
  C133     1.0000 0.70203  0.04146  0.24418  Biso   1.000  C
  C134     1.0000 0.95854  0.66058  0.24418  Biso   1.000  C
  C135     1.0000 0.33942  0.29797  0.24418  Biso   1.000  C
  C136     1.0000 0.63130  0.62521  0.42249  Biso   1.000  C
  C137     1.0000 0.37479  0.00609  0.42249  Biso   1.000  C
  C138     1.0000 0.99391  0.36870  0.42249  Biso   1.000  C
  C139     1.0000 0.29797  0.95854  0.75582  Biso   1.000  C
  C140     1.0000 0.04146  0.33942  0.75582  Biso   1.000  C
  C141     1.0000 0.66058  0.70203  0.75582  Biso   1.000  C
  C142     1.0000 0.96463  0.29188  0.08916  Biso   1.000  C
  C143     1.0000 0.70812  0.67276  0.08916  Biso   1.000  C
  C144     1.0000 0.32724  0.03537  0.08916  Biso   1.000  C
  C145     1.0000 0.35693  0.41099  0.56271  Biso   1.000  C
  C146     1.0000 0.58901  0.94594  0.56271  Biso   1.000  C
  C147     1.0000 0.05406  0.64307  0.56271  Biso   1.000  C
  C148     1.0000 0.02360  0.74432  0.89604  Biso   1.000  C
  C149     1.0000 0.25568  0.27927  0.89604  Biso   1.000  C
  C150     1.0000 0.72073  0.97640  0.89604  Biso   1.000  C
  C151     1.0000 0.69026  0.07766  0.22938  Biso   1.000  C
  C152     1.0000 0.92234  0.61261  0.22938  Biso   1.000  C
  C153     1.0000 0.38739  0.30974  0.22938  Biso   1.000  C
  C154     1.0000 0.64307  0.58901  0.43729  Biso   1.000  C
  C155     1.0000 0.41099  0.05406  0.43729  Biso   1.000  C
  C156     1.0000 0.94594  0.35693  0.43729  Biso   1.000  C
  C157     1.0000 0.30974  0.92234  0.77062  Biso   1.000  C
  C158     1.0000 0.07766  0.38739  0.77062  Biso   1.000  C
  C159     1.0000 0.61261  0.69026  0.77062  Biso   1.000  C
  C160     1.0000 0.97640  0.25568  0.10396  Biso   1.000  C
  C161     1.0000 0.74432  0.72073  0.10396  Biso   1.000  C
  C162     1.0000 0.27927  0.02360  0.10396  Biso   1.000  C
  H73      1.0000 0.37680  0.44180  0.58820  Biso   1.000  H
  H74      1.0000 0.55820  0.93500  0.58820  Biso   1.000  H
  H75      1.0000 0.06500  0.62320  0.58820  Biso   1.000  H
  H76      1.0000 0.04347  0.77513  0.92153  Biso   1.000  H
  H77      1.0000 0.22487  0.26833  0.92153  Biso   1.000  H
  H78      1.0000 0.73167  0.95653  0.92153  Biso   1.000  H
  H79      1.0000 0.71013  0.10847  0.25487  Biso   1.000  H
  H80      1.0000 0.89153  0.60167  0.25487  Biso   1.000  H
  H81      1.0000 0.39833  0.28987  0.25487  Biso   1.000  H
  H82      1.0000 0.62320  0.55820  0.41180  Biso   1.000  H
  H83      1.0000 0.44180  0.06500  0.41180  Biso   1.000  H
  H84      1.0000 0.93500  0.37680  0.41180  Biso   1.000  H
  H85      1.0000 0.28987  0.89153  0.74513  Biso   1.000  H
  H86      1.0000 0.10847  0.39833  0.74513  Biso   1.000  H
  H87      1.0000 0.60167  0.71013  0.74513  Biso   1.000  H
  H88      1.0000 0.95653  0.22487  0.07847  Biso   1.000  H
  H89      1.0000 0.77513  0.73167  0.07847  Biso   1.000  H
  H90      1.0000 0.26833  0.04347  0.07847  Biso   1.000  H
  C163     1.0000 0.31705  0.40279  0.51189  Biso   1.000  C
  C164     1.0000 0.59721  0.91426  0.51189  Biso   1.000  C
  C165     1.0000 0.08574  0.68295  0.51189  Biso   1.000  C
  C166     1.0000 0.98372  0.73612  0.84522  Biso   1.000  C
  C167     1.0000 0.26388  0.24759  0.84522  Biso   1.000  C
  C168     1.0000 0.75241  0.01628  0.84522  Biso   1.000  C
  C169     1.0000 0.65038  0.06946  0.17856  Biso   1.000  C
  C170     1.0000 0.93054  0.58093  0.17856  Biso   1.000  C
  C171     1.0000 0.41907  0.34962  0.17856  Biso   1.000  C
  C172     1.0000 0.68295  0.59721  0.48811  Biso   1.000  C
  C173     1.0000 0.40279  0.08574  0.48811  Biso   1.000  C
  C174     1.0000 0.91426  0.31705  0.48811  Biso   1.000  C
  C175     1.0000 0.34962  0.93054  0.82144  Biso   1.000  C
  C176     1.0000 0.06946  0.41907  0.82144  Biso   1.000  C
  C177     1.0000 0.58093  0.65038  0.82144  Biso   1.000  C
  C178     1.0000 0.01628  0.26388  0.15478  Biso   1.000  C
  C179     1.0000 0.73612  0.75241  0.15478  Biso   1.000  C
  C180     1.0000 0.24759  0.98372  0.15478  Biso   1.000  C
  H91      1.0000 0.31040  0.42800  0.50240  Biso   1.000  H
  H92      1.0000 0.57200  0.88240  0.50240  Biso   1.000  H
  H93      1.0000 0.11760  0.68960  0.50240  Biso   1.000  H
  H94      1.0000 0.97707  0.76133  0.83573  Biso   1.000  H
  H95      1.0000 0.23867  0.21573  0.83573  Biso   1.000  H
  H96      1.0000 0.78427  0.02293  0.83573  Biso   1.000  H
  H97      1.0000 0.64373  0.09467  0.16907  Biso   1.000  H
  H98      1.0000 0.90533  0.54907  0.16907  Biso   1.000  H
  H99      1.0000 0.45093  0.35627  0.16907  Biso   1.000  H
  H100     1.0000 0.68960  0.57200  0.49760  Biso   1.000  H
  H101     1.0000 0.42800  0.11760  0.49760  Biso   1.000  H
  H102     1.0000 0.88240  0.31040  0.49760  Biso   1.000  H
  H103     1.0000 0.35627  0.90533  0.83093  Biso   1.000  H
  H104     1.0000 0.09467  0.45093  0.83093  Biso   1.000  H
  H105     1.0000 0.54907  0.64373  0.83093  Biso   1.000  H
  H106     1.0000 0.02293  0.23867  0.16427  Biso   1.000  H
  H107     1.0000 0.76133  0.78427  0.16427  Biso   1.000  H
  H108     1.0000 0.21573  0.97707  0.16427  Biso   1.000  H
  C181     1.0000 0.28617  0.35704  0.47429  Biso   1.000  C
  C182     1.0000 0.64296  0.92913  0.47429  Biso   1.000  C
  C183     1.0000 0.07087  0.71383  0.47429  Biso   1.000  C
  C184     1.0000 0.95284  0.69037  0.80762  Biso   1.000  C
  C185     1.0000 0.30963  0.26246  0.80762  Biso   1.000  C
  C186     1.0000 0.73754  0.04716  0.80762  Biso   1.000  C
  C187     1.0000 0.61950  0.02371  0.14096  Biso   1.000  C
  C188     1.0000 0.97629  0.59580  0.14096  Biso   1.000  C
  C189     1.0000 0.40420  0.38050  0.14096  Biso   1.000  C
  C190     1.0000 0.71383  0.64296  0.52571  Biso   1.000  C
  C191     1.0000 0.35704  0.07087  0.52571  Biso   1.000  C
  C192     1.0000 0.92913  0.28617  0.52571  Biso   1.000  C
  C193     1.0000 0.38050  0.97629  0.85904  Biso   1.000  C
  C194     1.0000 0.02371  0.40420  0.85904  Biso   1.000  C
  C195     1.0000 0.59580  0.61950  0.85904  Biso   1.000  C
  C196     1.0000 0.04716  0.30963  0.19238  Biso   1.000  C
  C197     1.0000 0.69037  0.73754  0.19238  Biso   1.000  C
  C198     1.0000 0.26246  0.95284  0.19238  Biso   1.000  C
  C199     1.0000 0.29705  0.32072  0.48929  Biso   1.000  C
  C200     1.0000 0.67928  0.97633  0.48929  Biso   1.000  C
  C201     1.0000 0.02367  0.70295  0.48929  Biso   1.000  C
  C202     1.0000 0.96372  0.65405  0.82262  Biso   1.000  C
  C203     1.0000 0.34595  0.30966  0.82262  Biso   1.000  C
  C204     1.0000 0.69034  0.03628  0.82262  Biso   1.000  C
  C205     1.0000 0.63038  0.98739  0.15596  Biso   1.000  C
  C206     1.0000 0.01261  0.64300  0.15596  Biso   1.000  C
  C207     1.0000 0.35700  0.36962  0.15596  Biso   1.000  C
  C208     1.0000 0.70295  0.67928  0.51071  Biso   1.000  C
  C209     1.0000 0.32072  0.02367  0.51071  Biso   1.000  C
  C210     1.0000 0.97633  0.29705  0.51071  Biso   1.000  C
  C211     1.0000 0.36962  0.01261  0.84404  Biso   1.000  C
  C212     1.0000 0.98739  0.35700  0.84404  Biso   1.000  C
  C213     1.0000 0.64300  0.63038  0.84404  Biso   1.000  C
  C214     1.0000 0.03628  0.34595  0.17738  Biso   1.000  C
  C215     1.0000 0.65405  0.69034  0.17738  Biso   1.000  C
  C216     1.0000 0.30966  0.96372  0.17738  Biso   1.000  C
  H109     1.0000 0.27670  0.28990  0.46470  Biso   1.000  H
  H110     1.0000 0.71010  0.98680  0.46470  Biso   1.000  H
  H111     1.0000 0.01320  0.72330  0.46470  Biso   1.000  H
  H112     1.0000 0.94337  0.62323  0.79803  Biso   1.000  H
  H113     1.0000 0.37677  0.32013  0.79803  Biso   1.000  H
  H114     1.0000 0.67987  0.05663  0.79803  Biso   1.000  H
  H115     1.0000 0.61003  0.95657  0.13137  Biso   1.000  H
  H116     1.0000 0.04343  0.65347  0.13137  Biso   1.000  H
  H117     1.0000 0.34653  0.38997  0.13137  Biso   1.000  H
  H118     1.0000 0.72330  0.71010  0.53530  Biso   1.000  H
  H119     1.0000 0.28990  0.01320  0.53530  Biso   1.000  H
  H120     1.0000 0.98680  0.27670  0.53530  Biso   1.000  H
  H121     1.0000 0.38997  0.04343  0.86863  Biso   1.000  H
  H122     1.0000 0.95657  0.34653  0.86863  Biso   1.000  H
  H123     1.0000 0.65347  0.61003  0.86863  Biso   1.000  H
  H124     1.0000 0.05663  0.37677  0.20197  Biso   1.000  H
  H125     1.0000 0.62323  0.67987  0.20197  Biso   1.000  H
  H126     1.0000 0.32013  0.94337  0.20197  Biso   1.000  H
  C217     1.0000 0.33753  0.32902  0.54008  Biso   1.000  C
  C218     1.0000 0.67098  0.00851  0.54008  Biso   1.000  C
  C219     1.0000 0.99149  0.66247  0.54008  Biso   1.000  C
  C220     1.0000 0.00420  0.66235  0.87341  Biso   1.000  C
  C221     1.0000 0.33765  0.34184  0.87341  Biso   1.000  C
  C222     1.0000 0.65816  0.99580  0.87341  Biso   1.000  C
  C223     1.0000 0.67086  0.99569  0.20675  Biso   1.000  C
  C224     1.0000 0.00431  0.67518  0.20675  Biso   1.000  C
  C225     1.0000 0.32482  0.32914  0.20675  Biso   1.000  C
  C226     1.0000 0.66247  0.67098  0.45992  Biso   1.000  C
  C227     1.0000 0.32902  0.99149  0.45992  Biso   1.000  C
  C228     1.0000 0.00851  0.33753  0.45992  Biso   1.000  C
  C229     1.0000 0.32914  0.00431  0.79325  Biso   1.000  C
  C230     1.0000 0.99569  0.32482  0.79325  Biso   1.000  C
  C231     1.0000 0.67518  0.67086  0.79325  Biso   1.000  C
  C232     1.0000 0.99580  0.33765  0.12659  Biso   1.000  C
  C233     1.0000 0.66235  0.65816  0.12659  Biso   1.000  C
  C234     1.0000 0.34184  0.00420  0.12659  Biso   1.000  C
  H127     1.0000 0.34400  0.30380  0.54940  Biso   1.000  H
  H128     1.0000 0.69620  0.04020  0.54940  Biso   1.000  H
  H129     1.0000 0.95980  0.65600  0.54940  Biso   1.000  H
  H130     1.0000 0.01067  0.63713  0.88273  Biso   1.000  H
  H131     1.0000 0.36287  0.37353  0.88273  Biso   1.000  H
  H132     1.0000 0.62647  0.98933  0.88273  Biso   1.000  H
  H133     1.0000 0.67733  0.97047  0.21607  Biso   1.000  H
  H134     1.0000 0.02953  0.70687  0.21607  Biso   1.000  H
  H135     1.0000 0.29313  0.32267  0.21607  Biso   1.000  H
  H136     1.0000 0.65600  0.69620  0.45060  Biso   1.000  H
  H137     1.0000 0.30380  0.95980  0.45060  Biso   1.000  H
  H138     1.0000 0.04020  0.34400  0.45060  Biso   1.000  H
  H139     1.0000 0.32267  0.02953  0.78393  Biso   1.000  H
  H140     1.0000 0.97047  0.29313  0.78393  Biso   1.000  H
  H141     1.0000 0.70687  0.67733  0.78393  Biso   1.000  H
  H142     1.0000 0.98933  0.36287  0.11727  Biso   1.000  H
  H143     1.0000 0.63713  0.62647  0.11727  Biso   1.000  H
  H144     1.0000 0.37353  0.01067  0.11727  Biso   1.000  H
  C235     1.0000 0.24175  0.34755  0.41938  Biso   1.000  C
  C236     1.0000 0.65245  0.89420  0.41938  Biso   1.000  C
  C237     1.0000 0.10580  0.75825  0.41938  Biso   1.000  C
  C238     1.0000 0.90842  0.68088  0.75271  Biso   1.000  C
  C239     1.0000 0.31912  0.22753  0.75271  Biso   1.000  C
  C240     1.0000 0.77247  0.09158  0.75271  Biso   1.000  C
  C241     1.0000 0.57508  0.01422  0.08605  Biso   1.000  C
  C242     1.0000 0.98578  0.56087  0.08605  Biso   1.000  C
  C243     1.0000 0.43913  0.42492  0.08605  Biso   1.000  C
  C244     1.0000 0.75825  0.65245  0.58062  Biso   1.000  C
  C245     1.0000 0.34755  0.10580  0.58062  Biso   1.000  C
  C246     1.0000 0.89420  0.24175  0.58062  Biso   1.000  C
  C247     1.0000 0.42492  0.98578  0.91395  Biso   1.000  C
  C248     1.0000 0.01422  0.43913  0.91395  Biso   1.000  C
  C249     1.0000 0.56087  0.57508  0.91395  Biso   1.000  C
  C250     1.0000 0.09158  0.31912  0.24729  Biso   1.000  C
  C251     1.0000 0.68088  0.77247  0.24729  Biso   1.000  C
  C252     1.0000 0.22753  0.90842  0.24729  Biso   1.000  C
  H145     1.0000 0.12500  0.19700  0.23400  Biso   1.000  H
  H146     1.0000 0.80300  0.92800  0.23400  Biso   1.000  H
  H147     1.0000 0.07200  0.87500  0.23400  Biso   1.000  H
  H148     1.0000 0.79167  0.53033  0.56733  Biso   1.000  H
  H149     1.0000 0.46967  0.26133  0.56733  Biso   1.000  H
  H150     1.0000 0.73867  0.20833  0.56733  Biso   1.000  H
  H151     1.0000 0.45833  0.86367  0.90067  Biso   1.000  H
  H152     1.0000 0.13633  0.59467  0.90067  Biso   1.000  H
  H153     1.0000 0.40533  0.54167  0.90067  Biso   1.000  H
  H154     1.0000 0.87500  0.80300  0.76600  Biso   1.000  H
  H155     1.0000 0.19700  0.07200  0.76600  Biso   1.000  H
  H156     1.0000 0.92800  0.12500  0.76600  Biso   1.000  H
  H157     1.0000 0.54167  0.13633  0.09933  Biso   1.000  H
  H158     1.0000 0.86367  0.40533  0.09933  Biso   1.000  H
  H159     1.0000 0.59467  0.45833  0.09933  Biso   1.000  H
  H160     1.0000 0.20833  0.46967  0.43267  Biso   1.000  H
  H161     1.0000 0.53033  0.73867  0.43267  Biso   1.000  H
  H162     1.0000 0.26133  0.79167  0.43267  Biso   1.000  H
  H163     1.0000 0.13200  0.19600  0.32700  Biso   1.000  H
  H164     1.0000 0.80400  0.93600  0.32700  Biso   1.000  H
  H165     1.0000 0.06400  0.86800  0.32700  Biso   1.000  H
  H166     1.0000 0.79867  0.52933  0.66033  Biso   1.000  H
  H167     1.0000 0.47067  0.26933  0.66033  Biso   1.000  H
  H168     1.0000 0.73067  0.20133  0.66033  Biso   1.000  H
  H169     1.0000 0.46533  0.86267  0.99367  Biso   1.000  H
  H170     1.0000 0.13733  0.60267  0.99367  Biso   1.000  H
  H171     1.0000 0.39733  0.53467  0.99367  Biso   1.000  H
  H172     1.0000 0.86800  0.80400  0.67300  Biso   1.000  H
  H173     1.0000 0.19600  0.06400  0.67300  Biso   1.000  H
  H174     1.0000 0.93600  0.13200  0.67300  Biso   1.000  H
  H175     1.0000 0.53467  0.13733  0.00633  Biso   1.000  H
  H176     1.0000 0.86267  0.39733  0.00633  Biso   1.000  H
  H177     1.0000 0.60267  0.46533  0.00633  Biso   1.000  H
  H178     1.0000 0.20133  0.47067  0.33967  Biso   1.000  H
  H179     1.0000 0.52933  0.73067  0.33967  Biso   1.000  H
  H180     1.0000 0.26933  0.79867  0.33967  Biso   1.000  H
