data_image0
_cell_length_a       9.2109
_cell_length_b       7.8009
_cell_length_c       24.863
_cell_angle_alpha    90
_cell_angle_beta     96.826
_cell_angle_gamma    90

_symmetry_space_group_name_H-M    "P 1"
_symmetry_int_tables_number       1

loop_
  _symmetry_equiv_pos_as_xyz
  'x, y, z'

loop_
  _atom_site_label
  _atom_site_occupancy
  _atom_site_fract_x
  _atom_site_fract_y
  _atom_site_fract_z
  _atom_site_thermal_displace_type
  _atom_site_B_iso_or_equiv
  _atom_site_type_symbol
  Cu1      1.0000 0.22239  0.21719  0.29281  Biso   1.000  Cu
  Cu2      1.0000 0.77761  0.71719  0.20719  Biso   1.000  Cu
  Cu3      1.0000 0.77761  0.78281  0.70719  Biso   1.000  Cu
  Cu4      1.0000 0.22239  0.28281  0.79281  Biso   1.000  Cu
  O1       1.0000 0.23260  0.96760  0.55953  Biso   1.000  O
  O2       1.0000 0.76740  0.46760  0.94047  Biso   1.000  O
  O3       1.0000 0.76740  0.03240  0.44047  Biso   1.000  O
  O4       1.0000 0.23260  0.53240  0.05953  Biso   1.000  O
  O5       1.0000 0.24098  0.47150  0.45850  Biso   1.000  O
  O6       1.0000 0.75902  0.97150  0.04150  Biso   1.000  O
  O7       1.0000 0.75902  0.52850  0.54150  Biso   1.000  O
  O8       1.0000 0.24098  0.02850  0.95850  Biso   1.000  O
  O9       1.0000 0.06825  0.36980  0.31196  Biso   1.000  O
  O10      1.0000 0.93175  0.86980  0.18804  Biso   1.000  O
  O11      1.0000 0.93175  0.63020  0.68804  Biso   1.000  O
  O12      1.0000 0.06825  0.13020  0.81196  Biso   1.000  O
  O13      1.0000 0.92089  0.57380  0.27547  Biso   1.000  O
  O14      1.0000 0.07911  0.07380  0.22453  Biso   1.000  O
  O15      1.0000 0.07911  0.42620  0.72453  Biso   1.000  O
  O16      1.0000 0.92089  0.92620  0.77547  Biso   1.000  O
  O17      1.0000 0.39858  0.11530  0.26919  Biso   1.000  O
  O18      1.0000 0.60142  0.61530  0.23081  Biso   1.000  O
  O19      1.0000 0.60142  0.88470  0.73081  Biso   1.000  O
  O20      1.0000 0.39858  0.38470  0.76919  Biso   1.000  O
  O21      1.0000 0.52953  0.12610  0.19972  Biso   1.000  O
  O22      1.0000 0.47047  0.62610  0.30028  Biso   1.000  O
  O23      1.0000 0.47047  0.87390  0.80028  Biso   1.000  O
  O24      1.0000 0.52953  0.37390  0.69972  Biso   1.000  O
  N1       1.0000 0.24810  0.81190  0.54588  Biso   1.000  N
  N2       1.0000 0.75190  0.31190  0.95412  Biso   1.000  N
  N3       1.0000 0.75190  0.18810  0.45412  Biso   1.000  N
  N4       1.0000 0.24810  0.68810  0.04588  Biso   1.000  N
  N5       1.0000 0.25129  0.57680  0.49776  Biso   1.000  N
  N6       1.0000 0.74871  0.07680  0.00224  Biso   1.000  N
  N7       1.0000 0.74871  0.42320  0.50224  Biso   1.000  N
  N8       1.0000 0.25129  0.92320  0.99776  Biso   1.000  N
  N9       1.0000 0.20652  0.05770  0.35386  Biso   1.000  N
  N10      1.0000 0.79348  0.55770  0.14614  Biso   1.000  N
  N11      1.0000 0.79348  0.94230  0.64614  Biso   1.000  N
  N12      1.0000 0.20652  0.44230  0.85386  Biso   1.000  N
  N13      1.0000 0.26180  0.40370  0.24385  Biso   1.000  N
  N14      1.0000 0.73820  0.90370  0.25615  Biso   1.000  N
  N15      1.0000 0.73820  0.59630  0.75615  Biso   1.000  N
  N16      1.0000 0.26180  0.09630  0.74385  Biso   1.000  N
  H1       1.0000 0.32280  0.46930  0.26290  Biso   1.000  H
  H2       1.0000 0.67720  0.96930  0.23710  Biso   1.000  H
  H3       1.0000 0.67720  0.53070  0.73710  Biso   1.000  H
  H4       1.0000 0.32280  0.03070  0.76290  Biso   1.000  H
  C1       1.0000 0.31520  0.68150  0.58595  Biso   1.000  C
  C2       1.0000 0.68480  0.18150  0.91405  Biso   1.000  C
  C3       1.0000 0.68480  0.31850  0.41405  Biso   1.000  C
  C4       1.0000 0.31520  0.81850  0.08595  Biso   1.000  C
  C5       1.0000 0.27140  0.51380  0.55535  Biso   1.000  C
  C6       1.0000 0.72860  0.01380  0.94465  Biso   1.000  C
  C7       1.0000 0.72860  0.48620  0.44465  Biso   1.000  C
  C8       1.0000 0.27140  0.98620  0.05535  Biso   1.000  C
  C9       1.0000 0.23220  0.74730  0.49477  Biso   1.000  C
  C10      1.0000 0.76780  0.24730  0.00523  Biso   1.000  C
  C11      1.0000 0.76780  0.25270  0.50523  Biso   1.000  C
  C12      1.0000 0.23220  0.75270  0.99477  Biso   1.000  C
  C13      1.0000 0.47940  0.71790  0.59251  Biso   1.000  C
  C14      1.0000 0.52060  0.21790  0.90749  Biso   1.000  C
  C15      1.0000 0.52060  0.28210  0.40749  Biso   1.000  C
  C16      1.0000 0.47940  0.78210  0.09251  Biso   1.000  C
  H5       1.0000 0.51680  0.69980  0.55850  Biso   1.000  H
  H6       1.0000 0.48320  0.19980  0.94150  Biso   1.000  H
  H7       1.0000 0.48320  0.30020  0.44150  Biso   1.000  H
  H8       1.0000 0.51680  0.80020  0.05850  Biso   1.000  H
  H9       1.0000 0.52790  0.64210  0.61930  Biso   1.000  H
  H10      1.0000 0.47210  0.14210  0.88070  Biso   1.000  H
  H11      1.0000 0.47210  0.35790  0.38070  Biso   1.000  H
  H12      1.0000 0.52790  0.85790  0.11930  Biso   1.000  H
  H13      1.0000 0.49650  0.83450  0.60380  Biso   1.000  H
  H14      1.0000 0.50350  0.33450  0.89620  Biso   1.000  H
  H15      1.0000 0.50350  0.16550  0.39620  Biso   1.000  H
  H16      1.0000 0.49650  0.66550  0.10380  Biso   1.000  H
  C17      1.0000 0.25630  0.70400  0.63972  Biso   1.000  C
  C18      1.0000 0.74370  0.20400  0.86028  Biso   1.000  C
  C19      1.0000 0.74370  0.29600  0.36028  Biso   1.000  C
  C20      1.0000 0.25630  0.79600  0.13972  Biso   1.000  C
  H17      1.0000 0.28820  0.81220  0.65520  Biso   1.000  H
  H18      1.0000 0.71180  0.31220  0.84480  Biso   1.000  H
  H19      1.0000 0.71180  0.18780  0.34480  Biso   1.000  H
  H20      1.0000 0.28820  0.68780  0.15520  Biso   1.000  H
  H21      1.0000 0.29200  0.61310  0.66380  Biso   1.000  H
  H22      1.0000 0.70800  0.11310  0.83620  Biso   1.000  H
  H23      1.0000 0.70800  0.38690  0.33620  Biso   1.000  H
  H24      1.0000 0.29200  0.88690  0.16380  Biso   1.000  H
  H25      1.0000 0.15140  0.70080  0.63430  Biso   1.000  H
  H26      1.0000 0.84860  0.20080  0.86570  Biso   1.000  H
  H27      1.0000 0.84860  0.29920  0.36570  Biso   1.000  H
  H28      1.0000 0.15140  0.79920  0.13430  Biso   1.000  H
  C21      1.0000 0.12290  0.44330  0.56665  Biso   1.000  C
  C22      1.0000 0.87710  0.94330  0.93335  Biso   1.000  C
  C23      1.0000 0.87710  0.55670  0.43335  Biso   1.000  C
  C24      1.0000 0.12290  0.05670  0.06665  Biso   1.000  C
  H29      1.0000 0.05000  0.53110  0.55990  Biso   1.000  H
  H30      1.0000 0.95000  0.03110  0.94010  Biso   1.000  H
  H31      1.0000 0.95000  0.46890  0.44010  Biso   1.000  H
  H32      1.0000 0.05000  0.96890  0.05990  Biso   1.000  H
  H33      1.0000 0.12860  0.40760  0.60380  Biso   1.000  H
  H34      1.0000 0.87140  0.90760  0.89620  Biso   1.000  H
  H35      1.0000 0.87140  0.59240  0.39620  Biso   1.000  H
  H36      1.0000 0.12860  0.09240  0.10380  Biso   1.000  H
  H37      1.0000 0.09700  0.34710  0.54340  Biso   1.000  H
  H38      1.0000 0.90300  0.84710  0.95660  Biso   1.000  H
  H39      1.0000 0.90300  0.65290  0.45660  Biso   1.000  H
  H40      1.0000 0.09700  0.15290  0.04340  Biso   1.000  H
  C25      1.0000 0.38640  0.37410  0.56104  Biso   1.000  C
  C26      1.0000 0.61360  0.87410  0.93896  Biso   1.000  C
  C27      1.0000 0.61360  0.62590  0.43896  Biso   1.000  C
  C28      1.0000 0.38640  0.12590  0.06104  Biso   1.000  C
  H41      1.0000 0.35010  0.27520  0.54080  Biso   1.000  H
  H42      1.0000 0.64990  0.77520  0.95920  Biso   1.000  H
  H43      1.0000 0.64990  0.72480  0.45920  Biso   1.000  H
  H44      1.0000 0.35010  0.22480  0.04080  Biso   1.000  H
  H45      1.0000 0.40850  0.34390  0.59850  Biso   1.000  H
  H46      1.0000 0.59150  0.84390  0.90150  Biso   1.000  H
  H47      1.0000 0.59150  0.65610  0.40150  Biso   1.000  H
  H48      1.0000 0.40850  0.15610  0.09850  Biso   1.000  H
  H49      1.0000 0.47340  0.41480  0.54740  Biso   1.000  H
  H50      1.0000 0.52660  0.91480  0.95260  Biso   1.000  H
  H51      1.0000 0.52660  0.58520  0.45260  Biso   1.000  H
  H52      1.0000 0.47340  0.08520  0.04740  Biso   1.000  H
  C29      1.0000 0.21210  0.84970  0.44536  Biso   1.000  C
  C30      1.0000 0.78790  0.34970  0.05464  Biso   1.000  C
  C31      1.0000 0.78790  0.15030  0.55464  Biso   1.000  C
  C32      1.0000 0.21210  0.65030  0.94536  Biso   1.000  C
  C33      1.0000 0.25150  0.78650  0.39652  Biso   1.000  C
  C34      1.0000 0.74850  0.28650  0.10348  Biso   1.000  C
  C35      1.0000 0.74850  0.21350  0.60348  Biso   1.000  C
  C36      1.0000 0.25150  0.71350  0.89652  Biso   1.000  C
  H53      1.0000 0.27900  0.67250  0.39370  Biso   1.000  H
  H54      1.0000 0.72100  0.17250  0.10630  Biso   1.000  H
  H55      1.0000 0.72100  0.32750  0.60630  Biso   1.000  H
  H56      1.0000 0.27900  0.82750  0.89370  Biso   1.000  H
  C37      1.0000 0.24910  0.89380  0.35291  Biso   1.000  C
  C38      1.0000 0.75090  0.39380  0.14709  Biso   1.000  C
  C39      1.0000 0.75090  0.10620  0.64709  Biso   1.000  C
  C40      1.0000 0.24910  0.60620  0.85291  Biso   1.000  C
  H57      1.0000 0.27860  0.85080  0.32100  Biso   1.000  H
  H58      1.0000 0.72140  0.35080  0.17900  Biso   1.000  H
  H59      1.0000 0.72140  0.14920  0.67900  Biso   1.000  H
  H60      1.0000 0.27860  0.64920  0.82100  Biso   1.000  H
  C41      1.0000 0.16300  0.11670  0.39987  Biso   1.000  C
  C42      1.0000 0.83700  0.61670  0.10013  Biso   1.000  C
  C43      1.0000 0.83700  0.88330  0.60013  Biso   1.000  C
  C44      1.0000 0.16300  0.38330  0.89987  Biso   1.000  C
  H61      1.0000 0.12980  0.22910  0.40070  Biso   1.000  H
  H62      1.0000 0.87020  0.72910  0.09930  Biso   1.000  H
  H63      1.0000 0.87020  0.77090  0.59930  Biso   1.000  H
  H64      1.0000 0.12980  0.27090  0.90070  Biso   1.000  H
  C45      1.0000 0.02910  0.48030  0.27570  Biso   1.000  C
  C46      1.0000 0.97090  0.98030  0.22430  Biso   1.000  C
  C47      1.0000 0.97090  0.51970  0.72430  Biso   1.000  C
  C48      1.0000 0.02910  0.01970  0.77570  Biso   1.000  C
  C49      1.0000 0.12310  0.49370  0.22925  Biso   1.000  C
  C50      1.0000 0.87690  0.99370  0.27075  Biso   1.000  C
  C51      1.0000 0.87690  0.50630  0.77075  Biso   1.000  C
  C52      1.0000 0.12310  0.00630  0.72925  Biso   1.000  C
  H65      1.0000 0.07170  0.44350  0.19670  Biso   1.000  H
  H66      1.0000 0.92830  0.94350  0.30330  Biso   1.000  H
  H67      1.0000 0.92830  0.55650  0.80330  Biso   1.000  H
  H68      1.0000 0.07170  0.05650  0.69670  Biso   1.000  H
  H69      1.0000 0.14190  0.61330  0.22190  Biso   1.000  H
  H70      1.0000 0.85810  0.11330  0.27810  Biso   1.000  H
  H71      1.0000 0.85810  0.38670  0.77810  Biso   1.000  H
  H72      1.0000 0.14190  0.88670  0.72190  Biso   1.000  H
  C53      1.0000 0.33600  0.32690  0.20085  Biso   1.000  C
  C54      1.0000 0.66400  0.82690  0.29915  Biso   1.000  C
  C55      1.0000 0.66400  0.67310  0.79915  Biso   1.000  C
  C56      1.0000 0.33600  0.17310  0.70085  Biso   1.000  C
  H73      1.0000 0.39690  0.41180  0.18590  Biso   1.000  H
  H74      1.0000 0.60310  0.91180  0.31410  Biso   1.000  H
  H75      1.0000 0.60310  0.58820  0.81410  Biso   1.000  H
  H76      1.0000 0.39690  0.08820  0.68590  Biso   1.000  H
  H77      1.0000 0.26450  0.28570  0.17200  Biso   1.000  H
  H78      1.0000 0.73550  0.78570  0.32800  Biso   1.000  H
  H79      1.0000 0.73550  0.71430  0.82800  Biso   1.000  H
  H80      1.0000 0.26450  0.21430  0.67200  Biso   1.000  H
  C57      1.0000 0.43020  0.17810  0.22484  Biso   1.000  C
  C58      1.0000 0.56980  0.67810  0.27516  Biso   1.000  C
  C59      1.0000 0.56980  0.82190  0.77516  Biso   1.000  C
  C60      1.0000 0.43020  0.32190  0.72484  Biso   1.000  C
  C61      1.0000 0.16510  0.01900  0.44580  Biso   1.000  C
  C62      1.0000 0.83490  0.51900  0.05420  Biso   1.000  C
  C63      1.0000 0.83490  0.98100  0.55420  Biso   1.000  C
  C64      1.0000 0.16510  0.48100  0.94580  Biso   1.000  C
  H81      1.0000 0.13510  0.06570  0.47710  Biso   1.000  H
  H82      1.0000 0.86490  0.56570  0.02290  Biso   1.000  H
  H83      1.0000 0.86490  0.93430  0.52290  Biso   1.000  H
  H84      1.0000 0.13510  0.43430  0.97710  Biso   1.000  H
