data_image0
_cell_length_a       9.221
_cell_length_b       7.804
_cell_length_c       24.941
_cell_angle_alpha    90
_cell_angle_beta     96.848
_cell_angle_gamma    90

_symmetry_space_group_name_H-M    "P 1"
_symmetry_int_tables_number       1

loop_
  _symmetry_equiv_pos_as_xyz
  'x, y, z'

loop_
  _atom_site_label
  _atom_site_occupancy
  _atom_site_fract_x
  _atom_site_fract_y
  _atom_site_fract_z
  _atom_site_thermal_displace_type
  _atom_site_B_iso_or_equiv
  _atom_site_type_symbol
  Cu1      1.0000 0.77745  0.78280  0.20709  Biso   1.000  Cu
  Cu2      1.0000 0.22255  0.28280  0.29291  Biso   1.000  Cu
  Cu3      1.0000 0.22255  0.21720  0.79291  Biso   1.000  Cu
  Cu4      1.0000 0.77745  0.71720  0.70709  Biso   1.000  Cu
  N1       1.0000 0.75180  0.18600  0.95400  Biso   1.000  N
  N2       1.0000 0.24820  0.68600  0.54600  Biso   1.000  N
  N3       1.0000 0.24820  0.81400  0.04600  Biso   1.000  N
  N4       1.0000 0.75180  0.31400  0.45400  Biso   1.000  N
  N5       1.0000 0.74980  0.42310  0.00220  Biso   1.000  N
  N6       1.0000 0.25020  0.92310  0.49780  Biso   1.000  N
  N7       1.0000 0.25020  0.57690  0.99780  Biso   1.000  N
  N8       1.0000 0.74980  0.07690  0.50220  Biso   1.000  N
  N9       1.0000 0.79300  0.94320  0.14640  Biso   1.000  N
  N10      1.0000 0.20700  0.44320  0.35360  Biso   1.000  N
  N11      1.0000 0.20700  0.05680  0.85360  Biso   1.000  N
  N12      1.0000 0.79300  0.55680  0.64640  Biso   1.000  N
  O1       1.0000 0.76740  0.03180  0.94020  Biso   1.000  O
  O2       1.0000 0.23260  0.53180  0.55980  Biso   1.000  O
  O3       1.0000 0.23260  0.96820  0.05980  Biso   1.000  O
  O4       1.0000 0.76740  0.46820  0.44020  Biso   1.000  O
  O5       1.0000 0.75890  0.52750  0.04163  Biso   1.000  O
  O6       1.0000 0.24110  0.02750  0.45837  Biso   1.000  O
  O7       1.0000 0.24110  0.47250  0.95837  Biso   1.000  O
  O8       1.0000 0.75890  0.97250  0.54163  Biso   1.000  O
  O9       1.0000 0.60200  0.88330  0.23078  Biso   1.000  O
  O10      1.0000 0.39800  0.38330  0.26922  Biso   1.000  O
  O11      1.0000 0.39800  0.11670  0.76922  Biso   1.000  O
  O12      1.0000 0.60200  0.61670  0.73078  Biso   1.000  O
  O13      1.0000 0.47000  0.87460  0.29990  Biso   1.000  O
  O14      1.0000 0.53000  0.37460  0.20010  Biso   1.000  O
  O15      1.0000 0.53000  0.12540  0.70010  Biso   1.000  O
  O16      1.0000 0.47000  0.62540  0.79990  Biso   1.000  O
  O17      1.0000 0.93270  0.63100  0.18834  Biso   1.000  O
  O18      1.0000 0.06730  0.13100  0.31166  Biso   1.000  O
  O19      1.0000 0.06730  0.36900  0.81166  Biso   1.000  O
  O20      1.0000 0.93270  0.86900  0.68834  Biso   1.000  O
  O21      1.0000 0.07940  0.42650  0.22470  Biso   1.000  O
  O22      1.0000 0.92060  0.92650  0.27530  Biso   1.000  O
  O23      1.0000 0.92060  0.57350  0.77530  Biso   1.000  O
  O24      1.0000 0.07940  0.07350  0.72470  Biso   1.000  O
  C1       1.0000 0.68500  0.31700  0.91390  Biso   1.000  C
  C2       1.0000 0.31500  0.81700  0.58610  Biso   1.000  C
  C3       1.0000 0.31500  0.68300  0.08610  Biso   1.000  C
  C4       1.0000 0.68500  0.18300  0.41390  Biso   1.000  C
  C5       1.0000 0.72750  0.48450  0.94470  Biso   1.000  C
  C6       1.0000 0.27250  0.98450  0.55530  Biso   1.000  C
  C7       1.0000 0.27250  0.51550  0.05530  Biso   1.000  C
  C8       1.0000 0.72750  0.01550  0.44470  Biso   1.000  C
  C9       1.0000 0.52090  0.28230  0.90770  Biso   1.000  C
  C10      1.0000 0.47910  0.78230  0.59230  Biso   1.000  C
  C11      1.0000 0.47910  0.71770  0.09230  Biso   1.000  C
  C12      1.0000 0.52090  0.21770  0.40770  Biso   1.000  C
  H1       1.0000 0.50080  0.17670  0.88840  Biso   1.000  H
  H2       1.0000 0.49920  0.67670  0.61160  Biso   1.000  H
  H3       1.0000 0.49920  0.82330  0.11160  Biso   1.000  H
  H4       1.0000 0.50080  0.32330  0.38840  Biso   1.000  H
  H5       1.0000 0.47040  0.37440  0.88790  Biso   1.000  H
  H6       1.0000 0.52960  0.87440  0.61210  Biso   1.000  H
  H7       1.0000 0.52960  0.62560  0.11210  Biso   1.000  H
  H8       1.0000 0.47040  0.12560  0.38790  Biso   1.000  H
  H9       1.0000 0.48820  0.27390  0.94270  Biso   1.000  H
  H10      1.0000 0.51180  0.77390  0.55730  Biso   1.000  H
  H11      1.0000 0.51180  0.72610  0.05730  Biso   1.000  H
  H12      1.0000 0.48820  0.22610  0.44270  Biso   1.000  H
  C13      1.0000 0.74180  0.29470  0.86010  Biso   1.000  C
  C14      1.0000 0.25820  0.79470  0.63990  Biso   1.000  C
  C15      1.0000 0.25820  0.70530  0.13990  Biso   1.000  C
  C16      1.0000 0.74180  0.20530  0.36010  Biso   1.000  C
  H13      1.0000 0.70970  0.18630  0.84480  Biso   1.000  H
  H14      1.0000 0.29030  0.68630  0.65520  Biso   1.000  H
  H15      1.0000 0.29030  0.81370  0.15520  Biso   1.000  H
  H16      1.0000 0.70970  0.31370  0.34480  Biso   1.000  H
  H17      1.0000 0.84660  0.29810  0.86510  Biso   1.000  H
  H18      1.0000 0.15340  0.79810  0.63490  Biso   1.000  H
  H19      1.0000 0.15340  0.70190  0.13490  Biso   1.000  H
  H20      1.0000 0.84660  0.20190  0.36510  Biso   1.000  H
  H21      1.0000 0.70520  0.38530  0.83620  Biso   1.000  H
  H22      1.0000 0.29480  0.88530  0.66380  Biso   1.000  H
  H23      1.0000 0.29480  0.61470  0.16380  Biso   1.000  H
  H24      1.0000 0.70520  0.11470  0.33620  Biso   1.000  H
  C17      1.0000 0.61540  0.62670  0.93880  Biso   1.000  C
  C18      1.0000 0.38460  0.12670  0.56120  Biso   1.000  C
  C19      1.0000 0.38460  0.37330  0.06120  Biso   1.000  C
  C20      1.0000 0.61540  0.87330  0.43880  Biso   1.000  C
  H25      1.0000 0.65250  0.72430  0.95950  Biso   1.000  H
  H26      1.0000 0.34750  0.22430  0.54050  Biso   1.000  H
  H27      1.0000 0.34750  0.27570  0.04050  Biso   1.000  H
  H28      1.0000 0.65250  0.77570  0.45950  Biso   1.000  H
  H29      1.0000 0.52700  0.58790  0.95160  Biso   1.000  H
  H30      1.0000 0.47300  0.08790  0.54840  Biso   1.000  H
  H31      1.0000 0.47300  0.41210  0.04840  Biso   1.000  H
  H32      1.0000 0.52700  0.91210  0.45160  Biso   1.000  H
  H33      1.0000 0.59540  0.65830  0.90140  Biso   1.000  H
  H34      1.0000 0.40460  0.15830  0.59860  Biso   1.000  H
  H35      1.0000 0.40460  0.34170  0.09860  Biso   1.000  H
  H36      1.0000 0.59540  0.84170  0.40140  Biso   1.000  H
  C21      1.0000 0.87730  0.55530  0.93360  Biso   1.000  C
  C22      1.0000 0.12270  0.05530  0.56640  Biso   1.000  C
  C23      1.0000 0.12270  0.44470  0.06640  Biso   1.000  C
  C24      1.0000 0.87730  0.94470  0.43360  Biso   1.000  C
  H37      1.0000 0.89750  0.65950  0.95360  Biso   1.000  H
  H38      1.0000 0.10250  0.15950  0.54640  Biso   1.000  H
  H39      1.0000 0.10250  0.34050  0.04640  Biso   1.000  H
  H40      1.0000 0.89750  0.84050  0.45360  Biso   1.000  H
  H41      1.0000 0.87580  0.57780  0.89570  Biso   1.000  H
  H42      1.0000 0.12420  0.07780  0.60430  Biso   1.000  H
  H43      1.0000 0.12420  0.42220  0.10430  Biso   1.000  H
  H44      1.0000 0.87580  0.92220  0.39570  Biso   1.000  H
  H45      1.0000 0.95190  0.47250  0.94480  Biso   1.000  H
  H46      1.0000 0.04810  0.97250  0.55520  Biso   1.000  H
  H47      1.0000 0.04810  0.52750  0.05520  Biso   1.000  H
  H48      1.0000 0.95190  0.02750  0.44480  Biso   1.000  H
  C25      1.0000 0.76850  0.25160  0.00520  Biso   1.000  C
  C26      1.0000 0.23150  0.75160  0.49480  Biso   1.000  C
  C27      1.0000 0.23150  0.74840  0.99480  Biso   1.000  C
  C28      1.0000 0.76850  0.24840  0.50520  Biso   1.000  C
  C29      1.0000 0.78620  0.14870  0.05460  Biso   1.000  C
  C30      1.0000 0.21380  0.64870  0.44540  Biso   1.000  C
  C31      1.0000 0.21380  0.85130  0.94540  Biso   1.000  C
  C32      1.0000 0.78620  0.35130  0.55460  Biso   1.000  C
  C33      1.0000 0.74910  0.21390  0.10340  Biso   1.000  C
  C34      1.0000 0.25090  0.71390  0.39660  Biso   1.000  C
  C35      1.0000 0.25090  0.78610  0.89660  Biso   1.000  C
  C36      1.0000 0.74910  0.28610  0.60340  Biso   1.000  C
  H49      1.0000 0.72360  0.32850  0.10640  Biso   1.000  H
  H50      1.0000 0.27640  0.82850  0.39360  Biso   1.000  H
  H51      1.0000 0.27640  0.67150  0.89360  Biso   1.000  H
  H52      1.0000 0.72360  0.17150  0.60640  Biso   1.000  H
  C37      1.0000 0.75120  0.10550  0.14670  Biso   1.000  C
  C38      1.0000 0.24880  0.60550  0.35330  Biso   1.000  C
  C39      1.0000 0.24880  0.89450  0.85330  Biso   1.000  C
  C40      1.0000 0.75120  0.39450  0.64670  Biso   1.000  C
  H53      1.0000 0.72130  0.14870  0.17830  Biso   1.000  H
  H54      1.0000 0.27870  0.64870  0.32170  Biso   1.000  H
  H55      1.0000 0.27870  0.85130  0.82170  Biso   1.000  H
  H56      1.0000 0.72130  0.35130  0.67830  Biso   1.000  H
  C41      1.0000 0.83480  0.98000  0.05480  Biso   1.000  C
  C42      1.0000 0.16520  0.48000  0.44520  Biso   1.000  C
  C43      1.0000 0.16520  0.02000  0.94520  Biso   1.000  C
  C44      1.0000 0.83480  0.52000  0.55480  Biso   1.000  C
  H57      1.0000 0.86630  0.93390  0.02380  Biso   1.000  H
  H58      1.0000 0.13370  0.43390  0.47620  Biso   1.000  H
  H59      1.0000 0.13370  0.06610  0.97620  Biso   1.000  H
  H60      1.0000 0.86630  0.56610  0.52380  Biso   1.000  H
  C45      1.0000 0.83650  0.88230  0.09990  Biso   1.000  C
  C46      1.0000 0.16350  0.38230  0.40010  Biso   1.000  C
  C47      1.0000 0.16350  0.11770  0.90010  Biso   1.000  C
  C48      1.0000 0.83650  0.61770  0.59990  Biso   1.000  C
  H61      1.0000 0.86870  0.76950  0.09890  Biso   1.000  H
  H62      1.0000 0.13130  0.26950  0.40110  Biso   1.000  H
  H63      1.0000 0.13130  0.23050  0.90110  Biso   1.000  H
  H64      1.0000 0.86870  0.73050  0.59890  Biso   1.000  H
  C49      1.0000 0.56890  0.82240  0.27560  Biso   1.000  C
  C50      1.0000 0.43110  0.32240  0.22440  Biso   1.000  C
  C51      1.0000 0.43110  0.17760  0.72440  Biso   1.000  C
  C52      1.0000 0.56890  0.67760  0.77560  Biso   1.000  C
  C53      1.0000 0.66370  0.67180  0.29860  Biso   1.000  C
  C54      1.0000 0.33630  0.17180  0.20140  Biso   1.000  C
  C55      1.0000 0.33630  0.32820  0.70140  Biso   1.000  C
  C56      1.0000 0.66370  0.82820  0.79860  Biso   1.000  C
  H65      1.0000 0.73560  0.71210  0.32740  Biso   1.000  H
  H66      1.0000 0.26440  0.21210  0.17260  Biso   1.000  H
  H67      1.0000 0.26440  0.28790  0.67260  Biso   1.000  H
  H68      1.0000 0.73560  0.78790  0.82740  Biso   1.000  H
  H69      1.0000 0.60300  0.58680  0.31350  Biso   1.000  H
  H70      1.0000 0.39700  0.08680  0.18650  Biso   1.000  H
  H71      1.0000 0.39700  0.41320  0.68650  Biso   1.000  H
  H72      1.0000 0.60300  0.91320  0.81350  Biso   1.000  H
  N13      1.0000 0.73740  0.59490  0.25590  Biso   1.000  N
  N14      1.0000 0.26260  0.09490  0.24410  Biso   1.000  N
  N15      1.0000 0.26260  0.40510  0.74410  Biso   1.000  N
  N16      1.0000 0.73740  0.90510  0.75590  Biso   1.000  N
  H73      1.0000 0.67410  0.52090  0.23710  Biso   1.000  H
  H74      1.0000 0.32590  0.02090  0.26290  Biso   1.000  H
  H75      1.0000 0.32590  0.47910  0.76290  Biso   1.000  H
  H76      1.0000 0.67410  0.97910  0.73710  Biso   1.000  H
  C57      1.0000 0.87570  0.50460  0.27080  Biso   1.000  C
  C58      1.0000 0.12430  0.00460  0.22920  Biso   1.000  C
  C59      1.0000 0.12430  0.49540  0.72920  Biso   1.000  C
  C60      1.0000 0.87570  0.99540  0.77080  Biso   1.000  C
  H77      1.0000 0.85650  0.38490  0.27790  Biso   1.000  H
  H78      1.0000 0.14350  0.88490  0.22210  Biso   1.000  H
  H79      1.0000 0.14350  0.61510  0.72210  Biso   1.000  H
  H80      1.0000 0.85650  0.11510  0.77790  Biso   1.000  H
  H81      1.0000 0.92620  0.55430  0.30350  Biso   1.000  H
  H82      1.0000 0.07380  0.05430  0.19650  Biso   1.000  H
  H83      1.0000 0.07380  0.44570  0.69650  Biso   1.000  H
  H84      1.0000 0.92620  0.94570  0.80350  Biso   1.000  H
  C61      1.0000 0.97120  0.51850  0.22500  Biso   1.000  C
  C62      1.0000 0.02880  0.01850  0.27500  Biso   1.000  C
  C63      1.0000 0.02880  0.48150  0.77500  Biso   1.000  C
  C64      1.0000 0.97120  0.98150  0.72500  Biso   1.000  C
