data_image0
_cell_length_a       22.677
_cell_length_b       11.7223
_cell_length_c       13.8514
_cell_angle_alpha    90
_cell_angle_beta     108.963
_cell_angle_gamma    90

_symmetry_space_group_name_H-M    "P 1"
_symmetry_int_tables_number       1

loop_
  _symmetry_equiv_pos_as_xyz
  'x, y, z'

loop_
  _atom_site_label
  _atom_site_occupancy
  _atom_site_fract_x
  _atom_site_fract_y
  _atom_site_fract_z
  _atom_site_thermal_displace_type
  _atom_site_B_iso_or_equiv
  _atom_site_type_symbol
  Cu1      1.0000 0.46420  0.75079  0.09568  Biso   1.000  Cu
  Cu2      1.0000 0.53580  0.75079  0.40432  Biso   1.000  Cu
  Cu3      1.0000 0.96420  0.25079  0.09568  Biso   1.000  Cu
  Cu4      1.0000 0.03580  0.25079  0.40432  Biso   1.000  Cu
  Cu5      1.0000 0.53580  0.24921  0.90432  Biso   1.000  Cu
  Cu6      1.0000 0.46420  0.24921  0.59568  Biso   1.000  Cu
  Cu7      1.0000 0.03580  0.74921  0.90432  Biso   1.000  Cu
  Cu8      1.0000 0.96420  0.74921  0.59568  Biso   1.000  Cu
  Cl1      1.0000 0.74466  0.27719  0.27581  Biso   1.000  Cl
  Cl2      1.0000 0.25534  0.27719  0.22419  Biso   1.000  Cl
  Cl3      1.0000 0.24466  0.77719  0.27581  Biso   1.000  Cl
  Cl4      1.0000 0.75534  0.77719  0.22419  Biso   1.000  Cl
  Cl5      1.0000 0.25534  0.72281  0.72419  Biso   1.000  Cl
  Cl6      1.0000 0.74466  0.72281  0.77581  Biso   1.000  Cl
  Cl7      1.0000 0.75534  0.22281  0.72419  Biso   1.000  Cl
  Cl8      1.0000 0.24466  0.22281  0.77581  Biso   1.000  Cl
  O1       1.0000 0.46592  0.35297  0.87728  Biso   1.000  O
  O2       1.0000 0.53408  0.35297  0.62272  Biso   1.000  O
  O3       1.0000 0.96592  0.85297  0.87728  Biso   1.000  O
  O4       1.0000 0.03408  0.85297  0.62272  Biso   1.000  O
  O5       1.0000 0.53408  0.64703  0.12272  Biso   1.000  O
  O6       1.0000 0.46592  0.64703  0.37728  Biso   1.000  O
  O7       1.0000 0.03408  0.14703  0.12272  Biso   1.000  O
  O8       1.0000 0.96592  0.14703  0.37728  Biso   1.000  O
  O9       1.0000 0.42817  0.31546  0.71005  Biso   1.000  O
  O10      1.0000 0.57183  0.31546  0.78995  Biso   1.000  O
  O11      1.0000 0.92817  0.81546  0.71005  Biso   1.000  O
  O12      1.0000 0.07183  0.81546  0.78995  Biso   1.000  O
  O13      1.0000 0.57183  0.68454  0.28995  Biso   1.000  O
  O14      1.0000 0.42817  0.68454  0.21005  Biso   1.000  O
  O15      1.0000 0.07183  0.18454  0.28995  Biso   1.000  O
  O16      1.0000 0.92817  0.18454  0.21005  Biso   1.000  O
  N1       1.0000 0.39467  0.86485  0.06048  Biso   1.000  N
  N2       1.0000 0.60533  0.86485  0.43952  Biso   1.000  N
  N3       1.0000 0.89467  0.36485  0.06048  Biso   1.000  N
  N4       1.0000 0.10533  0.36485  0.43952  Biso   1.000  N
  N5       1.0000 0.60533  0.13515  0.93952  Biso   1.000  N
  N6       1.0000 0.39467  0.13515  0.56048  Biso   1.000  N
  N7       1.0000 0.10533  0.63515  0.93952  Biso   1.000  N
  N8       1.0000 0.89467  0.63515  0.56048  Biso   1.000  N
  N9       1.0000 0.42241  0.60452  0.90885  Biso   1.000  N
  N10      1.0000 0.57759  0.60452  0.59115  Biso   1.000  N
  N11      1.0000 0.92241  0.10452  0.90885  Biso   1.000  N
  N12      1.0000 0.07759  0.10452  0.59115  Biso   1.000  N
  N13      1.0000 0.57759  0.39548  0.09115  Biso   1.000  N
  N14      1.0000 0.42241  0.39548  0.40885  Biso   1.000  N
  N15      1.0000 0.07759  0.89548  0.09115  Biso   1.000  N
  N16      1.0000 0.92241  0.89548  0.40885  Biso   1.000  N
  C1       1.0000 0.48109  0.99050  0.11318  Biso   1.000  C
  C2       1.0000 0.51891  0.99050  0.38682  Biso   1.000  C
  C3       1.0000 0.98109  0.49050  0.11318  Biso   1.000  C
  C4       1.0000 0.01891  0.49050  0.38682  Biso   1.000  C
  C5       1.0000 0.51891  0.00950  0.88682  Biso   1.000  C
  C6       1.0000 0.48109  0.00950  0.61318  Biso   1.000  C
  C7       1.0000 0.01891  0.50950  0.88682  Biso   1.000  C
  C8       1.0000 0.98109  0.50950  0.61318  Biso   1.000  C
  C9       1.0000 0.42987  0.36930  0.78707  Biso   1.000  C
  C10      1.0000 0.57013  0.36930  0.71293  Biso   1.000  C
  C11      1.0000 0.92987  0.86930  0.78707  Biso   1.000  C
  C12      1.0000 0.07013  0.86930  0.71293  Biso   1.000  C
  C13      1.0000 0.57013  0.63070  0.21293  Biso   1.000  C
  C14      1.0000 0.42987  0.63070  0.28707  Biso   1.000  C
  C15      1.0000 0.07013  0.13070  0.21293  Biso   1.000  C
  C16      1.0000 0.92987  0.13070  0.28707  Biso   1.000  C
  C17      1.0000 0.41510  0.97480  0.07682  Biso   1.000  C
  C18      1.0000 0.58490  0.97480  0.42318  Biso   1.000  C
  C19      1.0000 0.91510  0.47480  0.07682  Biso   1.000  C
  C20      1.0000 0.08490  0.47480  0.42318  Biso   1.000  C
  C21      1.0000 0.58490  0.02520  0.92318  Biso   1.000  C
  C22      1.0000 0.41510  0.02520  0.57682  Biso   1.000  C
  C23      1.0000 0.08490  0.52520  0.92318  Biso   1.000  C
  C24      1.0000 0.91510  0.52520  0.57682  Biso   1.000  C
  N17      1.0000 0.51655  0.89463  0.12845  Biso   1.000  N
  N18      1.0000 0.48345  0.89463  0.37155  Biso   1.000  N
  N19      1.0000 0.01655  0.39463  0.12845  Biso   1.000  N
  N20      1.0000 0.98345  0.39463  0.37155  Biso   1.000  N
  N21      1.0000 0.48345  0.10537  0.87155  Biso   1.000  N
  N22      1.0000 0.51655  0.10537  0.62845  Biso   1.000  N
  N23      1.0000 0.98345  0.60537  0.87155  Biso   1.000  N
  N24      1.0000 0.01655  0.60537  0.62845  Biso   1.000  N
  N25      1.0000 0.41272  0.62812  0.99347  Biso   1.000  N
  N26      1.0000 0.58728  0.62812  0.50653  Biso   1.000  N
  N27      1.0000 0.91272  0.12812  0.99347  Biso   1.000  N
  N28      1.0000 0.08728  0.12812  0.50653  Biso   1.000  N
  N29      1.0000 0.58728  0.37188  0.00653  Biso   1.000  N
  N30      1.0000 0.41272  0.37188  0.49347  Biso   1.000  N
  N31      1.0000 0.08728  0.87188  0.00653  Biso   1.000  N
  N32      1.0000 0.91272  0.87188  0.49347  Biso   1.000  N
  C25      1.0000 0.50616  0.10140  0.13023  Biso   1.000  C
  C26      1.0000 0.49384  0.10140  0.36977  Biso   1.000  C
  C27      1.0000 0.00616  0.60140  0.13023  Biso   1.000  C
  C28      1.0000 0.99384  0.60140  0.36977  Biso   1.000  C
  C29      1.0000 0.49384  0.89860  0.86977  Biso   1.000  C
  C30      1.0000 0.50616  0.89860  0.63023  Biso   1.000  C
  C31      1.0000 0.99384  0.39860  0.86977  Biso   1.000  C
  C32      1.0000 0.00616  0.39860  0.63023  Biso   1.000  C
  C33      1.0000 0.37482  0.06840  0.05940  Biso   1.000  C
  C34      1.0000 0.62518  0.06840  0.44060  Biso   1.000  C
  C35      1.0000 0.87482  0.56840  0.05940  Biso   1.000  C
  C36      1.0000 0.12518  0.56840  0.44060  Biso   1.000  C
  C37      1.0000 0.62518  0.93160  0.94060  Biso   1.000  C
  C38      1.0000 0.37482  0.93160  0.55940  Biso   1.000  C
  C39      1.0000 0.12518  0.43160  0.94060  Biso   1.000  C
  C40      1.0000 0.87482  0.43160  0.55940  Biso   1.000  C
  C41      1.0000 0.57828  0.90650  0.16080  Biso   1.000  C
  C42      1.0000 0.42172  0.90650  0.33920  Biso   1.000  C
  C43      1.0000 0.07828  0.40650  0.16080  Biso   1.000  C
  C44      1.0000 0.92172  0.40650  0.33920  Biso   1.000  C
  C45      1.0000 0.42172  0.09350  0.83920  Biso   1.000  C
  C46      1.0000 0.57828  0.09350  0.66080  Biso   1.000  C
  C47      1.0000 0.92172  0.59350  0.83920  Biso   1.000  C
  C48      1.0000 0.07828  0.59350  0.66080  Biso   1.000  C
  H1       1.0000 0.60300  0.84150  0.17040  Biso   1.000  H
  H2       1.0000 0.39700  0.84150  0.32960  Biso   1.000  H
  H3       1.0000 0.10300  0.34150  0.17040  Biso   1.000  H
  H4       1.0000 0.89700  0.34150  0.32960  Biso   1.000  H
  H5       1.0000 0.39700  0.15850  0.82960  Biso   1.000  H
  H6       1.0000 0.60300  0.15850  0.67040  Biso   1.000  H
  H7       1.0000 0.89700  0.65850  0.82960  Biso   1.000  H
  H8       1.0000 0.10300  0.65850  0.67040  Biso   1.000  H
  C49      1.0000 0.31070  0.04600  0.02410  Biso   1.000  C
  C50      1.0000 0.68930  0.04600  0.47590  Biso   1.000  C
  C51      1.0000 0.81070  0.54600  0.02410  Biso   1.000  C
  C52      1.0000 0.18930  0.54600  0.47590  Biso   1.000  C
  C53      1.0000 0.68930  0.95400  0.97590  Biso   1.000  C
  C54      1.0000 0.31070  0.95400  0.52410  Biso   1.000  C
  C55      1.0000 0.18930  0.45400  0.97590  Biso   1.000  C
  C56      1.0000 0.81070  0.45400  0.52410  Biso   1.000  C
  H9       1.0000 0.28210  0.10550  0.01160  Biso   1.000  H
  H10      1.0000 0.71790  0.10550  0.48840  Biso   1.000  H
  H11      1.0000 0.78210  0.60550  0.01160  Biso   1.000  H
  H12      1.0000 0.21790  0.60550  0.48840  Biso   1.000  H
  H13      1.0000 0.71790  0.89450  0.98840  Biso   1.000  H
  H14      1.0000 0.28210  0.89450  0.51160  Biso   1.000  H
  H15      1.0000 0.21790  0.39450  0.98840  Biso   1.000  H
  H16      1.0000 0.78210  0.39450  0.51160  Biso   1.000  H
  C57      1.0000 0.40193  0.18060  0.07750  Biso   1.000  C
  C58      1.0000 0.59807  0.18060  0.42250  Biso   1.000  C
  C59      1.0000 0.90193  0.68060  0.07750  Biso   1.000  C
  C60      1.0000 0.09807  0.68060  0.42250  Biso   1.000  C
  C61      1.0000 0.59807  0.81940  0.92250  Biso   1.000  C
  C62      1.0000 0.40193  0.81940  0.57750  Biso   1.000  C
  C63      1.0000 0.09807  0.31940  0.92250  Biso   1.000  C
  C64      1.0000 0.90193  0.31940  0.57750  Biso   1.000  C
  H17      1.0000 0.37590  0.24390  0.06610  Biso   1.000  H
  H18      1.0000 0.62410  0.24390  0.43390  Biso   1.000  H
  H19      1.0000 0.87590  0.74390  0.06610  Biso   1.000  H
  H20      1.0000 0.12410  0.74390  0.43390  Biso   1.000  H
  H21      1.0000 0.62410  0.75610  0.93390  Biso   1.000  H
  H22      1.0000 0.37590  0.75610  0.56610  Biso   1.000  H
  H23      1.0000 0.12410  0.25610  0.93390  Biso   1.000  H
  H24      1.0000 0.87590  0.25610  0.56610  Biso   1.000  H
  C65      1.0000 0.57192  0.11020  0.16640  Biso   1.000  C
  C66      1.0000 0.42808  0.11020  0.33360  Biso   1.000  C
  C67      1.0000 0.07192  0.61020  0.16640  Biso   1.000  C
  C68      1.0000 0.92808  0.61020  0.33360  Biso   1.000  C
  C69      1.0000 0.42808  0.88980  0.83360  Biso   1.000  C
  C70      1.0000 0.57192  0.88980  0.66640  Biso   1.000  C
  C71      1.0000 0.92808  0.38980  0.83360  Biso   1.000  C
  C72      1.0000 0.07192  0.38980  0.66640  Biso   1.000  C
  H25      1.0000 0.59090  0.18140  0.18010  Biso   1.000  H
  H26      1.0000 0.40910  0.18140  0.31990  Biso   1.000  H
  H27      1.0000 0.09090  0.68140  0.18010  Biso   1.000  H
  H28      1.0000 0.90910  0.68140  0.31990  Biso   1.000  H
  H29      1.0000 0.40910  0.81860  0.81990  Biso   1.000  H
  H30      1.0000 0.59090  0.81860  0.68010  Biso   1.000  H
  H31      1.0000 0.90910  0.31860  0.81990  Biso   1.000  H
  H32      1.0000 0.09090  0.31860  0.68010  Biso   1.000  H
  N33      1.0000 0.36879  0.55990  0.00930  Biso   1.000  N
  N34      1.0000 0.63121  0.55990  0.49070  Biso   1.000  N
  N35      1.0000 0.86879  0.05990  0.00930  Biso   1.000  N
  N36      1.0000 0.13121  0.05990  0.49070  Biso   1.000  N
  N37      1.0000 0.63121  0.44010  0.99070  Biso   1.000  N
  N38      1.0000 0.36879  0.44010  0.50930  Biso   1.000  N
  N39      1.0000 0.13121  0.94010  0.99070  Biso   1.000  N
  N40      1.0000 0.86879  0.94010  0.50930  Biso   1.000  N
  C73      1.0000 0.33381  0.84600  0.02790  Biso   1.000  C
  C74      1.0000 0.66619  0.84600  0.47210  Biso   1.000  C
  C75      1.0000 0.83381  0.34600  0.02790  Biso   1.000  C
  C76      1.0000 0.16619  0.34600  0.47210  Biso   1.000  C
  C77      1.0000 0.66619  0.15400  0.97210  Biso   1.000  C
  C78      1.0000 0.33381  0.15400  0.52790  Biso   1.000  C
  C79      1.0000 0.16619  0.65400  0.97210  Biso   1.000  C
  C80      1.0000 0.83381  0.65400  0.52790  Biso   1.000  C
  H33      1.0000 0.31930  0.77130  0.01760  Biso   1.000  H
  H34      1.0000 0.68070  0.77130  0.48240  Biso   1.000  H
  H35      1.0000 0.81930  0.27130  0.01760  Biso   1.000  H
  H36      1.0000 0.18070  0.27130  0.48240  Biso   1.000  H
  H37      1.0000 0.68070  0.22870  0.98240  Biso   1.000  H
  H38      1.0000 0.31930  0.22870  0.51760  Biso   1.000  H
  H39      1.0000 0.18070  0.72870  0.98240  Biso   1.000  H
  H40      1.0000 0.81930  0.72870  0.51760  Biso   1.000  H
  C81      1.0000 0.60732  0.01350  0.18100  Biso   1.000  C
  C82      1.0000 0.39268  0.01350  0.31900  Biso   1.000  C
  C83      1.0000 0.10732  0.51350  0.18100  Biso   1.000  C
  C84      1.0000 0.89268  0.51350  0.31900  Biso   1.000  C
  C85      1.0000 0.39268  0.98650  0.81900  Biso   1.000  C
  C86      1.0000 0.60732  0.98650  0.68100  Biso   1.000  C
  C87      1.0000 0.89268  0.48650  0.81900  Biso   1.000  C
  C88      1.0000 0.10732  0.48650  0.68100  Biso   1.000  C
  H41      1.0000 0.65060  0.01860  0.20430  Biso   1.000  H
  H42      1.0000 0.34940  0.01860  0.29570  Biso   1.000  H
  H43      1.0000 0.15060  0.51860  0.20430  Biso   1.000  H
  H44      1.0000 0.84940  0.51860  0.29570  Biso   1.000  H
  H45      1.0000 0.34940  0.98140  0.79570  Biso   1.000  H
  H46      1.0000 0.65060  0.98140  0.70430  Biso   1.000  H
  H47      1.0000 0.84940  0.48140  0.79570  Biso   1.000  H
  H48      1.0000 0.15060  0.48140  0.70430  Biso   1.000  H
  C89      1.0000 0.29069  0.93580  0.00850  Biso   1.000  C
  C90      1.0000 0.70931  0.93580  0.49150  Biso   1.000  C
  C91      1.0000 0.79069  0.43580  0.00850  Biso   1.000  C
  C92      1.0000 0.20931  0.43580  0.49150  Biso   1.000  C
  C93      1.0000 0.70931  0.06420  0.99150  Biso   1.000  C
  C94      1.0000 0.29069  0.06420  0.50850  Biso   1.000  C
  C95      1.0000 0.20931  0.56420  0.99150  Biso   1.000  C
  C96      1.0000 0.79069  0.56420  0.50850  Biso   1.000  C
  H49      1.0000 0.24820  0.92010  0.98480  Biso   1.000  H
  H50      1.0000 0.75180  0.92010  0.51520  Biso   1.000  H
  H51      1.0000 0.74820  0.42010  0.98480  Biso   1.000  H
  H52      1.0000 0.25180  0.42010  0.51520  Biso   1.000  H
  H53      1.0000 0.75180  0.07990  0.01520  Biso   1.000  H
  H54      1.0000 0.24820  0.07990  0.48480  Biso   1.000  H
  H55      1.0000 0.25180  0.57990  0.01520  Biso   1.000  H
  H56      1.0000 0.74820  0.57990  0.48480  Biso   1.000  H
  C97      1.0000 0.46441  0.19620  0.11070  Biso   1.000  C
  C98      1.0000 0.53559  0.19620  0.38930  Biso   1.000  C
  C99      1.0000 0.96441  0.69620  0.11070  Biso   1.000  C
  C100     1.0000 0.03559  0.69620  0.38930  Biso   1.000  C
  C101     1.0000 0.53559  0.80380  0.88930  Biso   1.000  C
  C102     1.0000 0.46441  0.80380  0.61070  Biso   1.000  C
  C103     1.0000 0.03559  0.30380  0.88930  Biso   1.000  C
  C104     1.0000 0.96441  0.30380  0.61070  Biso   1.000  C
  H57      1.0000 0.48040  0.26990  0.12100  Biso   1.000  H
  H58      1.0000 0.51960  0.26990  0.37900  Biso   1.000  H
  H59      1.0000 0.98040  0.76990  0.12100  Biso   1.000  H
  H60      1.0000 0.01960  0.76990  0.37900  Biso   1.000  H
  H61      1.0000 0.51960  0.73010  0.87900  Biso   1.000  H
  H62      1.0000 0.48040  0.73010  0.62100  Biso   1.000  H
  H63      1.0000 0.01960  0.23010  0.87900  Biso   1.000  H
  H64      1.0000 0.98040  0.23010  0.62100  Biso   1.000  H
  N41      1.0000 0.38373  0.51897  0.86744  Biso   1.000  N
  N42      1.0000 0.61627  0.51897  0.63256  Biso   1.000  N
  N43      1.0000 0.88373  0.01897  0.86744  Biso   1.000  N
  N44      1.0000 0.11627  0.01897  0.63256  Biso   1.000  N
  N45      1.0000 0.61627  0.48103  0.13256  Biso   1.000  N
  N46      1.0000 0.38373  0.48103  0.36744  Biso   1.000  N
  N47      1.0000 0.11627  0.98103  0.13256  Biso   1.000  N
  N48      1.0000 0.88373  0.98103  0.36744  Biso   1.000  N
  C105     1.0000 0.35166  0.49340  0.92890  Biso   1.000  C
  C106     1.0000 0.64834  0.49340  0.57110  Biso   1.000  C
  C107     1.0000 0.85166  0.99340  0.92890  Biso   1.000  C
  C108     1.0000 0.14834  0.99340  0.57110  Biso   1.000  C
  C109     1.0000 0.64834  0.50660  0.07110  Biso   1.000  C
  C110     1.0000 0.35166  0.50660  0.42890  Biso   1.000  C
  C111     1.0000 0.14834  0.00660  0.07110  Biso   1.000  C
  C112     1.0000 0.85166  0.00660  0.42890  Biso   1.000  C
  H65      1.0000 0.32140  0.43680  0.91690  Biso   1.000  H
  H66      1.0000 0.67860  0.43680  0.58310  Biso   1.000  H
  H67      1.0000 0.82140  0.93680  0.91690  Biso   1.000  H
  H68      1.0000 0.17860  0.93680  0.58310  Biso   1.000  H
  H69      1.0000 0.67860  0.56320  0.08310  Biso   1.000  H
  H70      1.0000 0.32140  0.56320  0.41690  Biso   1.000  H
  H71      1.0000 0.17860  0.06320  0.08310  Biso   1.000  H
  H72      1.0000 0.82140  0.06320  0.41690  Biso   1.000  H
  O17      1.0000 0.79910  0.24980  0.35360  Biso   1.000  O
  O18      1.0000 0.20090  0.24980  0.14640  Biso   1.000  O
  O19      1.0000 0.29910  0.74980  0.35360  Biso   1.000  O
  O20      1.0000 0.70090  0.74980  0.14640  Biso   1.000  O
  O21      1.0000 0.20090  0.75020  0.64640  Biso   1.000  O
  O22      1.0000 0.79910  0.75020  0.85360  Biso   1.000  O
  O23      1.0000 0.70090  0.25020  0.64640  Biso   1.000  O
  O24      1.0000 0.29910  0.25020  0.85360  Biso   1.000  O
  O25      1.0000 0.69510  0.29490  0.31310  Biso   1.000  O
  O26      1.0000 0.30490  0.29490  0.18690  Biso   1.000  O
  O27      1.0000 0.19510  0.79490  0.31310  Biso   1.000  O
  O28      1.0000 0.80490  0.79490  0.18690  Biso   1.000  O
  O29      1.0000 0.30490  0.70510  0.68690  Biso   1.000  O
  O30      1.0000 0.69510  0.70510  0.81310  Biso   1.000  O
  O31      1.0000 0.80490  0.20510  0.68690  Biso   1.000  O
  O32      1.0000 0.19510  0.20510  0.81310  Biso   1.000  O
  O33      1.0000 0.75450  0.38660  0.24540  Biso   1.000  O
  O34      1.0000 0.24550  0.38660  0.25460  Biso   1.000  O
  O35      1.0000 0.25450  0.88660  0.24540  Biso   1.000  O
  O36      1.0000 0.74550  0.88660  0.25460  Biso   1.000  O
  O37      1.0000 0.24550  0.61340  0.75460  Biso   1.000  O
  O38      1.0000 0.75450  0.61340  0.74540  Biso   1.000  O
  O39      1.0000 0.74550  0.11340  0.75460  Biso   1.000  O
  O40      1.0000 0.25450  0.11340  0.74540  Biso   1.000  O
  O41      1.0000 0.72380  0.19970  0.20500  Biso   1.000  O
  O42      1.0000 0.27620  0.19970  0.29500  Biso   1.000  O
  O43      1.0000 0.22380  0.69970  0.20500  Biso   1.000  O
  O44      1.0000 0.77620  0.69970  0.29500  Biso   1.000  O
  O45      1.0000 0.27620  0.80030  0.79500  Biso   1.000  O
  O46      1.0000 0.72380  0.80030  0.70500  Biso   1.000  O
  O47      1.0000 0.77620  0.30030  0.79500  Biso   1.000  O
  O48      1.0000 0.22380  0.30030  0.70500  Biso   1.000  O
  C113     1.0000 0.38240  0.46500  0.77171  Biso   1.000  C
  C114     1.0000 0.61760  0.46500  0.72829  Biso   1.000  C
  C115     1.0000 0.88240  0.96500  0.77171  Biso   1.000  C
  C116     1.0000 0.11760  0.96500  0.72829  Biso   1.000  C
  C117     1.0000 0.61760  0.53500  0.22829  Biso   1.000  C
  C118     1.0000 0.38240  0.53500  0.27171  Biso   1.000  C
  C119     1.0000 0.11760  0.03500  0.22829  Biso   1.000  C
  C120     1.0000 0.88240  0.03500  0.27171  Biso   1.000  C
  H73      1.0000 0.39060  0.52230  0.72720  Biso   1.000  H
  H74      1.0000 0.60940  0.52230  0.77280  Biso   1.000  H
  H75      1.0000 0.89060  0.02230  0.72720  Biso   1.000  H
  H76      1.0000 0.10940  0.02230  0.77280  Biso   1.000  H
  H77      1.0000 0.60940  0.47770  0.27280  Biso   1.000  H
  H78      1.0000 0.39060  0.47770  0.22720  Biso   1.000  H
  H79      1.0000 0.10940  0.97770  0.27280  Biso   1.000  H
  H80      1.0000 0.89060  0.97770  0.22720  Biso   1.000  H
  H81      1.0000 0.34100  0.43450  0.73810  Biso   1.000  H
  H82      1.0000 0.65900  0.43450  0.76190  Biso   1.000  H
  H83      1.0000 0.84100  0.93450  0.73810  Biso   1.000  H
  H84      1.0000 0.15900  0.93450  0.76190  Biso   1.000  H
  H85      1.0000 0.65900  0.56550  0.26190  Biso   1.000  H
  H86      1.0000 0.34100  0.56550  0.23810  Biso   1.000  H
  H87      1.0000 0.15900  0.06550  0.26190  Biso   1.000  H
  H88      1.0000 0.84100  0.06550  0.23810  Biso   1.000  H
