data_image0
_cell_length_a       9.889
_cell_length_b       11.545
_cell_length_c       9.337
_cell_angle_alpha    90
_cell_angle_beta     90
_cell_angle_gamma    90

_symmetry_space_group_name_H-M    "P 1"
_symmetry_int_tables_number       1

loop_
  _symmetry_equiv_pos_as_xyz
  'x, y, z'

loop_
  _atom_site_label
  _atom_site_occupancy
  _atom_site_fract_x
  _atom_site_fract_y
  _atom_site_fract_z
  _atom_site_thermal_displace_type
  _atom_site_B_iso_or_equiv
  _atom_site_type_symbol
  Cu1      1.0000 0.28047  0.09164  0.03104  Biso   1.000  Cu
  Cu2      1.0000 0.78047  0.40836  0.96896  Biso   1.000  Cu
  Cu3      1.0000 0.71953  0.59164  0.46896  Biso   1.000  Cu
  Cu4      1.0000 0.21953  0.90836  0.53104  Biso   1.000  Cu
  S1       1.0000 0.73980  0.13560  0.50430  Biso   1.000  S
  S2       1.0000 0.23980  0.36440  0.49570  Biso   1.000  S
  S3       1.0000 0.26020  0.63560  0.99570  Biso   1.000  S
  S4       1.0000 0.76020  0.86440  0.00430  Biso   1.000  S
  O1       1.0000 0.61210  0.28070  0.95780  Biso   1.000  O
  O2       1.0000 0.11210  0.21930  0.04220  Biso   1.000  O
  O3       1.0000 0.38790  0.78070  0.54220  Biso   1.000  O
  O4       1.0000 0.88790  0.71930  0.45780  Biso   1.000  O
  O5       1.0000 0.25090  0.02590  0.83450  Biso   1.000  O
  O6       1.0000 0.75090  0.47410  0.16550  Biso   1.000  O
  O7       1.0000 0.74910  0.52590  0.66550  Biso   1.000  O
  O8       1.0000 0.24910  0.97410  0.33450  Biso   1.000  O
  O9       1.0000 0.33300  0.03020  0.61220  Biso   1.000  O
  O10      1.0000 0.83300  0.46980  0.38780  Biso   1.000  O
  O11      1.0000 0.66700  0.53020  0.88780  Biso   1.000  O
  O12      1.0000 0.16700  0.96980  0.11220  Biso   1.000  O
  N1       1.0000 0.35300  0.17730  0.20460  Biso   1.000  N
  N2       1.0000 0.85300  0.32270  0.79540  Biso   1.000  N
  N3       1.0000 0.64700  0.67730  0.29540  Biso   1.000  N
  N4       1.0000 0.14700  0.82270  0.70460  Biso   1.000  N
  N5       1.0000 0.42550  0.16760  0.93900  Biso   1.000  N
  N6       1.0000 0.92550  0.33240  0.06100  Biso   1.000  N
  N7       1.0000 0.57450  0.66760  0.56100  Biso   1.000  N
  N8       1.0000 0.07450  0.83240  0.43900  Biso   1.000  N
  C1       1.0000 0.48340  0.23600  0.17240  Biso   1.000  C
  C2       1.0000 0.98340  0.26400  0.82760  Biso   1.000  C
  C3       1.0000 0.51660  0.73600  0.32760  Biso   1.000  C
  C4       1.0000 0.01660  0.76400  0.67240  Biso   1.000  C
  C5       1.0000 0.51110  0.23060  0.00860  Biso   1.000  C
  C6       1.0000 0.01110  0.26940  0.99140  Biso   1.000  C
  C7       1.0000 0.48890  0.73060  0.49140  Biso   1.000  C
  C8       1.0000 0.98890  0.76940  0.50860  Biso   1.000  C
  C9       1.0000 0.44110  0.14790  0.78620  Biso   1.000  C
  C10      1.0000 0.94110  0.35210  0.21380  Biso   1.000  C
  C11      1.0000 0.55890  0.64790  0.71380  Biso   1.000  C
  C12      1.0000 0.05890  0.85210  0.28620  Biso   1.000  C
  C13      1.0000 0.33400  0.06130  0.74140  Biso   1.000  C
  C14      1.0000 0.83400  0.43870  0.25860  Biso   1.000  C
  C15      1.0000 0.66600  0.56130  0.75860  Biso   1.000  C
  C16      1.0000 0.16600  0.93870  0.24140  Biso   1.000  C
  C17      1.0000 0.60030  0.17920  0.25170  Biso   1.000  C
  C18      1.0000 0.10030  0.32080  0.74830  Biso   1.000  C
  C19      1.0000 0.39970  0.67920  0.24830  Biso   1.000  C
  C20      1.0000 0.89970  0.82080  0.75170  Biso   1.000  C
  C21      1.0000 0.60100  0.20400  0.41350  Biso   1.000  C
  C22      1.0000 0.10100  0.29600  0.58650  Biso   1.000  C
  C23      1.0000 0.39900  0.70400  0.08650  Biso   1.000  C
  C24      1.0000 0.89900  0.79600  0.91350  Biso   1.000  C
  C25      1.0000 0.68930  0.99070  0.48800  Biso   1.000  C
  C26      1.0000 0.18930  0.50930  0.51200  Biso   1.000  C
  C27      1.0000 0.31070  0.49070  0.01200  Biso   1.000  C
  C28      1.0000 0.81070  0.00930  0.98800  Biso   1.000  C
  H1       1.0000 0.35700  0.13100  0.27600  Biso   1.000  H
  H2       1.0000 0.85700  0.36900  0.72400  Biso   1.000  H
  H3       1.0000 0.64300  0.63100  0.22400  Biso   1.000  H
  H4       1.0000 0.14300  0.86900  0.77600  Biso   1.000  H
  H5       1.0000 0.30200  0.23400  0.22000  Biso   1.000  H
  H6       1.0000 0.80200  0.26600  0.78000  Biso   1.000  H
  H7       1.0000 0.69800  0.73400  0.28000  Biso   1.000  H
  H8       1.0000 0.19800  0.76600  0.72000  Biso   1.000  H
  H9       1.0000 0.47900  0.32000  0.18600  Biso   1.000  H
  H10      1.0000 0.97900  0.18000  0.81400  Biso   1.000  H
  H11      1.0000 0.52100  0.82000  0.31400  Biso   1.000  H
  H12      1.0000 0.02100  0.68000  0.68600  Biso   1.000  H
  H13      1.0000 0.51800  0.11200  0.77000  Biso   1.000  H
  H14      1.0000 0.01800  0.38800  0.23000  Biso   1.000  H
  H15      1.0000 0.48200  0.61200  0.73000  Biso   1.000  H
  H16      1.0000 0.98200  0.88800  0.27000  Biso   1.000  H
  H17      1.0000 0.42300  0.21700  0.73000  Biso   1.000  H
  H18      1.0000 0.92300  0.28300  0.27000  Biso   1.000  H
  H19      1.0000 0.57700  0.71700  0.77000  Biso   1.000  H
  H20      1.0000 0.07700  0.78300  0.23000  Biso   1.000  H
  H21      1.0000 0.68500  0.20600  0.22200  Biso   1.000  H
  H22      1.0000 0.18500  0.29400  0.77800  Biso   1.000  H
  H23      1.0000 0.31500  0.70600  0.27800  Biso   1.000  H
  H24      1.0000 0.81500  0.79400  0.72200  Biso   1.000  H
  H25      1.0000 0.59800  0.09100  0.23600  Biso   1.000  H
  H26      1.0000 0.09800  0.40900  0.76400  Biso   1.000  H
  H27      1.0000 0.40200  0.59100  0.26400  Biso   1.000  H
  H28      1.0000 0.90200  0.90900  0.73600  Biso   1.000  H
  H29      1.0000 0.52700  0.17800  0.45500  Biso   1.000  H
  H30      1.0000 0.02700  0.32200  0.54500  Biso   1.000  H
  H31      1.0000 0.47300  0.67800  0.04500  Biso   1.000  H
  H32      1.0000 0.97300  0.82200  0.95500  Biso   1.000  H
  H33      1.0000 0.61300  0.28200  0.43500  Biso   1.000  H
  H34      1.0000 0.11300  0.21800  0.56500  Biso   1.000  H
  H35      1.0000 0.38700  0.78200  0.06500  Biso   1.000  H
  H36      1.0000 0.88700  0.71800  0.93500  Biso   1.000  H
  H37      1.0000 0.74000  0.93500  0.52500  Biso   1.000  H
  H38      1.0000 0.24000  0.56500  0.47500  Biso   1.000  H
  H39      1.0000 0.26000  0.43500  0.97500  Biso   1.000  H
  H40      1.0000 0.76000  0.06500  0.02500  Biso   1.000  H
  H41      1.0000 0.60000  0.97500  0.52500  Biso   1.000  H
  H42      1.0000 0.10000  0.52500  0.47500  Biso   1.000  H
  H43      1.0000 0.40000  0.47500  0.97500  Biso   1.000  H
  H44      1.0000 0.90000  0.02500  0.02500  Biso   1.000  H
  H45      1.0000 0.70000  0.96500  0.38000  Biso   1.000  H
  H46      1.0000 0.20000  0.53500  0.62000  Biso   1.000  H
  H47      1.0000 0.30000  0.46500  0.12000  Biso   1.000  H
  H48      1.0000 0.80000  0.03500  0.88000  Biso   1.000  H
