data_image0
_cell_length_a       9.651
_cell_length_b       11.43
_cell_length_c       11.6962
_cell_angle_alpha    84.475
_cell_angle_beta     65.921
_cell_angle_gamma    72.261

_symmetry_space_group_name_H-M    "P 1"
_symmetry_int_tables_number       1

loop_
  _symmetry_equiv_pos_as_xyz
  'x, y, z'

loop_
  _atom_site_label
  _atom_site_occupancy
  _atom_site_fract_x
  _atom_site_fract_y
  _atom_site_fract_z
  _atom_site_thermal_displace_type
  _atom_site_B_iso_or_equiv
  _atom_site_type_symbol
  Cu1      1.0000 0.32358  0.28905  0.89863  Biso   1.000  Cu
  Cu2      1.0000 0.67642  0.71095  0.10137  Biso   1.000  Cu
  Na1      1.0000 0.99170  0.20250  0.01830  Biso   1.000  Na
  Na2      1.0000 0.00830  0.79750  0.98170  Biso   1.000  Na
  Na3      1.0000 0.42350  0.72810  0.93810  Biso   1.000  Na
  Na4      1.0000 0.57650  0.27190  0.06190  Biso   1.000  Na
  S1       1.0000 0.31111  0.67757  0.60202  Biso   1.000  S
  S2       1.0000 0.68889  0.32243  0.39798  Biso   1.000  S
  S3       1.0000 0.08450  0.55426  0.57875  Biso   1.000  S
  S4       1.0000 0.91550  0.44574  0.42125  Biso   1.000  S
  S5       1.0000 0.55210  0.85313  0.64265  Biso   1.000  S
  S6       1.0000 0.44790  0.14687  0.35735  Biso   1.000  S
  S7       1.0000 0.82206  0.96468  0.56587  Biso   1.000  S
  S8       1.0000 0.17794  0.03532  0.43413  Biso   1.000  S
  C1       1.0000 0.07400  0.44250  0.83100  Biso   1.000  C
  C2       1.0000 0.92600  0.55750  0.16900  Biso   1.000  C
  C3       1.0000 0.27530  0.54270  0.83820  Biso   1.000  C
  C4       1.0000 0.72470  0.45730  0.16180  Biso   1.000  C
  C5       1.0000 0.17950  0.52260  0.77130  Biso   1.000  C
  C6       1.0000 0.82050  0.47740  0.22870  Biso   1.000  C
  C7       1.0000 0.19490  0.57470  0.65890  Biso   1.000  C
  C8       1.0000 0.80510  0.42530  0.34110  Biso   1.000  C
  C9       1.0000 0.38680  0.67040  0.43310  Biso   1.000  C
  C10      1.0000 0.61320  0.32960  0.56690  Biso   1.000  C
  H1       1.0000 0.40710  0.74790  0.40210  Biso   1.000  H
  H2       1.0000 0.59290  0.25210  0.59790  Biso   1.000  H
  H3       1.0000 0.48780  0.60680  0.40220  Biso   1.000  H
  H4       1.0000 0.51220  0.39320  0.59780  Biso   1.000  H
  C11      1.0000 0.28280  0.64550  0.37870  Biso   1.000  C
  C12      1.0000 0.71720  0.35450  0.62130  Biso   1.000  C
  H5       1.0000 0.21800  0.72580  0.36810  Biso   1.000  H
  H6       1.0000 0.78200  0.27420  0.63190  Biso   1.000  H
  H7       1.0000 0.35360  0.61210  0.29480  Biso   1.000  H
  H8       1.0000 0.64640  0.38790  0.70520  Biso   1.000  H
  C13      1.0000 0.19500  0.58400  0.41870  Biso   1.000  C
  C14      1.0000 0.80500  0.41600  0.58130  Biso   1.000  C
  H9       1.0000 0.25700  0.50390  0.37880  Biso   1.000  H
  H10      1.0000 0.74300  0.49610  0.62120  Biso   1.000  H
  H11      1.0000 0.11670  0.61700  0.38340  Biso   1.000  H
  H12      1.0000 0.88330  0.38300  0.61660  Biso   1.000  H
  C15      1.0000 0.62870  0.11090  0.81450  Biso   1.000  C
  C16      1.0000 0.37130  0.88910  0.18550  Biso   1.000  C
  C17      1.0000 0.39080  0.02850  0.86860  Biso   1.000  C
  C18      1.0000 0.60920  0.97150  0.13140  Biso   1.000  C
  C19      1.0000 0.55470  0.02850  0.78110  Biso   1.000  C
  C20      1.0000 0.44530  0.97150  0.21890  Biso   1.000  C
  C21      1.0000 0.63440  0.95770  0.67400  Biso   1.000  C
  C22      1.0000 0.36560  0.04230  0.32600  Biso   1.000  C
  C23      1.0000 0.70860  0.76650  0.51340  Biso   1.000  C
  C24      1.0000 0.29140  0.23350  0.48660  Biso   1.000  C
  H13      1.0000 0.79070  0.72000  0.54150  Biso   1.000  H
  H14      1.0000 0.20930  0.28000  0.45850  Biso   1.000  H
  H15      1.0000 0.66980  0.70720  0.49050  Biso   1.000  H
  H16      1.0000 0.33020  0.29280  0.50950  Biso   1.000  H
  C25      1.0000 0.78420  0.82600  0.39990  Biso   1.000  C
  C26      1.0000 0.21580  0.17400  0.60010  Biso   1.000  C
  H17      1.0000 0.71740  0.84500  0.35320  Biso   1.000  H
  H18      1.0000 0.28260  0.15500  0.64680  Biso   1.000  H
  H19      1.0000 0.88390  0.76790  0.34900  Biso   1.000  H
  H20      1.0000 0.11610  0.23210  0.65100  Biso   1.000  H
  C27      1.0000 0.81760  0.94330  0.41730  Biso   1.000  C
  C28      1.0000 0.18240  0.05670  0.58270  Biso   1.000  C
  H21      1.0000 0.73730  0.01270  0.40560  Biso   1.000  H
  H22      1.0000 0.26270  0.98730  0.59440  Biso   1.000  H
  H23      1.0000 0.91910  0.94450  0.35180  Biso   1.000  H
  H24      1.0000 0.08090  0.05550  0.64820  Biso   1.000  H
  O1       1.0000 0.11100  0.35840  0.90450  Biso   1.000  O
  O2       1.0000 0.88900  0.64160  0.09550  Biso   1.000  O
  O3       1.0000 0.95270  0.45950  0.81150  Biso   1.000  O
  O4       1.0000 0.04730  0.54050  0.18850  Biso   1.000  O
  O5       1.0000 0.35550  0.44910  0.87390  Biso   1.000  O
  O6       1.0000 0.64450  0.55090  0.12610  Biso   1.000  O
  O7       1.0000 0.27230  0.64880  0.85480  Biso   1.000  O
  O8       1.0000 0.72770  0.35120  0.14520  Biso   1.000  O
  O9       1.0000 0.54120  0.21300  0.87340  Biso   1.000  O
  O10      1.0000 0.45880  0.78700  0.12660  Biso   1.000  O
  O11      1.0000 0.77480  0.07650  0.78560  Biso   1.000  O
  O12      1.0000 0.22520  0.92350  0.21440  Biso   1.000  O
  O13      1.0000 0.28780  0.13120  0.91420  Biso   1.000  O
  O14      1.0000 0.71220  0.86880  0.08580  Biso   1.000  O
  O15      1.0000 0.35780  0.93080  0.89140  Biso   1.000  O
  O16      1.0000 0.64220  0.06920  0.10860  Biso   1.000  O
  O17      1.0000 0.27850  0.30930  0.11400  Biso   1.000  O
  O18      1.0000 0.72150  0.69070  0.88600  Biso   1.000  O
  O19      1.0000 0.84850  0.24440  0.89050  Biso   1.000  O
  O20      1.0000 0.15150  0.75560  0.10950  Biso   1.000  O
  O21      1.0000 0.06130  0.16240  0.19570  Biso   1.000  O
  O22      1.0000 0.93870  0.83760  0.80430  Biso   1.000  O
  O23      1.0000 0.00000  0.00000  0.00000  Biso   1.000  O
  O24      1.0000 0.55860  0.50090  0.94590  Biso   1.000  O
  O25      1.0000 0.44140  0.49910  0.05410  Biso   1.000  O
