data_image0
_cell_length_a       9.005
_cell_length_b       22.088
_cell_length_c       12.2598
_cell_angle_alpha    90
_cell_angle_beta     104.5
_cell_angle_gamma    90

_symmetry_space_group_name_H-M    "P 1"
_symmetry_int_tables_number       1

loop_
  _symmetry_equiv_pos_as_xyz
  'x, y, z'

loop_
  _atom_site_label
  _atom_site_occupancy
  _atom_site_fract_x
  _atom_site_fract_y
  _atom_site_fract_z
  _atom_site_thermal_displace_type
  _atom_site_B_iso_or_equiv
  _atom_site_type_symbol
  Cu1      1.0000 0.99759  0.55653  0.90907  Biso   1.000  Cu
  Cu2      1.0000 0.99759  0.94347  0.40907  Biso   1.000  Cu
  Cu3      1.0000 0.00241  0.44347  0.09093  Biso   1.000  Cu
  Cu4      1.0000 0.00241  0.05653  0.59093  Biso   1.000  Cu
  O1       1.0000 0.96140  0.55076  0.05710  Biso   1.000  O
  O2       1.0000 0.96140  0.94924  0.55710  Biso   1.000  O
  O3       1.0000 0.03860  0.44924  0.94290  Biso   1.000  O
  O4       1.0000 0.03860  0.05076  0.44290  Biso   1.000  O
  O5       1.0000 0.93460  0.60310  0.20180  Biso   1.000  O
  O6       1.0000 0.93460  0.89690  0.70180  Biso   1.000  O
  O7       1.0000 0.06540  0.39690  0.79820  Biso   1.000  O
  O8       1.0000 0.06540  0.10310  0.29820  Biso   1.000  O
  O9       1.0000 0.21020  0.57190  0.97820  Biso   1.000  O
  O10      1.0000 0.21020  0.92810  0.47820  Biso   1.000  O
  O11      1.0000 0.78980  0.42810  0.02180  Biso   1.000  O
  O12      1.0000 0.78980  0.07190  0.52180  Biso   1.000  O
  O13      1.0000 0.40330  0.60560  0.10860  Biso   1.000  O
  O14      1.0000 0.40330  0.89440  0.60860  Biso   1.000  O
  O15      1.0000 0.59670  0.39440  0.89140  Biso   1.000  O
  O16      1.0000 0.59670  0.10560  0.39140  Biso   1.000  O
  O17      1.0000 0.03470  0.55190  0.76280  Biso   1.000  O
  O18      1.0000 0.03470  0.94810  0.26280  Biso   1.000  O
  O19      1.0000 0.96530  0.44810  0.23720  Biso   1.000  O
  O20      1.0000 0.96530  0.05190  0.73720  Biso   1.000  O
  O21      1.0000 0.96750  0.55310  0.58120  Biso   1.000  O
  O22      1.0000 0.96750  0.94690  0.08120  Biso   1.000  O
  O23      1.0000 0.03250  0.44690  0.41880  Biso   1.000  O
  O24      1.0000 0.03250  0.05310  0.91880  Biso   1.000  O
  O25      1.0000 0.78060  0.56490  0.84650  Biso   1.000  O
  O26      1.0000 0.78060  0.93510  0.34650  Biso   1.000  O
  O27      1.0000 0.21940  0.43510  0.15350  Biso   1.000  O
  O28      1.0000 0.21940  0.06490  0.65350  Biso   1.000  O
  O29      1.0000 0.57730  0.60070  0.72540  Biso   1.000  O
  O30      1.0000 0.57730  0.89930  0.22540  Biso   1.000  O
  O31      1.0000 0.42270  0.39930  0.27460  Biso   1.000  O
  O32      1.0000 0.42270  0.10070  0.77460  Biso   1.000  O
  C1       1.0000 0.01170  0.59070  0.13550  Biso   1.000  C
  C2       1.0000 0.01170  0.90930  0.63550  Biso   1.000  C
  C3       1.0000 0.98830  0.40930  0.86450  Biso   1.000  C
  C4       1.0000 0.98830  0.09070  0.36450  Biso   1.000  C
  C5       1.0000 0.26380  0.59900  0.07210  Biso   1.000  C
  C6       1.0000 0.26380  0.90100  0.57210  Biso   1.000  C
  C7       1.0000 0.73620  0.40100  0.92790  Biso   1.000  C
  C8       1.0000 0.73620  0.09900  0.42790  Biso   1.000  C
  C9       1.0000 0.15790  0.62230  0.14050  Biso   1.000  C
  C10      1.0000 0.15790  0.87770  0.64050  Biso   1.000  C
  C11      1.0000 0.84210  0.37770  0.85950  Biso   1.000  C
  C12      1.0000 0.84210  0.12230  0.35950  Biso   1.000  C
  C13      1.0000 0.19750  0.67150  0.20720  Biso   1.000  C
  C14      1.0000 0.19750  0.82850  0.70720  Biso   1.000  C
  C15      1.0000 0.80250  0.32850  0.79280  Biso   1.000  C
  C16      1.0000 0.80250  0.17150  0.29280  Biso   1.000  C
  C17      1.0000 0.28320  0.79100  0.21990  Biso   1.000  C
  C18      1.0000 0.28320  0.70900  0.71990  Biso   1.000  C
  C19      1.0000 0.71680  0.20900  0.78010  Biso   1.000  C
  C20      1.0000 0.71680  0.29100  0.28010  Biso   1.000  C
  H1       1.0000 0.35370  0.82100  0.20420  Biso   1.000  H
  H2       1.0000 0.35370  0.67900  0.70420  Biso   1.000  H
  H3       1.0000 0.64630  0.17900  0.79580  Biso   1.000  H
  H4       1.0000 0.64630  0.32100  0.29580  Biso   1.000  H
  H5       1.0000 0.18640  0.79600  0.16420  Biso   1.000  H
  H6       1.0000 0.18640  0.70400  0.66420  Biso   1.000  H
  H7       1.0000 0.81360  0.20400  0.83580  Biso   1.000  H
  H8       1.0000 0.81360  0.29600  0.33580  Biso   1.000  H
  C21      1.0000 0.25810  0.80380  0.33330  Biso   1.000  C
  C22      1.0000 0.25810  0.69620  0.83330  Biso   1.000  C
  C23      1.0000 0.74190  0.19620  0.66670  Biso   1.000  C
  C24      1.0000 0.74190  0.30380  0.16670  Biso   1.000  C
  H9       1.0000 0.17250  0.83150  0.32540  Biso   1.000  H
  H10      1.0000 0.17250  0.66850  0.82540  Biso   1.000  H
  H11      1.0000 0.82750  0.16850  0.67460  Biso   1.000  H
  H12      1.0000 0.82750  0.33150  0.17460  Biso   1.000  H
  H13      1.0000 0.34850  0.82330  0.37960  Biso   1.000  H
  H14      1.0000 0.34850  0.67670  0.87960  Biso   1.000  H
  H15      1.0000 0.65150  0.17670  0.62040  Biso   1.000  H
  H16      1.0000 0.65150  0.32330  0.12040  Biso   1.000  H
  C25      1.0000 0.22570  0.74740  0.39090  Biso   1.000  C
  C26      1.0000 0.22570  0.75260  0.89090  Biso   1.000  C
  C27      1.0000 0.77430  0.25260  0.60910  Biso   1.000  C
  C28      1.0000 0.77430  0.24740  0.10910  Biso   1.000  C
  H17      1.0000 0.18410  0.75880  0.45370  Biso   1.000  H
  H18      1.0000 0.18410  0.74120  0.95370  Biso   1.000  H
  H19      1.0000 0.81590  0.24120  0.54630  Biso   1.000  H
  H20      1.0000 0.81590  0.25880  0.04630  Biso   1.000  H
  H21      1.0000 0.32190  0.72650  0.42160  Biso   1.000  H
  H22      1.0000 0.32190  0.77350  0.92160  Biso   1.000  H
  H23      1.0000 0.67810  0.27350  0.57840  Biso   1.000  H
  H24      1.0000 0.67810  0.22650  0.07840  Biso   1.000  H
  C29      1.0000 0.94730  0.56840  0.67200  Biso   1.000  C
  C30      1.0000 0.94730  0.93160  0.17200  Biso   1.000  C
  C31      1.0000 0.05270  0.43160  0.32800  Biso   1.000  C
  C32      1.0000 0.05270  0.06840  0.82800  Biso   1.000  C
  C33      1.0000 0.71690  0.59060  0.75430  Biso   1.000  C
  C34      1.0000 0.71690  0.90940  0.25430  Biso   1.000  C
  C35      1.0000 0.28310  0.40940  0.24570  Biso   1.000  C
  C36      1.0000 0.28310  0.09060  0.74570  Biso   1.000  C
  C37      1.0000 0.81370  0.60900  0.67490  Biso   1.000  C
  C38      1.0000 0.81370  0.89100  0.17490  Biso   1.000  C
  C39      1.0000 0.18630  0.39100  0.32510  Biso   1.000  C
  C40      1.0000 0.18630  0.10900  0.82510  Biso   1.000  C
  C41      1.0000 0.77790  0.65740  0.60790  Biso   1.000  C
  C42      1.0000 0.77790  0.84260  0.10790  Biso   1.000  C
  C43      1.0000 0.22210  0.34260  0.39210  Biso   1.000  C
  C44      1.0000 0.22210  0.15740  0.89210  Biso   1.000  C
  C45      1.0000 0.69840  0.77820  0.58320  Biso   1.000  C
  C46      1.0000 0.69840  0.72180  0.08320  Biso   1.000  C
  C47      1.0000 0.30160  0.22180  0.41680  Biso   1.000  C
  C48      1.0000 0.30160  0.27820  0.91680  Biso   1.000  C
  H25      1.0000 0.62930  0.80960  0.59560  Biso   1.000  H
  H26      1.0000 0.62930  0.69040  0.09560  Biso   1.000  H
  H27      1.0000 0.37070  0.19040  0.40440  Biso   1.000  H
  H28      1.0000 0.37070  0.30960  0.90440  Biso   1.000  H
  H29      1.0000 0.79680  0.78480  0.63630  Biso   1.000  H
  H30      1.0000 0.79680  0.71520  0.13630  Biso   1.000  H
  H31      1.0000 0.20320  0.21520  0.36370  Biso   1.000  H
  H32      1.0000 0.20320  0.28480  0.86370  Biso   1.000  H
  C49      1.0000 0.71920  0.78500  0.46430  Biso   1.000  C
  C50      1.0000 0.71920  0.71500  0.96430  Biso   1.000  C
  C51      1.0000 0.28080  0.21500  0.53570  Biso   1.000  C
  C52      1.0000 0.28080  0.28500  0.03570  Biso   1.000  C
  H33      1.0000 0.62620  0.80190  0.41620  Biso   1.000  H
  H34      1.0000 0.62620  0.69810  0.91620  Biso   1.000  H
  H35      1.0000 0.37380  0.19810  0.58380  Biso   1.000  H
  H36      1.0000 0.37380  0.30190  0.08380  Biso   1.000  H
  H37      1.0000 0.80200  0.81330  0.46560  Biso   1.000  H
  H38      1.0000 0.80200  0.68670  0.96560  Biso   1.000  H
  H39      1.0000 0.19800  0.18670  0.53440  Biso   1.000  H
  H40      1.0000 0.19800  0.31330  0.03440  Biso   1.000  H
  C53      1.0000 0.75420  0.72640  0.41540  Biso   1.000  C
  C54      1.0000 0.75420  0.77360  0.91540  Biso   1.000  C
  C55      1.0000 0.24580  0.27360  0.58460  Biso   1.000  C
  C56      1.0000 0.24580  0.22640  0.08460  Biso   1.000  C
  H41      1.0000 0.79710  0.73510  0.35200  Biso   1.000  H
  H42      1.0000 0.79710  0.76490  0.85200  Biso   1.000  H
  H43      1.0000 0.20290  0.26490  0.64800  Biso   1.000  H
  H44      1.0000 0.20290  0.23510  0.14800  Biso   1.000  H
  H45      1.0000 0.65880  0.70470  0.38670  Biso   1.000  H
  H46      1.0000 0.65880  0.79530  0.88670  Biso   1.000  H
  H47      1.0000 0.34120  0.29530  0.61330  Biso   1.000  H
  H48      1.0000 0.34120  0.20470  0.11330  Biso   1.000  H
  S1       1.0000 0.35811  0.71645  0.20175  Biso   1.000  S
  S2       1.0000 0.35811  0.78355  0.70175  Biso   1.000  S
  S3       1.0000 0.64189  0.28355  0.79825  Biso   1.000  S
  S4       1.0000 0.64189  0.21645  0.29825  Biso   1.000  S
  S5       1.0000 0.09420  0.69526  0.30224  Biso   1.000  S
  S6       1.0000 0.09420  0.80474  0.80224  Biso   1.000  S
  S7       1.0000 0.90580  0.30474  0.69776  Biso   1.000  S
  S8       1.0000 0.90580  0.19526  0.19776  Biso   1.000  S
  S9       1.0000 0.62490  0.70626  0.61353  Biso   1.000  S
  S10      1.0000 0.62490  0.79374  0.11353  Biso   1.000  S
  S11      1.0000 0.37510  0.29374  0.38647  Biso   1.000  S
  S12      1.0000 0.37510  0.20626  0.88647  Biso   1.000  S
  S13      1.0000 0.88540  0.67751  0.51177  Biso   1.000  S
  S14      1.0000 0.88540  0.82249  0.01177  Biso   1.000  S
  S15      1.0000 0.11460  0.32249  0.48823  Biso   1.000  S
  S16      1.0000 0.11460  0.17751  0.98823  Biso   1.000  S
  K1       1.0000 0.65041  0.55619  0.03088  Biso   1.000  K
  K2       1.0000 0.65041  0.94381  0.53088  Biso   1.000  K
  K3       1.0000 0.34959  0.44381  0.96912  Biso   1.000  K
  K4       1.0000 0.34959  0.05619  0.46912  Biso   1.000  K
  K5       1.0000 0.83660  0.54116  0.36223  Biso   1.000  K
  K6       1.0000 0.83660  0.95884  0.86223  Biso   1.000  K
  K7       1.0000 0.16340  0.45884  0.63777  Biso   1.000  K
  K8       1.0000 0.16340  0.04116  0.13777  Biso   1.000  K
  O33      1.0000 0.39970  0.53390  0.83580  Biso   1.000  O
  O34      1.0000 0.39970  0.96610  0.33580  Biso   1.000  O
  O35      1.0000 0.60030  0.46610  0.16420  Biso   1.000  O
  O36      1.0000 0.60030  0.03390  0.66420  Biso   1.000  O
  O37      1.0000 0.55680  0.58550  0.33540  Biso   1.000  O
  O38      1.0000 0.55680  0.91450  0.83540  Biso   1.000  O
  O39      1.0000 0.44320  0.41450  0.66460  Biso   1.000  O
  O40      1.0000 0.44320  0.08550  0.16460  Biso   1.000  O
