data_image0
_cell_length_a       10.0096
_cell_length_b       11.513
_cell_length_c       11.592
_cell_angle_alpha    82.159
_cell_angle_beta     66.585
_cell_angle_gamma    67.576

_symmetry_space_group_name_H-M    "P 1"
_symmetry_int_tables_number       1

loop_
  _symmetry_equiv_pos_as_xyz
  'x, y, z'

loop_
  _atom_site_label
  _atom_site_occupancy
  _atom_site_fract_x
  _atom_site_fract_y
  _atom_site_fract_z
  _atom_site_thermal_displace_type
  _atom_site_B_iso_or_equiv
  _atom_site_type_symbol
  Cu1      1.0000 0.21397  0.24337  0.60551  Biso   1.000  Cu
  Cu2      1.0000 0.78603  0.75663  0.39449  Biso   1.000  Cu
  Rb1      1.0000 0.96804  0.82159  0.58771  Biso   1.000  Rb
  Rb2      1.0000 0.03196  0.17841  0.41229  Biso   1.000  Rb
  Rb3      1.0000 0.54856  0.35303  0.40770  Biso   1.000  Rb
  Rb4      1.0000 0.45144  0.64697  0.59230  Biso   1.000  Rb
  S1       1.0000 0.68820  0.56605  0.90815  Biso   1.000  S
  S2       1.0000 0.31180  0.43395  0.09185  Biso   1.000  S
  S3       1.0000 0.17790  0.83444  0.89573  Biso   1.000  S
  S4       1.0000 0.82210  0.16556  0.10427  Biso   1.000  S
  S5       1.0000 0.38780  0.93841  0.94432  Biso   1.000  S
  S6       1.0000 0.61220  0.06159  0.05568  Biso   1.000  S
  S7       1.0000 0.93500  0.66705  0.89536  Biso   1.000  S
  S8       1.0000 0.06500  0.33295  0.10464  Biso   1.000  S
  O1       1.0000 0.24590  0.39540  0.61370  Biso   1.000  O
  O2       1.0000 0.75410  0.60460  0.38630  Biso   1.000  O
  O3       1.0000 0.17160  0.59630  0.65890  Biso   1.000  O
  O4       1.0000 0.82840  0.40370  0.34110  Biso   1.000  O
  O5       1.0000 0.00680  0.33500  0.60900  Biso   1.000  O
  O6       1.0000 0.99320  0.66500  0.39100  Biso   1.000  O
  O7       1.0000 0.78620  0.49780  0.65720  Biso   1.000  O
  O8       1.0000 0.21380  0.50220  0.34280  Biso   1.000  O
  O9       1.0000 0.18160  0.09020  0.60110  Biso   1.000  O
  O10      1.0000 0.81840  0.90980  0.39890  Biso   1.000  O
  O11      1.0000 0.20420  0.89280  0.64790  Biso   1.000  O
  O12      1.0000 0.79580  0.10720  0.35210  Biso   1.000  O
  O13      1.0000 0.40930  0.14920  0.62380  Biso   1.000  O
  O14      1.0000 0.59070  0.85080  0.37620  Biso   1.000  O
  O15      1.0000 0.55460  0.99790  0.70820  Biso   1.000  O
  O16      1.0000 0.44540  0.00210  0.29180  Biso   1.000  O
  C1       1.0000 0.14080  0.49970  0.66090  Biso   1.000  C
  C2       1.0000 0.85920  0.50030  0.33910  Biso   1.000  C
  C3       1.0000 0.92000  0.44150  0.65900  Biso   1.000  C
  C4       1.0000 0.08000  0.55850  0.34100  Biso   1.000  C
  C5       1.0000 0.97480  0.50820  0.72380  Biso   1.000  C
  C6       1.0000 0.02520  0.49180  0.27620  Biso   1.000  C
  C7       1.0000 0.87810  0.57040  0.83260  Biso   1.000  C
  C8       1.0000 0.12190  0.42960  0.16740  Biso   1.000  C
  C9       1.0000 0.64930  0.57740  0.07270  Biso   1.000  C
  C10      1.0000 0.35070  0.42260  0.92730  Biso   1.000  C
  H1       1.0000 0.54690  0.57360  0.12170  Biso   1.000  H
  H2       1.0000 0.45310  0.42640  0.87830  Biso   1.000  H
  H3       1.0000 0.72530  0.50560  0.09450  Biso   1.000  H
  H4       1.0000 0.27470  0.49440  0.90550  Biso   1.000  H
  C11      1.0000 0.65510  0.69620  0.10870  Biso   1.000  C
  C12      1.0000 0.34490  0.30380  0.89130  Biso   1.000  C
  H5       1.0000 0.59330  0.76820  0.07440  Biso   1.000  H
  H6       1.0000 0.40670  0.23180  0.92560  Biso   1.000  H
  H7       1.0000 0.61040  0.70600  0.19950  Biso   1.000  H
  H8       1.0000 0.38960  0.29400  0.80050  Biso   1.000  H
  C13      1.0000 0.81740  0.69200  0.06060  Biso   1.000  C
  C14      1.0000 0.18260  0.30800  0.93940  Biso   1.000  C
  H9       1.0000 0.87220  0.62600  0.10480  Biso   1.000  H
  H10      1.0000 0.12780  0.37400  0.89520  Biso   1.000  H
  H11      1.0000 0.81410  0.77070  0.08480  Biso   1.000  H
  H12      1.0000 0.18590  0.22930  0.91520  Biso   1.000  H
  C15      1.0000 0.22850  0.98970  0.65720  Biso   1.000  C
  C16      1.0000 0.77150  0.01030  0.34280  Biso   1.000  C
  C17      1.0000 0.43410  0.05010  0.68680  Biso   1.000  C
  C18      1.0000 0.56590  0.94990  0.31320  Biso   1.000  C
  C19      1.0000 0.31500  0.98730  0.73790  Biso   1.000  C
  C20      1.0000 0.68500  0.01270  0.26210  Biso   1.000  C
  C21      1.0000 0.29340  0.92780  0.84790  Biso   1.000  C
  C22      1.0000 0.70660  0.07220  0.15210  Biso   1.000  C
  C23      1.0000 0.25220  0.93400  0.09980  Biso   1.000  C
  C24      1.0000 0.74780  0.06600  0.90020  Biso   1.000  C
  H13      1.0000 0.29530  0.94110  0.15900  Biso   1.000  H
  H14      1.0000 0.70470  0.05890  0.84100  Biso   1.000  H
  H15      1.0000 0.15700  0.00650  0.11300  Biso   1.000  H
  H16      1.0000 0.84300  0.99350  0.88700  Biso   1.000  H
  C25      1.0000 0.21170  0.81760  0.12850  Biso   1.000  C
  C26      1.0000 0.78830  0.18240  0.87150  Biso   1.000  C
  H17      1.0000 0.30470  0.74650  0.12600  Biso   1.000  H
  H18      1.0000 0.69530  0.25350  0.87400  Biso   1.000  H
  H19      1.0000 0.13530  0.82560  0.21380  Biso   1.000  H
  H20      1.0000 0.86470  0.17440  0.78620  Biso   1.000  H
  C27      1.0000 0.15400  0.79090  0.05100  Biso   1.000  C
  C28      1.0000 0.84600  0.20910  0.94900  Biso   1.000  C
  H21      1.0000 0.04190  0.82030  0.09680  Biso   1.000  H
  H22      1.0000 0.95810  0.17970  0.90320  Biso   1.000  H
  H23      1.0000 0.18870  0.69990  0.04940  Biso   1.000  H
  H24      1.0000 0.81130  0.30010  0.95060  Biso   1.000  H
  O17      1.0000 0.77010  0.10570  0.59750  Biso   1.000  O
  O18      1.0000 0.22990  0.89430  0.40250  Biso   1.000  O
  O19      1.0000 0.61850  0.37230  0.62820  Biso   1.000  O
  O20      1.0000 0.38150  0.62770  0.37180  Biso   1.000  O
  O21      1.0000 0.31690  0.24880  0.38350  Biso   1.000  O
  O22      1.0000 0.68310  0.75120  0.61650  Biso   1.000  O
