data_image0
_cell_length_a       16.097
_cell_length_b       10.163
_cell_length_c       12.92
_cell_angle_alpha    90
_cell_angle_beta     123.1
_cell_angle_gamma    90

_symmetry_space_group_name_H-M    "P 1"
_symmetry_int_tables_number       1

loop_
  _symmetry_equiv_pos_as_xyz
  'x, y, z'

loop_
  _atom_site_label
  _atom_site_occupancy
  _atom_site_fract_x
  _atom_site_fract_y
  _atom_site_fract_z
  _atom_site_thermal_displace_type
  _atom_site_B_iso_or_equiv
  _atom_site_type_symbol
  Cu1      1.0000 0.75000  0.25000  0.50000  Biso   1.000  Cu
  Cu2      1.0000 0.25000  0.25000  0.00000  Biso   1.000  Cu
  Cu3      1.0000 0.25000  0.75000  0.50000  Biso   1.000  Cu
  Cu4      1.0000 0.75000  0.75000  0.00000  Biso   1.000  Cu
  N1       1.0000 0.30800  0.43140  0.06370  Biso   1.000  N
  N2       1.0000 0.69200  0.43140  0.43630  Biso   1.000  N
  N3       1.0000 0.80800  0.93140  0.06370  Biso   1.000  N
  N4       1.0000 0.19200  0.93140  0.43630  Biso   1.000  N
  N5       1.0000 0.69200  0.56860  0.93630  Biso   1.000  N
  N6       1.0000 0.30800  0.56860  0.56370  Biso   1.000  N
  N7       1.0000 0.19200  0.06860  0.93630  Biso   1.000  N
  N8       1.0000 0.80800  0.06860  0.56370  Biso   1.000  N
  N9       1.0000 0.11170  0.30510  0.01290  Biso   1.000  N
  N10      1.0000 0.88830  0.30510  0.48710  Biso   1.000  N
  N11      1.0000 0.61170  0.80510  0.01290  Biso   1.000  N
  N12      1.0000 0.38830  0.80510  0.48710  Biso   1.000  N
  N13      1.0000 0.88830  0.69490  0.98710  Biso   1.000  N
  N14      1.0000 0.11170  0.69490  0.51290  Biso   1.000  N
  N15      1.0000 0.38830  0.19490  0.98710  Biso   1.000  N
  N16      1.0000 0.61170  0.19490  0.51290  Biso   1.000  N
  N17      1.0000 0.94180  0.37150  0.88940  Biso   1.000  N
  N18      1.0000 0.05820  0.37150  0.61060  Biso   1.000  N
  N19      1.0000 0.44180  0.87150  0.88940  Biso   1.000  N
  N20      1.0000 0.55820  0.87150  0.61060  Biso   1.000  N
  N21      1.0000 0.05820  0.62850  0.11060  Biso   1.000  N
  N22      1.0000 0.94180  0.62850  0.38940  Biso   1.000  N
  N23      1.0000 0.55820  0.12850  0.11060  Biso   1.000  N
  N24      1.0000 0.44180  0.12850  0.38940  Biso   1.000  N
  N25      1.0000 0.82180  0.31780  0.67640  Biso   1.000  N
  N26      1.0000 0.17820  0.31780  0.82360  Biso   1.000  N
  N27      1.0000 0.32180  0.81780  0.67640  Biso   1.000  N
  N28      1.0000 0.67820  0.81780  0.82360  Biso   1.000  N
  N29      1.0000 0.17820  0.68220  0.32360  Biso   1.000  N
  N30      1.0000 0.82180  0.68220  0.17640  Biso   1.000  N
  N31      1.0000 0.67820  0.18220  0.32360  Biso   1.000  N
  N32      1.0000 0.32180  0.18220  0.17640  Biso   1.000  N
  C1       1.0000 0.50000  0.86530  0.25000  Biso   1.000  C
  C2       1.0000 0.00000  0.36530  0.25000  Biso   1.000  C
  C3       1.0000 0.50000  0.13470  0.75000  Biso   1.000  C
  C4       1.0000 0.00000  0.63470  0.75000  Biso   1.000  C
  H1       1.0000 0.51170  0.92400  0.20010  Biso   1.000  H
  H2       1.0000 0.48830  0.92400  0.29990  Biso   1.000  H
  H3       1.0000 0.01170  0.42400  0.20010  Biso   1.000  H
  H4       1.0000 0.98830  0.42400  0.29990  Biso   1.000  H
  H5       1.0000 0.48830  0.07600  0.79990  Biso   1.000  H
  H6       1.0000 0.51170  0.07600  0.70010  Biso   1.000  H
  H7       1.0000 0.98830  0.57600  0.79990  Biso   1.000  H
  H8       1.0000 0.01170  0.57600  0.70010  Biso   1.000  H
  C5       1.0000 0.03270  0.33410  0.95000  Biso   1.000  C
  C6       1.0000 0.96730  0.33410  0.55000  Biso   1.000  C
  C7       1.0000 0.53270  0.83410  0.95000  Biso   1.000  C
  C8       1.0000 0.46730  0.83410  0.55000  Biso   1.000  C
  C9       1.0000 0.96730  0.66590  0.05000  Biso   1.000  C
  C10      1.0000 0.03270  0.66590  0.45000  Biso   1.000  C
  C11      1.0000 0.46730  0.16590  0.05000  Biso   1.000  C
  C12      1.0000 0.53270  0.16590  0.45000  Biso   1.000  C
  C13      1.0000 0.88100  0.33820  0.77760  Biso   1.000  C
  C14      1.0000 0.11900  0.33820  0.72240  Biso   1.000  C
  C15      1.0000 0.38100  0.83820  0.77760  Biso   1.000  C
  C16      1.0000 0.61900  0.83820  0.72240  Biso   1.000  C
  C17      1.0000 0.11900  0.66180  0.22240  Biso   1.000  C
  C18      1.0000 0.88100  0.66180  0.27760  Biso   1.000  C
  C19      1.0000 0.61900  0.16180  0.22240  Biso   1.000  C
  C20      1.0000 0.38100  0.16180  0.27760  Biso   1.000  C
  C21      1.0000 0.32990  0.62160  0.18260  Biso   1.000  C
  C22      1.0000 0.67010  0.62160  0.31740  Biso   1.000  C
  C23      1.0000 0.82990  0.12160  0.18260  Biso   1.000  C
  C24      1.0000 0.17010  0.12160  0.31740  Biso   1.000  C
  C25      1.0000 0.67010  0.37840  0.81740  Biso   1.000  C
  C26      1.0000 0.32990  0.37840  0.68260  Biso   1.000  C
  C27      1.0000 0.17010  0.87840  0.81740  Biso   1.000  C
  C28      1.0000 0.82990  0.87840  0.68260  Biso   1.000  C
  H9       1.0000 0.32030  0.66240  0.23980  Biso   1.000  H
  H10      1.0000 0.67970  0.66240  0.26020  Biso   1.000  H
  H11      1.0000 0.82030  0.16240  0.23980  Biso   1.000  H
  H12      1.0000 0.17970  0.16240  0.26020  Biso   1.000  H
  H13      1.0000 0.67970  0.33760  0.76020  Biso   1.000  H
  H14      1.0000 0.32030  0.33760  0.73980  Biso   1.000  H
  H15      1.0000 0.17970  0.83760  0.76020  Biso   1.000  H
  H16      1.0000 0.82030  0.83760  0.73980  Biso   1.000  H
  C29      1.0000 0.29710  0.49630  0.14500  Biso   1.000  C
  C30      1.0000 0.70290  0.49630  0.35500  Biso   1.000  C
  C31      1.0000 0.79710  0.99630  0.14500  Biso   1.000  C
  C32      1.0000 0.20290  0.99630  0.35500  Biso   1.000  C
  C33      1.0000 0.70290  0.50370  0.85500  Biso   1.000  C
  C34      1.0000 0.29710  0.50370  0.64500  Biso   1.000  C
  C35      1.0000 0.20290  0.00370  0.85500  Biso   1.000  C
  C36      1.0000 0.79710  0.00370  0.64500  Biso   1.000  C
  H17      1.0000 0.26530  0.45390  0.17780  Biso   1.000  H
  H18      1.0000 0.73470  0.45390  0.32220  Biso   1.000  H
  H19      1.0000 0.76530  0.95390  0.17780  Biso   1.000  H
  H20      1.0000 0.23470  0.95390  0.32220  Biso   1.000  H
  H21      1.0000 0.73470  0.54610  0.82220  Biso   1.000  H
  H22      1.0000 0.26530  0.54610  0.67780  Biso   1.000  H
  H23      1.0000 0.23470  0.04610  0.82220  Biso   1.000  H
  H24      1.0000 0.76530  0.04610  0.67780  Biso   1.000  H
  C37      1.0000 0.35450  0.49530  0.01970  Biso   1.000  C
  C38      1.0000 0.64550  0.49530  0.48030  Biso   1.000  C
  C39      1.0000 0.85450  0.99530  0.01970  Biso   1.000  C
  C40      1.0000 0.14550  0.99530  0.48030  Biso   1.000  C
  C41      1.0000 0.64550  0.50470  0.98030  Biso   1.000  C
  C42      1.0000 0.35450  0.50470  0.51970  Biso   1.000  C
  C43      1.0000 0.14550  0.00470  0.98030  Biso   1.000  C
  C44      1.0000 0.85450  0.00470  0.51970  Biso   1.000  C
  H25      1.0000 0.36390  0.45200  0.96350  Biso   1.000  H
  H26      1.0000 0.63610  0.45200  0.53650  Biso   1.000  H
  H27      1.0000 0.86390  0.95200  0.96350  Biso   1.000  H
  H28      1.0000 0.13610  0.95200  0.53650  Biso   1.000  H
  H29      1.0000 0.63610  0.54800  0.03650  Biso   1.000  H
  H30      1.0000 0.36390  0.54800  0.46350  Biso   1.000  H
  H31      1.0000 0.13610  0.04800  0.03650  Biso   1.000  H
  H32      1.0000 0.86390  0.04800  0.46350  Biso   1.000  H
  C45      1.0000 0.37700  0.68760  0.13640  Biso   1.000  C
  C46      1.0000 0.62300  0.68760  0.36360  Biso   1.000  C
  C47      1.0000 0.87700  0.18760  0.13640  Biso   1.000  C
  C48      1.0000 0.12300  0.18760  0.36360  Biso   1.000  C
  C49      1.0000 0.62300  0.31240  0.86360  Biso   1.000  C
  C50      1.0000 0.37700  0.31240  0.63640  Biso   1.000  C
  C51      1.0000 0.12300  0.81240  0.86360  Biso   1.000  C
  C52      1.0000 0.87700  0.81240  0.63640  Biso   1.000  C
  C53      1.0000 0.40680  0.82980  0.16600  Biso   1.000  C
  C54      1.0000 0.59320  0.82980  0.33400  Biso   1.000  C
  C55      1.0000 0.90680  0.32980  0.16600  Biso   1.000  C
  C56      1.0000 0.09320  0.32980  0.33400  Biso   1.000  C
  C57      1.0000 0.59320  0.17020  0.83400  Biso   1.000  C
  C58      1.0000 0.40680  0.17020  0.66600  Biso   1.000  C
  C59      1.0000 0.09320  0.67020  0.83400  Biso   1.000  C
  C60      1.0000 0.90680  0.67020  0.66600  Biso   1.000  C
  H33      1.0000 0.38840  0.87230  0.08910  Biso   1.000  H
  H34      1.0000 0.61160  0.87230  0.41090  Biso   1.000  H
  H35      1.0000 0.88840  0.37230  0.08910  Biso   1.000  H
  H36      1.0000 0.11160  0.37230  0.41090  Biso   1.000  H
  H37      1.0000 0.61160  0.12770  0.91090  Biso   1.000  H
  H38      1.0000 0.38840  0.12770  0.58910  Biso   1.000  H
  H39      1.0000 0.11160  0.62770  0.91090  Biso   1.000  H
  H40      1.0000 0.88840  0.62770  0.58910  Biso   1.000  H
  H41      1.0000 0.36550  0.86810  0.19150  Biso   1.000  H
  H42      1.0000 0.63450  0.86810  0.30850  Biso   1.000  H
  H43      1.0000 0.86550  0.36810  0.19150  Biso   1.000  H
  H44      1.0000 0.13450  0.36810  0.30850  Biso   1.000  H
  H45      1.0000 0.63450  0.13190  0.80850  Biso   1.000  H
  H46      1.0000 0.36550  0.13190  0.69150  Biso   1.000  H
  H47      1.0000 0.13450  0.63190  0.80850  Biso   1.000  H
  H48      1.0000 0.86550  0.63190  0.69150  Biso   1.000  H
  C61      1.0000 0.38910  0.62100  0.05270  Biso   1.000  C
  C62      1.0000 0.61090  0.62100  0.44730  Biso   1.000  C
  C63      1.0000 0.88910  0.12100  0.05270  Biso   1.000  C
  C64      1.0000 0.11090  0.12100  0.44730  Biso   1.000  C
  C65      1.0000 0.61090  0.37900  0.94730  Biso   1.000  C
  C66      1.0000 0.38910  0.37900  0.55270  Biso   1.000  C
  C67      1.0000 0.11090  0.87900  0.94730  Biso   1.000  C
  C68      1.0000 0.88910  0.87900  0.55270  Biso   1.000  C
  H49      1.0000 0.42070  0.66150  0.01870  Biso   1.000  H
  H50      1.0000 0.57930  0.66150  0.48130  Biso   1.000  H
  H51      1.0000 0.92070  0.16150  0.01870  Biso   1.000  H
  H52      1.0000 0.07930  0.16150  0.48130  Biso   1.000  H
  H53      1.0000 0.57930  0.33850  0.98130  Biso   1.000  H
  H54      1.0000 0.42070  0.33850  0.51870  Biso   1.000  H
  H55      1.0000 0.07930  0.83850  0.98130  Biso   1.000  H
  H56      1.0000 0.92070  0.83850  0.51870  Biso   1.000  H
