data_image0
_cell_length_a       7.1881
_cell_length_b       16.2767
_cell_length_c       8.3375
_cell_angle_alpha    90
_cell_angle_beta     102.981
_cell_angle_gamma    90

_symmetry_space_group_name_H-M    "P 1"
_symmetry_int_tables_number       1

loop_
  _symmetry_equiv_pos_as_xyz
  'x, y, z'

loop_
  _atom_site_label
  _atom_site_occupancy
  _atom_site_fract_x
  _atom_site_fract_y
  _atom_site_fract_z
  _atom_site_thermal_displace_type
  _atom_site_B_iso_or_equiv
  _atom_site_type_symbol
  Cu1      1.0000 0.00000  0.50000  0.00000  Biso   1.000  Cu
  Cu2      1.0000 0.00000  0.00000  0.50000  Biso   1.000  Cu
  S1       1.0000 0.13350  0.59191  0.30254  Biso   1.000  S
  S2       1.0000 0.86650  0.09191  0.19746  Biso   1.000  S
  S3       1.0000 0.86650  0.40809  0.69746  Biso   1.000  S
  S4       1.0000 0.13350  0.90809  0.80254  Biso   1.000  S
  O1       1.0000 0.00084  0.52378  0.22993  Biso   1.000  O
  O2       1.0000 0.99916  0.02378  0.27007  Biso   1.000  O
  O3       1.0000 0.99916  0.47622  0.77007  Biso   1.000  O
  O4       1.0000 0.00084  0.97622  0.72993  Biso   1.000  O
  O5       1.0000 0.18695  0.63931  0.17304  Biso   1.000  O
  O6       1.0000 0.81305  0.13931  0.32696  Biso   1.000  O
  O7       1.0000 0.81305  0.36069  0.82696  Biso   1.000  O
  O8       1.0000 0.18695  0.86069  0.67304  Biso   1.000  O
  O9       1.0000 0.05756  0.63665  0.42283  Biso   1.000  O
  O10      1.0000 0.94244  0.13665  0.07717  Biso   1.000  O
  O11      1.0000 0.94244  0.36335  0.57717  Biso   1.000  O
  O12      1.0000 0.05756  0.86335  0.92283  Biso   1.000  O
  O13      1.0000 0.23765  0.44108  0.05942  Biso   1.000  O
  O14      1.0000 0.76235  0.94108  0.44058  Biso   1.000  O
  O15      1.0000 0.76235  0.55892  0.94058  Biso   1.000  O
  O16      1.0000 0.23765  0.05892  0.55942  Biso   1.000  O
  N1       1.0000 0.45209  0.35146  0.20482  Biso   1.000  N
  N2       1.0000 0.54791  0.85146  0.29518  Biso   1.000  N
  N3       1.0000 0.54791  0.64854  0.79518  Biso   1.000  N
  N4       1.0000 0.45209  0.14854  0.70482  Biso   1.000  N
  C1       1.0000 0.34095  0.54054  0.41206  Biso   1.000  C
  C2       1.0000 0.65905  0.04054  0.08794  Biso   1.000  C
  C3       1.0000 0.65905  0.45946  0.58794  Biso   1.000  C
  C4       1.0000 0.34095  0.95946  0.91206  Biso   1.000  C
  C5       1.0000 0.32292  0.48789  0.53971  Biso   1.000  C
  C6       1.0000 0.67708  0.98789  0.96029  Biso   1.000  C
  C7       1.0000 0.67708  0.51211  0.46029  Biso   1.000  C
  C8       1.0000 0.32292  0.01211  0.03971  Biso   1.000  C
  H1       1.0000 0.20300  0.48000  0.56410  Biso   1.000  H
  H2       1.0000 0.79700  0.98000  0.93590  Biso   1.000  H
  H3       1.0000 0.79700  0.52000  0.43590  Biso   1.000  H
  H4       1.0000 0.20300  0.02000  0.06410  Biso   1.000  H
  C9       1.0000 0.51616  0.55265  0.37116  Biso   1.000  C
  C10      1.0000 0.48384  0.05265  0.12884  Biso   1.000  C
  C11      1.0000 0.48384  0.44735  0.62884  Biso   1.000  C
  C12      1.0000 0.51616  0.94735  0.87116  Biso   1.000  C
  H5       1.0000 0.52700  0.58720  0.28290  Biso   1.000  H
  H6       1.0000 0.47300  0.08720  0.21710  Biso   1.000  H
  H7       1.0000 0.47300  0.41280  0.71710  Biso   1.000  H
  H8       1.0000 0.52700  0.91280  0.78290  Biso   1.000  H
  C13      1.0000 0.27713  0.38121  0.15782  Biso   1.000  C
  C14      1.0000 0.72287  0.88121  0.34218  Biso   1.000  C
  C15      1.0000 0.72287  0.61879  0.84218  Biso   1.000  C
  C16      1.0000 0.27713  0.11879  0.65782  Biso   1.000  C
  C17      1.0000 0.14048  0.33244  0.23231  Biso   1.000  C
  C18      1.0000 0.85952  0.83244  0.26769  Biso   1.000  C
  C19      1.0000 0.85952  0.66756  0.76769  Biso   1.000  C
  C20      1.0000 0.14048  0.16756  0.73231  Biso   1.000  C
  H9       1.0000 0.06600  0.37080  0.28200  Biso   1.000  H
  H10      1.0000 0.93400  0.87080  0.21800  Biso   1.000  H
  H11      1.0000 0.93400  0.62920  0.71800  Biso   1.000  H
  H12      1.0000 0.06600  0.12920  0.78200  Biso   1.000  H
  H13      1.0000 0.05800  0.30400  0.14800  Biso   1.000  H
  H14      1.0000 0.94200  0.80400  0.35200  Biso   1.000  H
  H15      1.0000 0.94200  0.69600  0.85200  Biso   1.000  H
  H16      1.0000 0.05800  0.19600  0.64800  Biso   1.000  H
  C21      1.0000 0.26834  0.27374  0.35294  Biso   1.000  C
  C22      1.0000 0.73166  0.77374  0.14706  Biso   1.000  C
  C23      1.0000 0.73166  0.72626  0.64706  Biso   1.000  C
  C24      1.0000 0.26834  0.22626  0.85294  Biso   1.000  C
  H17      1.0000 0.27600  0.29140  0.47000  Biso   1.000  H
  H18      1.0000 0.72400  0.79140  0.03000  Biso   1.000  H
  H19      1.0000 0.72400  0.70860  0.53000  Biso   1.000  H
  H20      1.0000 0.27600  0.20860  0.97000  Biso   1.000  H
  H21      1.0000 0.22500  0.21860  0.34200  Biso   1.000  H
  H22      1.0000 0.77500  0.71860  0.15800  Biso   1.000  H
  H23      1.0000 0.77500  0.78140  0.65800  Biso   1.000  H
  H24      1.0000 0.22500  0.28140  0.84200  Biso   1.000  H
  C25      1.0000 0.46694  0.28072  0.31462  Biso   1.000  C
  C26      1.0000 0.53306  0.78072  0.18538  Biso   1.000  C
  C27      1.0000 0.53306  0.71928  0.68538  Biso   1.000  C
  C28      1.0000 0.46694  0.21928  0.81462  Biso   1.000  C
  H25      1.0000 0.56900  0.29090  0.40810  Biso   1.000  H
  H26      1.0000 0.43100  0.79090  0.09190  Biso   1.000  H
  H27      1.0000 0.43100  0.70910  0.59190  Biso   1.000  H
  H28      1.0000 0.56900  0.20910  0.90810  Biso   1.000  H
  H29      1.0000 0.50500  0.23390  0.25900  Biso   1.000  H
  H30      1.0000 0.49500  0.73390  0.24100  Biso   1.000  H
  H31      1.0000 0.49500  0.76610  0.74100  Biso   1.000  H
  H32      1.0000 0.50500  0.26610  0.75900  Biso   1.000  H
  C29      1.0000 0.61553  0.37972  0.14465  Biso   1.000  C
  C30      1.0000 0.38447  0.87972  0.35535  Biso   1.000  C
  C31      1.0000 0.38447  0.62028  0.85535  Biso   1.000  C
  C32      1.0000 0.61553  0.12028  0.64465  Biso   1.000  C
  H33      1.0000 0.72480  0.38730  0.23770  Biso   1.000  H
  H34      1.0000 0.27520  0.88730  0.26230  Biso   1.000  H
  H35      1.0000 0.27520  0.61270  0.76230  Biso   1.000  H
  H36      1.0000 0.72480  0.11270  0.73770  Biso   1.000  H
  H37      1.0000 0.58450  0.43210  0.08680  Biso   1.000  H
  H38      1.0000 0.41550  0.93210  0.41320  Biso   1.000  H
  H39      1.0000 0.41550  0.56790  0.91320  Biso   1.000  H
  H40      1.0000 0.58450  0.06790  0.58680  Biso   1.000  H
  H41      1.0000 0.64760  0.33880  0.06890  Biso   1.000  H
  H42      1.0000 0.35240  0.83880  0.43110  Biso   1.000  H
  H43      1.0000 0.35240  0.66120  0.93110  Biso   1.000  H
  H44      1.0000 0.64760  0.16120  0.56890  Biso   1.000  H
