data_image0
_cell_length_a       11.1347
_cell_length_b       11.1347
_cell_length_c       60.938
_cell_angle_alpha    90
_cell_angle_beta     90
_cell_angle_gamma    120

_symmetry_space_group_name_H-M    "P 1"
_symmetry_int_tables_number       1

loop_
  _symmetry_equiv_pos_as_xyz
  'x, y, z'

loop_
  _atom_site_label
  _atom_site_occupancy
  _atom_site_fract_x
  _atom_site_fract_y
  _atom_site_fract_z
  _atom_site_thermal_displace_type
  _atom_site_B_iso_or_equiv
  _atom_site_type_symbol
  Cu1      1.0000 0.80534  0.00000  0.00000  Biso   1.000  Cu
  Cu2      1.0000 0.00000  0.80534  0.33333  Biso   1.000  Cu
  Cu3      1.0000 0.19466  0.19466  0.66667  Biso   1.000  Cu
  Cu4      1.0000 0.19466  0.00000  0.50000  Biso   1.000  Cu
  Cu5      1.0000 0.00000  0.19466  0.83333  Biso   1.000  Cu
  Cu6      1.0000 0.80534  0.80534  0.16667  Biso   1.000  Cu
  C1       1.0000 0.12230  0.97540  0.06169  Biso   1.000  C
  C2       1.0000 0.02460  0.14690  0.39502  Biso   1.000  C
  C3       1.0000 0.85310  0.87770  0.72836  Biso   1.000  C
  C4       1.0000 0.87770  0.02460  0.56169  Biso   1.000  C
  C5       1.0000 0.97540  0.85310  0.89502  Biso   1.000  C
  C6       1.0000 0.14690  0.12230  0.22836  Biso   1.000  C
  C7       1.0000 0.97540  0.12230  0.27164  Biso   1.000  C
  C8       1.0000 0.14690  0.02460  0.93831  Biso   1.000  C
  C9       1.0000 0.87770  0.85310  0.60498  Biso   1.000  C
  C10      1.0000 0.02460  0.87770  0.77164  Biso   1.000  C
  C11      1.0000 0.85310  0.97540  0.43831  Biso   1.000  C
  C12      1.0000 0.12230  0.14690  0.10498  Biso   1.000  C
  C13      1.0000 0.25490  0.09780  0.05572  Biso   1.000  C
  C14      1.0000 0.90220  0.15710  0.38905  Biso   1.000  C
  C15      1.0000 0.84290  0.74510  0.72239  Biso   1.000  C
  C16      1.0000 0.74510  0.90220  0.55572  Biso   1.000  C
  C17      1.0000 0.09780  0.84290  0.88905  Biso   1.000  C
  C18      1.0000 0.15710  0.25490  0.22239  Biso   1.000  C
  C19      1.0000 0.09780  0.25490  0.27761  Biso   1.000  C
  C20      1.0000 0.15710  0.90220  0.94428  Biso   1.000  C
  C21      1.0000 0.74510  0.84290  0.61095  Biso   1.000  C
  C22      1.0000 0.90220  0.74510  0.77761  Biso   1.000  C
  C23      1.0000 0.84290  0.09780  0.44428  Biso   1.000  C
  C24      1.0000 0.25490  0.15710  0.11095  Biso   1.000  C
  C25      1.0000 0.37980  0.10060  0.06048  Biso   1.000  C
  C26      1.0000 0.89940  0.27920  0.39381  Biso   1.000  C
  C27      1.0000 0.72080  0.62020  0.72715  Biso   1.000  C
  C28      1.0000 0.62020  0.89940  0.56048  Biso   1.000  C
  C29      1.0000 0.10060  0.72080  0.89381  Biso   1.000  C
  C30      1.0000 0.27920  0.37980  0.22715  Biso   1.000  C
  C31      1.0000 0.10060  0.37980  0.27285  Biso   1.000  C
  C32      1.0000 0.27920  0.89940  0.93952  Biso   1.000  C
  C33      1.0000 0.62020  0.72080  0.60619  Biso   1.000  C
  C34      1.0000 0.89940  0.62020  0.77285  Biso   1.000  C
  C35      1.0000 0.72080  0.10060  0.43952  Biso   1.000  C
  C36      1.0000 0.37980  0.27920  0.10619  Biso   1.000  C
  C37      1.0000 0.38170  0.99200  0.07150  Biso   1.000  C
  C38      1.0000 0.00800  0.38970  0.40483  Biso   1.000  C
  C39      1.0000 0.61030  0.61830  0.73817  Biso   1.000  C
  C40      1.0000 0.61830  0.00800  0.57150  Biso   1.000  C
  C41      1.0000 0.99200  0.61030  0.90483  Biso   1.000  C
  C42      1.0000 0.38970  0.38170  0.23817  Biso   1.000  C
  C43      1.0000 0.99200  0.38170  0.26183  Biso   1.000  C
  C44      1.0000 0.38970  0.00800  0.92850  Biso   1.000  C
  C45      1.0000 0.61830  0.61030  0.59517  Biso   1.000  C
  C46      1.0000 0.00800  0.61830  0.76183  Biso   1.000  C
  C47      1.0000 0.61030  0.99200  0.42850  Biso   1.000  C
  C48      1.0000 0.38170  0.38970  0.09517  Biso   1.000  C
  C49      1.0000 0.25020  0.86760  0.07799  Biso   1.000  C
  C50      1.0000 0.13240  0.38260  0.41132  Biso   1.000  C
  C51      1.0000 0.61740  0.74980  0.74466  Biso   1.000  C
  C52      1.0000 0.74980  0.13240  0.57799  Biso   1.000  C
  C53      1.0000 0.86760  0.61740  0.91132  Biso   1.000  C
  C54      1.0000 0.38260  0.25020  0.24466  Biso   1.000  C
  C55      1.0000 0.86760  0.25020  0.25534  Biso   1.000  C
  C56      1.0000 0.38260  0.13240  0.92201  Biso   1.000  C
  C57      1.0000 0.74980  0.61740  0.58868  Biso   1.000  C
  C58      1.0000 0.13240  0.74980  0.75534  Biso   1.000  C
  C59      1.0000 0.61740  0.86760  0.42201  Biso   1.000  C
  C60      1.0000 0.25020  0.38260  0.08868  Biso   1.000  C
  C61      1.0000 0.25530  0.20720  0.04510  Biso   1.000  C
  C62      1.0000 0.79280  0.04810  0.37843  Biso   1.000  C
  C63      1.0000 0.95190  0.74470  0.71177  Biso   1.000  C
  C64      1.0000 0.74470  0.79280  0.54510  Biso   1.000  C
  C65      1.0000 0.20720  0.95190  0.87843  Biso   1.000  C
  C66      1.0000 0.04810  0.25530  0.21177  Biso   1.000  C
  C67      1.0000 0.20720  0.25530  0.28823  Biso   1.000  C
  C68      1.0000 0.04810  0.79280  0.95490  Biso   1.000  C
  C69      1.0000 0.74470  0.95190  0.62157  Biso   1.000  C
  C70      1.0000 0.79280  0.74470  0.78823  Biso   1.000  C
  C71      1.0000 0.95190  0.20720  0.45490  Biso   1.000  C
  C72      1.0000 0.25530  0.04810  0.12157  Biso   1.000  C
  H1       1.0000 0.17030  0.20470  0.04210  Biso   1.000  H
  H2       1.0000 0.79530  0.96560  0.37543  Biso   1.000  H
  H3       1.0000 0.03440  0.82970  0.70877  Biso   1.000  H
  H4       1.0000 0.82970  0.79530  0.54210  Biso   1.000  H
  H5       1.0000 0.20470  0.03440  0.87543  Biso   1.000  H
  H6       1.0000 0.96560  0.17030  0.20877  Biso   1.000  H
  H7       1.0000 0.20470  0.17030  0.29123  Biso   1.000  H
  H8       1.0000 0.96560  0.79530  0.95790  Biso   1.000  H
  H9       1.0000 0.82970  0.03440  0.62457  Biso   1.000  H
  H10      1.0000 0.79530  0.82970  0.79123  Biso   1.000  H
  H11      1.0000 0.03440  0.20470  0.45790  Biso   1.000  H
  H12      1.0000 0.17030  0.96560  0.12457  Biso   1.000  H
  C73      1.0000 0.38050  0.32160  0.03874  Biso   1.000  C
  C74      1.0000 0.67840  0.05890  0.37207  Biso   1.000  C
  C75      1.0000 0.94110  0.61950  0.70541  Biso   1.000  C
  C76      1.0000 0.61950  0.67840  0.53874  Biso   1.000  C
  C77      1.0000 0.32160  0.94110  0.87207  Biso   1.000  C
  C78      1.0000 0.05890  0.38050  0.20541  Biso   1.000  C
  C79      1.0000 0.32160  0.38050  0.29459  Biso   1.000  C
  C80      1.0000 0.05890  0.67840  0.96126  Biso   1.000  C
  C81      1.0000 0.61950  0.94110  0.62793  Biso   1.000  C
  C82      1.0000 0.67840  0.61950  0.79459  Biso   1.000  C
  C83      1.0000 0.94110  0.32160  0.46126  Biso   1.000  C
  C84      1.0000 0.38050  0.05890  0.12793  Biso   1.000  C
  H13      1.0000 0.37960  0.39640  0.03140  Biso   1.000  H
  H14      1.0000 0.60360  0.98320  0.36473  Biso   1.000  H
  H15      1.0000 0.01680  0.62040  0.69807  Biso   1.000  H
  H16      1.0000 0.62040  0.60360  0.53140  Biso   1.000  H
  H17      1.0000 0.39640  0.01680  0.86473  Biso   1.000  H
  H18      1.0000 0.98320  0.37960  0.19807  Biso   1.000  H
  H19      1.0000 0.39640  0.37960  0.30193  Biso   1.000  H
  H20      1.0000 0.98320  0.60360  0.96860  Biso   1.000  H
  H21      1.0000 0.62040  0.01680  0.63527  Biso   1.000  H
  H22      1.0000 0.60360  0.62040  0.80193  Biso   1.000  H
  H23      1.0000 0.01680  0.39640  0.46860  Biso   1.000  H
  H24      1.0000 0.37960  0.98320  0.13527  Biso   1.000  H
  C85      1.0000 0.50290  0.32870  0.04278  Biso   1.000  C
  C86      1.0000 0.67130  0.17420  0.37611  Biso   1.000  C
  C87      1.0000 0.82580  0.49710  0.70945  Biso   1.000  C
  C88      1.0000 0.49710  0.67130  0.54278  Biso   1.000  C
  C89      1.0000 0.32870  0.82580  0.87611  Biso   1.000  C
  C90      1.0000 0.17420  0.50290  0.20945  Biso   1.000  C
  C91      1.0000 0.32870  0.50290  0.29055  Biso   1.000  C
  C92      1.0000 0.17420  0.67130  0.95722  Biso   1.000  C
  C93      1.0000 0.49710  0.82580  0.62389  Biso   1.000  C
  C94      1.0000 0.67130  0.49710  0.79055  Biso   1.000  C
  C95      1.0000 0.82580  0.32870  0.45722  Biso   1.000  C
  C96      1.0000 0.50290  0.17420  0.12389  Biso   1.000  C
  H25      1.0000 0.58660  0.40810  0.03820  Biso   1.000  H
  H26      1.0000 0.59190  0.17850  0.37153  Biso   1.000  H
  H27      1.0000 0.82150  0.41340  0.70487  Biso   1.000  H
  H28      1.0000 0.41340  0.59190  0.53820  Biso   1.000  H
  H29      1.0000 0.40810  0.82150  0.87153  Biso   1.000  H
  H30      1.0000 0.17850  0.58660  0.20487  Biso   1.000  H
  H31      1.0000 0.40810  0.58660  0.29513  Biso   1.000  H
  H32      1.0000 0.17850  0.59190  0.96180  Biso   1.000  H
  H33      1.0000 0.41340  0.82150  0.62847  Biso   1.000  H
  H34      1.0000 0.59190  0.41340  0.79513  Biso   1.000  H
  H35      1.0000 0.82150  0.40810  0.46180  Biso   1.000  H
  H36      1.0000 0.58660  0.17850  0.12847  Biso   1.000  H
  C97      1.0000 0.50820  0.21930  0.05370  Biso   1.000  C
  C98      1.0000 0.78070  0.28890  0.38703  Biso   1.000  C
  C99      1.0000 0.71110  0.49180  0.72037  Biso   1.000  C
  C100     1.0000 0.49180  0.78070  0.55370  Biso   1.000  C
  C101     1.0000 0.21930  0.71110  0.88703  Biso   1.000  C
  C102     1.0000 0.28890  0.50820  0.22037  Biso   1.000  C
  C103     1.0000 0.21930  0.50820  0.27963  Biso   1.000  C
  C104     1.0000 0.28890  0.78070  0.94630  Biso   1.000  C
  C105     1.0000 0.49180  0.71110  0.61297  Biso   1.000  C
  C106     1.0000 0.78070  0.49180  0.77963  Biso   1.000  C
  C107     1.0000 0.71110  0.21930  0.44630  Biso   1.000  C
  C108     1.0000 0.50820  0.28890  0.11297  Biso   1.000  C
  C109     1.0000 0.63130  0.22000  0.05855  Biso   1.000  C
  C110     1.0000 0.78000  0.41130  0.39188  Biso   1.000  C
  C111     1.0000 0.58870  0.36870  0.72522  Biso   1.000  C
  C112     1.0000 0.36870  0.78000  0.55855  Biso   1.000  C
  C113     1.0000 0.22000  0.58870  0.89188  Biso   1.000  C
  C114     1.0000 0.41130  0.63130  0.22522  Biso   1.000  C
  C115     1.0000 0.22000  0.63130  0.27478  Biso   1.000  C
  C116     1.0000 0.41130  0.78000  0.94145  Biso   1.000  C
  C117     1.0000 0.36870  0.58870  0.60812  Biso   1.000  C
  C118     1.0000 0.78000  0.36870  0.77478  Biso   1.000  C
  C119     1.0000 0.58870  0.22000  0.44145  Biso   1.000  C
  C120     1.0000 0.63130  0.41130  0.10812  Biso   1.000  C
  H37      1.0000 0.71740  0.29750  0.05430  Biso   1.000  H
  H38      1.0000 0.70250  0.41990  0.38763  Biso   1.000  H
  H39      1.0000 0.58010  0.28260  0.72097  Biso   1.000  H
  H40      1.0000 0.28260  0.70250  0.55430  Biso   1.000  H
  H41      1.0000 0.29750  0.58010  0.88763  Biso   1.000  H
  H42      1.0000 0.41990  0.71740  0.22097  Biso   1.000  H
  H43      1.0000 0.29750  0.71740  0.27903  Biso   1.000  H
  H44      1.0000 0.41990  0.70250  0.94570  Biso   1.000  H
  H45      1.0000 0.28260  0.58010  0.61237  Biso   1.000  H
  H46      1.0000 0.70250  0.28260  0.77903  Biso   1.000  H
  H47      1.0000 0.58010  0.29750  0.44570  Biso   1.000  H
  H48      1.0000 0.71740  0.41990  0.11237  Biso   1.000  H
  C121     1.0000 0.63040  0.11260  0.06914  Biso   1.000  C
  C122     1.0000 0.88740  0.51780  0.40247  Biso   1.000  C
  C123     1.0000 0.48220  0.36960  0.73581  Biso   1.000  C
  C124     1.0000 0.36960  0.88740  0.56914  Biso   1.000  C
  C125     1.0000 0.11260  0.48220  0.90247  Biso   1.000  C
  C126     1.0000 0.51780  0.63040  0.23581  Biso   1.000  C
  C127     1.0000 0.11260  0.63040  0.26419  Biso   1.000  C
  C128     1.0000 0.51780  0.88740  0.93086  Biso   1.000  C
  C129     1.0000 0.36960  0.48220  0.59753  Biso   1.000  C
  C130     1.0000 0.88740  0.36960  0.76419  Biso   1.000  C
  C131     1.0000 0.48220  0.11260  0.43086  Biso   1.000  C
  C132     1.0000 0.63040  0.51780  0.09753  Biso   1.000  C
  H49      1.0000 0.71600  0.11640  0.07210  Biso   1.000  H
  H50      1.0000 0.88360  0.59960  0.40543  Biso   1.000  H
  H51      1.0000 0.40040  0.28400  0.73877  Biso   1.000  H
  H52      1.0000 0.28400  0.88360  0.57210  Biso   1.000  H
  H53      1.0000 0.11640  0.40040  0.90543  Biso   1.000  H
  H54      1.0000 0.59960  0.71600  0.23877  Biso   1.000  H
  H55      1.0000 0.11640  0.71600  0.26123  Biso   1.000  H
  H56      1.0000 0.59960  0.88360  0.92790  Biso   1.000  H
  H57      1.0000 0.28400  0.40040  0.59457  Biso   1.000  H
  H58      1.0000 0.88360  0.28400  0.76123  Biso   1.000  H
  H59      1.0000 0.40040  0.11640  0.42790  Biso   1.000  H
  H60      1.0000 0.71600  0.59960  0.09457  Biso   1.000  H
  C133     1.0000 0.50550  0.99510  0.07587  Biso   1.000  C
  C134     1.0000 0.00490  0.51040  0.40920  Biso   1.000  C
  C135     1.0000 0.48960  0.49450  0.74254  Biso   1.000  C
  C136     1.0000 0.49450  0.00490  0.57587  Biso   1.000  C
  C137     1.0000 0.99510  0.48960  0.90920  Biso   1.000  C
  C138     1.0000 0.51040  0.50550  0.24254  Biso   1.000  C
  C139     1.0000 0.99510  0.50550  0.25746  Biso   1.000  C
  C140     1.0000 0.51040  0.00490  0.92413  Biso   1.000  C
  C141     1.0000 0.49450  0.48960  0.59080  Biso   1.000  C
  C142     1.0000 0.00490  0.49450  0.75746  Biso   1.000  C
  C143     1.0000 0.48960  0.99510  0.42413  Biso   1.000  C
  C144     1.0000 0.50550  0.51040  0.09080  Biso   1.000  C
  H61      1.0000 0.50630  0.92020  0.08320  Biso   1.000  H
  H62      1.0000 0.07980  0.58610  0.41653  Biso   1.000  H
  H63      1.0000 0.41390  0.49370  0.74987  Biso   1.000  H
  H64      1.0000 0.49370  0.07980  0.58320  Biso   1.000  H
  H65      1.0000 0.92020  0.41390  0.91653  Biso   1.000  H
  H66      1.0000 0.58610  0.50630  0.24987  Biso   1.000  H
  H67      1.0000 0.92020  0.50630  0.25013  Biso   1.000  H
  H68      1.0000 0.58610  0.07980  0.91680  Biso   1.000  H
  H69      1.0000 0.49370  0.41390  0.58347  Biso   1.000  H
  H70      1.0000 0.07980  0.49370  0.75013  Biso   1.000  H
  H71      1.0000 0.41390  0.92020  0.41680  Biso   1.000  H
  H72      1.0000 0.50630  0.58610  0.08347  Biso   1.000  H
  C145     1.0000 0.99710  0.73470  0.07563  Biso   1.000  C
  C146     1.0000 0.26530  0.26240  0.40896  Biso   1.000  C
  C147     1.0000 0.73760  0.00290  0.74230  Biso   1.000  C
  C148     1.0000 0.00290  0.26530  0.57563  Biso   1.000  C
  C149     1.0000 0.73470  0.73760  0.90896  Biso   1.000  C
  C150     1.0000 0.26240  0.99710  0.24230  Biso   1.000  C
  C151     1.0000 0.73470  0.99710  0.25770  Biso   1.000  C
  C152     1.0000 0.26240  0.26530  0.92437  Biso   1.000  C
  C153     1.0000 0.00290  0.73760  0.59104  Biso   1.000  C
  C154     1.0000 0.26530  0.00290  0.75770  Biso   1.000  C
  C155     1.0000 0.73760  0.73470  0.42437  Biso   1.000  C
  C156     1.0000 0.99710  0.26240  0.09104  Biso   1.000  C
  H73      1.0000 0.91980  0.75430  0.07680  Biso   1.000  H
  H74      1.0000 0.24570  0.16550  0.41013  Biso   1.000  H
  H75      1.0000 0.83450  0.08020  0.74347  Biso   1.000  H
  H76      1.0000 0.08020  0.24570  0.57680  Biso   1.000  H
  H77      1.0000 0.75430  0.83450  0.91013  Biso   1.000  H
  H78      1.0000 0.16550  0.91980  0.24347  Biso   1.000  H
  H79      1.0000 0.75430  0.91980  0.25653  Biso   1.000  H
  H80      1.0000 0.16550  0.24570  0.92320  Biso   1.000  H
  H81      1.0000 0.08020  0.83450  0.58987  Biso   1.000  H
  H82      1.0000 0.24570  0.08020  0.75653  Biso   1.000  H
  H83      1.0000 0.83450  0.75430  0.42320  Biso   1.000  H
  H84      1.0000 0.91980  0.16550  0.08987  Biso   1.000  H
  H85      1.0000 0.00210  0.69200  0.08960  Biso   1.000  H
  H86      1.0000 0.30800  0.31010  0.42293  Biso   1.000  H
  H87      1.0000 0.68990  0.99790  0.75627  Biso   1.000  H
  H88      1.0000 0.99790  0.30800  0.58960  Biso   1.000  H
  H89      1.0000 0.69200  0.68990  0.92293  Biso   1.000  H
  H90      1.0000 0.31010  0.00210  0.25627  Biso   1.000  H
  H91      1.0000 0.69200  0.00210  0.24373  Biso   1.000  H
  H92      1.0000 0.31010  0.30800  0.91040  Biso   1.000  H
  H93      1.0000 0.99790  0.68990  0.57707  Biso   1.000  H
  H94      1.0000 0.30800  0.99790  0.74373  Biso   1.000  H
  H95      1.0000 0.68990  0.69200  0.41040  Biso   1.000  H
  H96      1.0000 0.00210  0.31010  0.07707  Biso   1.000  H
  C157     1.0000 0.96990  0.63640  0.05720  Biso   1.000  C
  C158     1.0000 0.36360  0.33350  0.39053  Biso   1.000  C
  C159     1.0000 0.66650  0.03010  0.72387  Biso   1.000  C
  C160     1.0000 0.03010  0.36360  0.55720  Biso   1.000  C
  C161     1.0000 0.63640  0.66650  0.89053  Biso   1.000  C
  C162     1.0000 0.33350  0.96990  0.22387  Biso   1.000  C
  C163     1.0000 0.63640  0.96990  0.27613  Biso   1.000  C
  C164     1.0000 0.33350  0.36360  0.94280  Biso   1.000  C
  C165     1.0000 0.03010  0.66650  0.60947  Biso   1.000  C
  C166     1.0000 0.36360  0.03010  0.77613  Biso   1.000  C
  C167     1.0000 0.66650  0.63640  0.44280  Biso   1.000  C
  C168     1.0000 0.96990  0.33350  0.10947  Biso   1.000  C
  C169     1.0000 0.04020  0.57040  0.05087  Biso   1.000  C
  C170     1.0000 0.42960  0.46980  0.38420  Biso   1.000  C
  C171     1.0000 0.53020  0.95980  0.71754  Biso   1.000  C
  C172     1.0000 0.95980  0.42960  0.55087  Biso   1.000  C
  C173     1.0000 0.57040  0.53020  0.88420  Biso   1.000  C
  C174     1.0000 0.46980  0.04020  0.21754  Biso   1.000  C
  C175     1.0000 0.57040  0.04020  0.28246  Biso   1.000  C
  C176     1.0000 0.46980  0.42960  0.94913  Biso   1.000  C
  C177     1.0000 0.95980  0.53020  0.61580  Biso   1.000  C
  C178     1.0000 0.42960  0.95980  0.78246  Biso   1.000  C
  C179     1.0000 0.53020  0.57040  0.44913  Biso   1.000  C
  C180     1.0000 0.04020  0.46980  0.11580  Biso   1.000  C
  H97      1.0000 0.11300  0.56730  0.05850  Biso   1.000  H
  H98      1.0000 0.43270  0.54570  0.39183  Biso   1.000  H
  H99      1.0000 0.45430  0.88700  0.72517  Biso   1.000  H
  H100     1.0000 0.88700  0.43270  0.55850  Biso   1.000  H
  H101     1.0000 0.56730  0.45430  0.89183  Biso   1.000  H
  H102     1.0000 0.54570  0.11300  0.22517  Biso   1.000  H
  H103     1.0000 0.56730  0.11300  0.27483  Biso   1.000  H
  H104     1.0000 0.54570  0.43270  0.94150  Biso   1.000  H
  H105     1.0000 0.88700  0.45430  0.60817  Biso   1.000  H
  H106     1.0000 0.43270  0.88700  0.77483  Biso   1.000  H
  H107     1.0000 0.45430  0.56730  0.44150  Biso   1.000  H
  H108     1.0000 0.11300  0.54570  0.10817  Biso   1.000  H
  C181     1.0000 0.02110  0.43340  0.01614  Biso   1.000  C
  C182     1.0000 0.56660  0.58770  0.34947  Biso   1.000  C
  C183     1.0000 0.41230  0.97890  0.68281  Biso   1.000  C
  C184     1.0000 0.97890  0.56660  0.51614  Biso   1.000  C
  C185     1.0000 0.43340  0.41230  0.84947  Biso   1.000  C
  C186     1.0000 0.58770  0.02110  0.18281  Biso   1.000  C
  C187     1.0000 0.43340  0.02110  0.31719  Biso   1.000  C
  C188     1.0000 0.58770  0.56660  0.98386  Biso   1.000  C
  C189     1.0000 0.97890  0.41230  0.65053  Biso   1.000  C
  C190     1.0000 0.56660  0.97890  0.81719  Biso   1.000  C
  C191     1.0000 0.41230  0.43340  0.48386  Biso   1.000  C
  C192     1.0000 0.02110  0.58770  0.15053  Biso   1.000  C
  H109     1.0000 0.00110  0.45150  0.00090  Biso   1.000  H
  H110     1.0000 0.54850  0.54960  0.33423  Biso   1.000  H
  H111     1.0000 0.45040  0.99890  0.66757  Biso   1.000  H
  H112     1.0000 0.99890  0.54850  0.50090  Biso   1.000  H
  H113     1.0000 0.45150  0.45040  0.83423  Biso   1.000  H
  H114     1.0000 0.54960  0.00110  0.16757  Biso   1.000  H
  H115     1.0000 0.45150  0.00110  0.33243  Biso   1.000  H
  H116     1.0000 0.54960  0.54850  0.99910  Biso   1.000  H
  H117     1.0000 0.99890  0.45040  0.66577  Biso   1.000  H
  H118     1.0000 0.54850  0.99890  0.83243  Biso   1.000  H
  H119     1.0000 0.45040  0.45150  0.49910  Biso   1.000  H
  H120     1.0000 0.00110  0.54960  0.16577  Biso   1.000  H
  C193     1.0000 0.17480  0.48060  0.01785  Biso   1.000  C
  C194     1.0000 0.51940  0.69420  0.35118  Biso   1.000  C
  C195     1.0000 0.30580  0.82520  0.68452  Biso   1.000  C
  C196     1.0000 0.82520  0.51940  0.51785  Biso   1.000  C
  C197     1.0000 0.48060  0.30580  0.85118  Biso   1.000  C
  C198     1.0000 0.69420  0.17480  0.18452  Biso   1.000  C
  C199     1.0000 0.48060  0.17480  0.31548  Biso   1.000  C
  C200     1.0000 0.69420  0.51940  0.98215  Biso   1.000  C
  C201     1.0000 0.82520  0.30580  0.64882  Biso   1.000  C
  C202     1.0000 0.51940  0.82520  0.81548  Biso   1.000  C
  C203     1.0000 0.30580  0.48060  0.48215  Biso   1.000  C
  C204     1.0000 0.17480  0.69420  0.14882  Biso   1.000  C
  H121     1.0000 0.22940  0.58050  0.01500  Biso   1.000  H
  H122     1.0000 0.41950  0.64890  0.34833  Biso   1.000  H
  H123     1.0000 0.35110  0.77060  0.68167  Biso   1.000  H
  H124     1.0000 0.77060  0.41950  0.51500  Biso   1.000  H
  H125     1.0000 0.58050  0.35110  0.84833  Biso   1.000  H
  H126     1.0000 0.64890  0.22940  0.18167  Biso   1.000  H
  H127     1.0000 0.58050  0.22940  0.31833  Biso   1.000  H
  H128     1.0000 0.64890  0.41950  0.98500  Biso   1.000  H
  H129     1.0000 0.77060  0.35110  0.65167  Biso   1.000  H
  H130     1.0000 0.41950  0.77060  0.81833  Biso   1.000  H
  H131     1.0000 0.35110  0.58050  0.48500  Biso   1.000  H
  H132     1.0000 0.22940  0.64890  0.15167  Biso   1.000  H
  H133     1.0000 0.19850  0.43060  0.00700  Biso   1.000  H
  H134     1.0000 0.56940  0.76790  0.34033  Biso   1.000  H
  H135     1.0000 0.23210  0.80150  0.67367  Biso   1.000  H
  H136     1.0000 0.80150  0.56940  0.50700  Biso   1.000  H
  H137     1.0000 0.43060  0.23210  0.84033  Biso   1.000  H
  H138     1.0000 0.76790  0.19850  0.17367  Biso   1.000  H
  H139     1.0000 0.43060  0.19850  0.32633  Biso   1.000  H
  H140     1.0000 0.76790  0.56940  0.99300  Biso   1.000  H
  H141     1.0000 0.80150  0.23210  0.65967  Biso   1.000  H
  H142     1.0000 0.56940  0.80150  0.82633  Biso   1.000  H
  H143     1.0000 0.23210  0.43060  0.49300  Biso   1.000  H
  H144     1.0000 0.19850  0.76790  0.15967  Biso   1.000  H
  H145     1.0000 0.19530  0.46120  0.03260  Biso   1.000  H
  H146     1.0000 0.53880  0.73410  0.36593  Biso   1.000  H
  H147     1.0000 0.26590  0.80470  0.69927  Biso   1.000  H
  H148     1.0000 0.80470  0.53880  0.53260  Biso   1.000  H
  H149     1.0000 0.46120  0.26590  0.86593  Biso   1.000  H
  H150     1.0000 0.73410  0.19530  0.19927  Biso   1.000  H
  H151     1.0000 0.46120  0.19530  0.30073  Biso   1.000  H
  H152     1.0000 0.73410  0.53880  0.96740  Biso   1.000  H
  H153     1.0000 0.80470  0.26590  0.63407  Biso   1.000  H
  H154     1.0000 0.53880  0.80470  0.80073  Biso   1.000  H
  H155     1.0000 0.26590  0.46120  0.46740  Biso   1.000  H
  H156     1.0000 0.19530  0.73410  0.13407  Biso   1.000  H
  C205     1.0000 0.93770  0.27710  0.02044  Biso   1.000  C
  C206     1.0000 0.72290  0.66060  0.35377  Biso   1.000  C
  C207     1.0000 0.33940  0.06230  0.68711  Biso   1.000  C
  C208     1.0000 0.06230  0.72290  0.52044  Biso   1.000  C
  C209     1.0000 0.27710  0.33940  0.85377  Biso   1.000  C
  C210     1.0000 0.66060  0.93770  0.18711  Biso   1.000  C
  C211     1.0000 0.27710  0.93770  0.31289  Biso   1.000  C
  C212     1.0000 0.66060  0.72290  0.97956  Biso   1.000  C
  C213     1.0000 0.06230  0.33940  0.64623  Biso   1.000  C
  C214     1.0000 0.72290  0.06230  0.81289  Biso   1.000  C
  C215     1.0000 0.33940  0.27710  0.47956  Biso   1.000  C
  C216     1.0000 0.93770  0.66060  0.14623  Biso   1.000  C
  C217     1.0000 0.99660  0.89340  0.00829  Biso   1.000  C
  C218     1.0000 0.10660  0.10320  0.34162  Biso   1.000  C
  C219     1.0000 0.89680  0.00340  0.67496  Biso   1.000  C
  C220     1.0000 0.00340  0.10660  0.50829  Biso   1.000  C
  C221     1.0000 0.89340  0.89680  0.84162  Biso   1.000  C
  C222     1.0000 0.10320  0.99660  0.17496  Biso   1.000  C
  C223     1.0000 0.89340  0.99660  0.32504  Biso   1.000  C
  C224     1.0000 0.10320  0.10660  0.99171  Biso   1.000  C
  C225     1.0000 0.00340  0.89680  0.65838  Biso   1.000  C
  C226     1.0000 0.10660  0.00340  0.82504  Biso   1.000  C
  C227     1.0000 0.89680  0.89340  0.49171  Biso   1.000  C
  C228     1.0000 0.99660  0.10320  0.15838  Biso   1.000  C
  H157     1.0000 0.91560  0.81710  0.01430  Biso   1.000  H
  H158     1.0000 0.18290  0.09850  0.34763  Biso   1.000  H
  H159     1.0000 0.90150  0.08440  0.68097  Biso   1.000  H
  H160     1.0000 0.08440  0.18290  0.51430  Biso   1.000  H
  H161     1.0000 0.81710  0.90150  0.84763  Biso   1.000  H
  H162     1.0000 0.09850  0.91560  0.18097  Biso   1.000  H
  H163     1.0000 0.81710  0.91560  0.31903  Biso   1.000  H
  H164     1.0000 0.09850  0.18290  0.98570  Biso   1.000  H
  H165     1.0000 0.08440  0.90150  0.65237  Biso   1.000  H
  H166     1.0000 0.18290  0.08440  0.81903  Biso   1.000  H
  H167     1.0000 0.90150  0.81710  0.48570  Biso   1.000  H
  H168     1.0000 0.91560  0.09850  0.15237  Biso   1.000  H
  C229     1.0000 0.11800  0.88970  0.00851  Biso   1.000  C
  C230     1.0000 0.11030  0.22830  0.34184  Biso   1.000  C
  C231     1.0000 0.77170  0.88200  0.67518  Biso   1.000  C
  C232     1.0000 0.88200  0.11030  0.50851  Biso   1.000  C
  C233     1.0000 0.88970  0.77170  0.84184  Biso   1.000  C
  C234     1.0000 0.22830  0.11800  0.17518  Biso   1.000  C
  C235     1.0000 0.88970  0.11800  0.32482  Biso   1.000  C
  C236     1.0000 0.22830  0.11030  0.99149  Biso   1.000  C
  C237     1.0000 0.88200  0.77170  0.65816  Biso   1.000  C
  C238     1.0000 0.11030  0.88200  0.82482  Biso   1.000  C
  C239     1.0000 0.77170  0.88970  0.49149  Biso   1.000  C
  C240     1.0000 0.11800  0.22830  0.15816  Biso   1.000  C
  H169     1.0000 0.11940  0.81150  0.01450  Biso   1.000  H
  H170     1.0000 0.18850  0.30790  0.34783  Biso   1.000  H
  H171     1.0000 0.69210  0.88060  0.68117  Biso   1.000  H
  H172     1.0000 0.88060  0.18850  0.51450  Biso   1.000  H
  H173     1.0000 0.81150  0.69210  0.84783  Biso   1.000  H
  H174     1.0000 0.30790  0.11940  0.18117  Biso   1.000  H
  H175     1.0000 0.81150  0.11940  0.31883  Biso   1.000  H
  H176     1.0000 0.30790  0.18850  0.98550  Biso   1.000  H
  H177     1.0000 0.88060  0.69210  0.65217  Biso   1.000  H
  H178     1.0000 0.18850  0.88060  0.81883  Biso   1.000  H
  H179     1.0000 0.69210  0.81150  0.48550  Biso   1.000  H
  H180     1.0000 0.11940  0.30790  0.15217  Biso   1.000  H
  C241     1.0000 0.23920  0.00000  0.00000  Biso   1.000  C
  C242     1.0000 0.00000  0.23920  0.33333  Biso   1.000  C
  C243     1.0000 0.76080  0.76080  0.66667  Biso   1.000  C
  C244     1.0000 0.76080  0.00000  0.50000  Biso   1.000  C
  C245     1.0000 0.00000  0.76080  0.83333  Biso   1.000  C
  C246     1.0000 0.23920  0.23920  0.16667  Biso   1.000  C
  C247     1.0000 0.37240  0.00000  0.00000  Biso   1.000  C
  C248     1.0000 0.00000  0.37240  0.33333  Biso   1.000  C
  C249     1.0000 0.62760  0.62760  0.66667  Biso   1.000  C
  C250     1.0000 0.62760  0.00000  0.50000  Biso   1.000  C
  C251     1.0000 0.00000  0.62760  0.83333  Biso   1.000  C
  C252     1.0000 0.37240  0.37240  0.16667  Biso   1.000  C
  C253     1.0000 0.39690  0.91750  0.01424  Biso   1.000  C
  C254     1.0000 0.08250  0.47940  0.34757  Biso   1.000  C
  C255     1.0000 0.52060  0.60310  0.68091  Biso   1.000  C
  C256     1.0000 0.60310  0.08250  0.51424  Biso   1.000  C
  C257     1.0000 0.91750  0.52060  0.84757  Biso   1.000  C
  C258     1.0000 0.47940  0.39690  0.18091  Biso   1.000  C
  C259     1.0000 0.91750  0.39690  0.31909  Biso   1.000  C
  C260     1.0000 0.47940  0.08250  0.98576  Biso   1.000  C
  C261     1.0000 0.60310  0.52060  0.65243  Biso   1.000  C
  C262     1.0000 0.08250  0.60310  0.81909  Biso   1.000  C
  C263     1.0000 0.52060  0.91750  0.48576  Biso   1.000  C
  C264     1.0000 0.39690  0.47940  0.15243  Biso   1.000  C
  H181     1.0000 0.32720  0.85920  0.02440  Biso   1.000  H
  H182     1.0000 0.14080  0.46800  0.35773  Biso   1.000  H
  H183     1.0000 0.53200  0.67280  0.69107  Biso   1.000  H
  H184     1.0000 0.67280  0.14080  0.52440  Biso   1.000  H
  H185     1.0000 0.85920  0.53200  0.85773  Biso   1.000  H
  H186     1.0000 0.46800  0.32720  0.19107  Biso   1.000  H
  H187     1.0000 0.85920  0.32720  0.30893  Biso   1.000  H
  H188     1.0000 0.46800  0.14080  0.97560  Biso   1.000  H
  H189     1.0000 0.67280  0.53200  0.64227  Biso   1.000  H
  H190     1.0000 0.14080  0.67280  0.80893  Biso   1.000  H
  H191     1.0000 0.53200  0.85920  0.47560  Biso   1.000  H
  H192     1.0000 0.32720  0.46800  0.14227  Biso   1.000  H
  C265     1.0000 0.52220  0.91950  0.01378  Biso   1.000  C
  C266     1.0000 0.08050  0.60270  0.34711  Biso   1.000  C
  C267     1.0000 0.39730  0.47780  0.68045  Biso   1.000  C
  C268     1.0000 0.47780  0.08050  0.51378  Biso   1.000  C
  C269     1.0000 0.91950  0.39730  0.84711  Biso   1.000  C
  C270     1.0000 0.60270  0.52220  0.18045  Biso   1.000  C
  C271     1.0000 0.91950  0.52220  0.31955  Biso   1.000  C
  C272     1.0000 0.60270  0.08050  0.98622  Biso   1.000  C
  C273     1.0000 0.47780  0.39730  0.65289  Biso   1.000  C
  C274     1.0000 0.08050  0.47780  0.81955  Biso   1.000  C
  C275     1.0000 0.39730  0.91950  0.48622  Biso   1.000  C
  C276     1.0000 0.52220  0.60270  0.15289  Biso   1.000  C
  H193     1.0000 0.53570  0.86130  0.02370  Biso   1.000  H
  H194     1.0000 0.13870  0.67440  0.35703  Biso   1.000  H
  H195     1.0000 0.32560  0.46430  0.69037  Biso   1.000  H
  H196     1.0000 0.46430  0.13870  0.52370  Biso   1.000  H
  H197     1.0000 0.86130  0.32560  0.85703  Biso   1.000  H
  H198     1.0000 0.67440  0.53570  0.19037  Biso   1.000  H
  H199     1.0000 0.86130  0.53570  0.30963  Biso   1.000  H
  H200     1.0000 0.67440  0.13870  0.97630  Biso   1.000  H
  H201     1.0000 0.46430  0.32560  0.64297  Biso   1.000  H
  H202     1.0000 0.13870  0.46430  0.80963  Biso   1.000  H
  H203     1.0000 0.32560  0.86130  0.47630  Biso   1.000  H
  H204     1.0000 0.53570  0.67440  0.14297  Biso   1.000  H
  N1       1.0000 0.12850  0.86560  0.07206  Biso   1.000  N
  N2       1.0000 0.13440  0.26290  0.40539  Biso   1.000  N
  N3       1.0000 0.73710  0.87150  0.73873  Biso   1.000  N
  N4       1.0000 0.87150  0.13440  0.57206  Biso   1.000  N
  N5       1.0000 0.86560  0.73710  0.90539  Biso   1.000  N
  N6       1.0000 0.26290  0.12850  0.23873  Biso   1.000  N
  N7       1.0000 0.86560  0.12850  0.26127  Biso   1.000  N
  N8       1.0000 0.26290  0.13440  0.92794  Biso   1.000  N
  N9       1.0000 0.87150  0.73710  0.59461  Biso   1.000  N
  N10      1.0000 0.13440  0.87150  0.76127  Biso   1.000  N
  N11      1.0000 0.73710  0.86560  0.42794  Biso   1.000  N
  N12      1.0000 0.12850  0.26290  0.09461  Biso   1.000  N
  N13      1.0000 0.87390  0.61300  0.04163  Biso   1.000  N
  N14      1.0000 0.38700  0.26090  0.37496  Biso   1.000  N
  N15      1.0000 0.73910  0.12610  0.70830  Biso   1.000  N
  N16      1.0000 0.12610  0.38700  0.54163  Biso   1.000  N
  N17      1.0000 0.61300  0.73910  0.87496  Biso   1.000  N
  N18      1.0000 0.26090  0.87390  0.20830  Biso   1.000  N
  N19      1.0000 0.61300  0.87390  0.29170  Biso   1.000  N
  N20      1.0000 0.26090  0.38700  0.95837  Biso   1.000  N
  N21      1.0000 0.12610  0.73910  0.62504  Biso   1.000  N
  N22      1.0000 0.38700  0.12610  0.79170  Biso   1.000  N
  N23      1.0000 0.73910  0.61300  0.45837  Biso   1.000  N
  N24      1.0000 0.87390  0.26090  0.12504  Biso   1.000  N
  N25      1.0000 0.88290  0.53600  0.02598  Biso   1.000  N
  N26      1.0000 0.46400  0.34690  0.35931  Biso   1.000  N
  N27      1.0000 0.65310  0.11710  0.69265  Biso   1.000  N
  N28      1.0000 0.11710  0.46400  0.52598  Biso   1.000  N
  N29      1.0000 0.53600  0.65310  0.85931  Biso   1.000  N
  N30      1.0000 0.34690  0.88290  0.19265  Biso   1.000  N
  N31      1.0000 0.53600  0.88290  0.30735  Biso   1.000  N
  N32      1.0000 0.34690  0.46400  0.97402  Biso   1.000  N
  N33      1.0000 0.11710  0.65310  0.64069  Biso   1.000  N
  N34      1.0000 0.46400  0.11710  0.80735  Biso   1.000  N
  N35      1.0000 0.65310  0.53600  0.47402  Biso   1.000  N
  N36      1.0000 0.88290  0.34690  0.14069  Biso   1.000  N
  N37      1.0000 0.98410  0.51070  0.03145  Biso   1.000  N
  N38      1.0000 0.48930  0.47340  0.36478  Biso   1.000  N
  N39      1.0000 0.52660  0.01590  0.69812  Biso   1.000  N
  N40      1.0000 0.01590  0.48930  0.53145  Biso   1.000  N
  N41      1.0000 0.51070  0.52660  0.86478  Biso   1.000  N
  N42      1.0000 0.47340  0.98410  0.19812  Biso   1.000  N
  N43      1.0000 0.51070  0.98410  0.30188  Biso   1.000  N
  N44      1.0000 0.47340  0.48930  0.96855  Biso   1.000  N
  N45      1.0000 0.01590  0.52660  0.63522  Biso   1.000  N
  N46      1.0000 0.48930  0.01590  0.80188  Biso   1.000  N
  N47      1.0000 0.52660  0.51070  0.46855  Biso   1.000  N
  N48      1.0000 0.98410  0.47340  0.13522  Biso   1.000  N
  N49      1.0000 0.98760  0.00000  0.00000  Biso   1.000  N
  N50      1.0000 0.00000  0.98760  0.33333  Biso   1.000  N
  N51      1.0000 0.01240  0.01240  0.66667  Biso   1.000  N
  N52      1.0000 0.01240  0.00000  0.50000  Biso   1.000  N
  N53      1.0000 0.00000  0.01240  0.83333  Biso   1.000  N
  N54      1.0000 0.98760  0.98760  0.16667  Biso   1.000  N
  N55      1.0000 0.62540  0.00000  0.00000  Biso   1.000  N
  N56      1.0000 0.00000  0.62540  0.33333  Biso   1.000  N
  N57      1.0000 0.37460  0.37460  0.66667  Biso   1.000  N
  N58      1.0000 0.37460  0.00000  0.50000  Biso   1.000  N
  N59      1.0000 0.00000  0.37460  0.83333  Biso   1.000  N
  N60      1.0000 0.62540  0.62540  0.16667  Biso   1.000  N
  O1       1.0000 0.00990  0.96490  0.05785  Biso   1.000  O
  O2       1.0000 0.03510  0.04500  0.39118  Biso   1.000  O
  O3       1.0000 0.95500  0.99010  0.72452  Biso   1.000  O
  O4       1.0000 0.99010  0.03510  0.55785  Biso   1.000  O
  O5       1.0000 0.96490  0.95500  0.89118  Biso   1.000  O
  O6       1.0000 0.04500  0.00990  0.22452  Biso   1.000  O
  O7       1.0000 0.96490  0.00990  0.27548  Biso   1.000  O
  O8       1.0000 0.04500  0.03510  0.94215  Biso   1.000  O
  O9       1.0000 0.99010  0.95500  0.60882  Biso   1.000  O
  O10      1.0000 0.03510  0.99010  0.77548  Biso   1.000  O
  O11      1.0000 0.95500  0.96490  0.44215  Biso   1.000  O
  O12      1.0000 0.00990  0.04500  0.10882  Biso   1.000  O
  O13      1.0000 0.24410  0.76980  0.08790  Biso   1.000  O
  O14      1.0000 0.23020  0.47430  0.42123  Biso   1.000  O
  O15      1.0000 0.52570  0.75590  0.75457  Biso   1.000  O
  O16      1.0000 0.75590  0.23020  0.58790  Biso   1.000  O
  O17      1.0000 0.76980  0.52570  0.92123  Biso   1.000  O
  O18      1.0000 0.47430  0.24410  0.25457  Biso   1.000  O
  O19      1.0000 0.76980  0.24410  0.24543  Biso   1.000  O
  O20      1.0000 0.47430  0.23020  0.91210  Biso   1.000  O
  O21      1.0000 0.75590  0.52570  0.57877  Biso   1.000  O
  O22      1.0000 0.23020  0.75590  0.74543  Biso   1.000  O
  O23      1.0000 0.52570  0.76980  0.41210  Biso   1.000  O
  O24      1.0000 0.24410  0.47430  0.07877  Biso   1.000  O
  O25      1.0000 0.90630  0.20450  0.00313  Biso   1.000  O
  O26      1.0000 0.79550  0.70180  0.33646  Biso   1.000  O
  O27      1.0000 0.29820  0.09370  0.66980  Biso   1.000  O
  O28      1.0000 0.09370  0.79550  0.50313  Biso   1.000  O
  O29      1.0000 0.20450  0.29820  0.83646  Biso   1.000  O
  O30      1.0000 0.70180  0.90630  0.16980  Biso   1.000  O
  O31      1.0000 0.20450  0.90630  0.33020  Biso   1.000  O
  O32      1.0000 0.70180  0.79550  0.99687  Biso   1.000  O
  O33      1.0000 0.09370  0.29820  0.66354  Biso   1.000  O
  O34      1.0000 0.79550  0.09370  0.83020  Biso   1.000  O
  O35      1.0000 0.29820  0.20450  0.49687  Biso   1.000  O
  O36      1.0000 0.90630  0.70180  0.16354  Biso   1.000  O
  O37      1.0000 0.91170  0.23460  0.03944  Biso   1.000  O
  O38      1.0000 0.76540  0.67710  0.37277  Biso   1.000  O
  O39      1.0000 0.32290  0.08830  0.70611  Biso   1.000  O
  O40      1.0000 0.08830  0.76540  0.53944  Biso   1.000  O
  O41      1.0000 0.23460  0.32290  0.87277  Biso   1.000  O
  O42      1.0000 0.67710  0.91170  0.20611  Biso   1.000  O
  O43      1.0000 0.23460  0.91170  0.29389  Biso   1.000  O
  O44      1.0000 0.67710  0.76540  0.96056  Biso   1.000  O
  O45      1.0000 0.08830  0.32290  0.62723  Biso   1.000  O
  O46      1.0000 0.76540  0.08830  0.79389  Biso   1.000  O
  O47      1.0000 0.32290  0.23460  0.46056  Biso   1.000  O
  O48      1.0000 0.91170  0.67710  0.12723  Biso   1.000  O
  O49      1.0000 0.77330  0.95320  0.03923  Biso   1.000  O
  O50      1.0000 0.04680  0.82010  0.37256  Biso   1.000  O
  O51      1.0000 0.17990  0.22670  0.70590  Biso   1.000  O
  O52      1.0000 0.22670  0.04680  0.53923  Biso   1.000  O
  O53      1.0000 0.95320  0.17990  0.87256  Biso   1.000  O
  O54      1.0000 0.82010  0.77330  0.20590  Biso   1.000  O
  O55      1.0000 0.95320  0.77330  0.29410  Biso   1.000  O
  O56      1.0000 0.82010  0.04680  0.96077  Biso   1.000  O
  O57      1.0000 0.22670  0.17990  0.62744  Biso   1.000  O
  O58      1.0000 0.04680  0.22670  0.79410  Biso   1.000  O
  O59      1.0000 0.17990  0.95320  0.46077  Biso   1.000  O
  O60      1.0000 0.77330  0.82010  0.12744  Biso   1.000  O
  H205     1.0000 0.81290  0.03700  0.04300  Biso   1.000  H
  H206     1.0000 0.96300  0.77590  0.37633  Biso   1.000  H
  H207     1.0000 0.22410  0.18710  0.70967  Biso   1.000  H
  H208     1.0000 0.18710  0.96300  0.54300  Biso   1.000  H
  H209     1.0000 0.03700  0.22410  0.87633  Biso   1.000  H
  H210     1.0000 0.77590  0.81290  0.20967  Biso   1.000  H
  H211     1.0000 0.03700  0.81290  0.29033  Biso   1.000  H
  H212     1.0000 0.77590  0.96300  0.95700  Biso   1.000  H
  H213     1.0000 0.18710  0.22410  0.62367  Biso   1.000  H
  H214     1.0000 0.96300  0.18710  0.79033  Biso   1.000  H
  H215     1.0000 0.22410  0.03700  0.45700  Biso   1.000  H
  H216     1.0000 0.81290  0.77590  0.12367  Biso   1.000  H
  H217     1.0000 0.82470  0.92940  0.04570  Biso   1.000  H
  H218     1.0000 0.07060  0.89530  0.37903  Biso   1.000  H
  H219     1.0000 0.10470  0.17530  0.71237  Biso   1.000  H
  H220     1.0000 0.17530  0.07060  0.54570  Biso   1.000  H
  H221     1.0000 0.92940  0.10470  0.87903  Biso   1.000  H
  H222     1.0000 0.89530  0.82470  0.21237  Biso   1.000  H
  H223     1.0000 0.92940  0.82470  0.28763  Biso   1.000  H
  H224     1.0000 0.89530  0.07060  0.95430  Biso   1.000  H
  H225     1.0000 0.17530  0.10470  0.62097  Biso   1.000  H
  H226     1.0000 0.07060  0.17530  0.78763  Biso   1.000  H
  H227     1.0000 0.10470  0.92940  0.45430  Biso   1.000  H
  H228     1.0000 0.82470  0.89530  0.12097  Biso   1.000  H
