data_image0
_cell_length_a       11.9328
_cell_length_b       12.2111
_cell_length_c       18.6534
_cell_angle_alpha    90
_cell_angle_beta     90
_cell_angle_gamma    90

_symmetry_space_group_name_H-M    "P 1"
_symmetry_int_tables_number       1

loop_
  _symmetry_equiv_pos_as_xyz
  'x, y, z'

loop_
  _atom_site_label
  _atom_site_occupancy
  _atom_site_fract_x
  _atom_site_fract_y
  _atom_site_fract_z
  _atom_site_thermal_displace_type
  _atom_site_B_iso_or_equiv
  _atom_site_type_symbol
  Se1      1.0000 0.71757  0.65666  0.66621  Biso   1.000  Se
  Se2      1.0000 0.21757  0.84335  0.33379  Biso   1.000  Se
  Se3      1.0000 0.28243  0.15666  0.83379  Biso   1.000  Se
  Se4      1.0000 0.78243  0.34335  0.16621  Biso   1.000  Se
  Se5      1.0000 0.28243  0.34335  0.33379  Biso   1.000  Se
  Se6      1.0000 0.78243  0.15666  0.66621  Biso   1.000  Se
  Se7      1.0000 0.71757  0.84335  0.16621  Biso   1.000  Se
  Se8      1.0000 0.21757  0.65666  0.83379  Biso   1.000  Se
  Se9      1.0000 0.86381  0.87856  0.71959  Biso   1.000  Se
  Se10     1.0000 0.36381  0.62144  0.28041  Biso   1.000  Se
  Se11     1.0000 0.13619  0.37856  0.78041  Biso   1.000  Se
  Se12     1.0000 0.63619  0.12144  0.21958  Biso   1.000  Se
  Se13     1.0000 0.13619  0.12144  0.28041  Biso   1.000  Se
  Se14     1.0000 0.63619  0.37856  0.71959  Biso   1.000  Se
  Se15     1.0000 0.86381  0.62144  0.21958  Biso   1.000  Se
  Se16     1.0000 0.36381  0.87856  0.78041  Biso   1.000  Se
  Cu1      1.0000 0.49385  0.50916  0.60076  Biso   1.000  Cu
  Cu2      1.0000 0.99385  0.99084  0.39924  Biso   1.000  Cu
  Cu3      1.0000 0.50615  0.00916  0.89924  Biso   1.000  Cu
  Cu4      1.0000 0.00615  0.49084  0.10076  Biso   1.000  Cu
  Cu5      1.0000 0.50615  0.49084  0.39924  Biso   1.000  Cu
  Cu6      1.0000 0.00615  0.00916  0.60076  Biso   1.000  Cu
  Cu7      1.0000 0.49385  0.99084  0.10076  Biso   1.000  Cu
  Cu8      1.0000 0.99385  0.50916  0.89924  Biso   1.000  Cu
  Cl1      1.0000 0.64466  0.48915  0.52725  Biso   1.000  Cl
  Cl2      1.0000 0.14466  0.01085  0.47275  Biso   1.000  Cl
  Cl3      1.0000 0.35534  0.98915  0.97275  Biso   1.000  Cl
  Cl4      1.0000 0.85534  0.51085  0.02725  Biso   1.000  Cl
  Cl5      1.0000 0.35534  0.51085  0.47275  Biso   1.000  Cl
  Cl6      1.0000 0.85534  0.98915  0.52725  Biso   1.000  Cl
  Cl7      1.0000 0.64466  0.01085  0.02725  Biso   1.000  Cl
  Cl8      1.0000 0.14466  0.48915  0.97275  Biso   1.000  Cl
  Cl9      1.0000 0.35202  0.52325  0.67965  Biso   1.000  Cl
  Cl10     1.0000 0.85202  0.97675  0.32035  Biso   1.000  Cl
  Cl11     1.0000 0.64798  0.02325  0.82035  Biso   1.000  Cl
  Cl12     1.0000 0.14798  0.47675  0.17965  Biso   1.000  Cl
  Cl13     1.0000 0.64798  0.47675  0.32035  Biso   1.000  Cl
  Cl14     1.0000 0.14798  0.02325  0.67965  Biso   1.000  Cl
  Cl15     1.0000 0.35202  0.97675  0.17965  Biso   1.000  Cl
  Cl16     1.0000 0.85202  0.52325  0.82035  Biso   1.000  Cl
  N1       1.0000 0.51088  0.67732  0.59760  Biso   1.000  N
  N2       1.0000 0.01088  0.82268  0.40240  Biso   1.000  N
  N3       1.0000 0.48912  0.17732  0.90240  Biso   1.000  N
  N4       1.0000 0.98912  0.32268  0.09760  Biso   1.000  N
  N5       1.0000 0.48912  0.32268  0.40240  Biso   1.000  N
  N6       1.0000 0.98912  0.17732  0.59760  Biso   1.000  N
  N7       1.0000 0.51088  0.82268  0.09760  Biso   1.000  N
  N8       1.0000 0.01088  0.67732  0.90240  Biso   1.000  N
  N9       1.0000 0.02238  0.84427  0.61416  Biso   1.000  N
  N10      1.0000 0.52238  0.65573  0.38584  Biso   1.000  N
  N11      1.0000 0.97762  0.34427  0.88584  Biso   1.000  N
  N12      1.0000 0.47762  0.15573  0.11416  Biso   1.000  N
  N13      1.0000 0.97762  0.15573  0.38584  Biso   1.000  N
  N14      1.0000 0.47762  0.34427  0.61416  Biso   1.000  N
  N15      1.0000 0.02238  0.65573  0.11416  Biso   1.000  N
  N16      1.0000 0.52238  0.84427  0.88584  Biso   1.000  N
  C1       1.0000 0.60080  0.73550  0.61911  Biso   1.000  C
  C2       1.0000 0.10080  0.76450  0.38089  Biso   1.000  C
  C3       1.0000 0.39920  0.23550  0.88089  Biso   1.000  C
  C4       1.0000 0.89920  0.26450  0.11911  Biso   1.000  C
  C5       1.0000 0.39920  0.26450  0.38089  Biso   1.000  C
  C6       1.0000 0.89920  0.23550  0.61911  Biso   1.000  C
  C7       1.0000 0.60080  0.76450  0.11911  Biso   1.000  C
  C8       1.0000 0.10080  0.73550  0.88089  Biso   1.000  C
  C9       1.0000 0.42641  0.73344  0.56716  Biso   1.000  C
  C10      1.0000 0.92641  0.76656  0.43284  Biso   1.000  C
  C11      1.0000 0.57359  0.23344  0.93284  Biso   1.000  C
  C12      1.0000 0.07359  0.26656  0.06716  Biso   1.000  C
  C13      1.0000 0.57359  0.26656  0.43284  Biso   1.000  C
  C14      1.0000 0.07359  0.23344  0.56716  Biso   1.000  C
  C15      1.0000 0.42641  0.76656  0.06716  Biso   1.000  C
  C16      1.0000 0.92641  0.73344  0.93284  Biso   1.000  C
  H1       1.0000 0.36190  0.69370  0.55250  Biso   1.000  H
  H2       1.0000 0.86190  0.80630  0.44750  Biso   1.000  H
  H3       1.0000 0.63810  0.19370  0.94750  Biso   1.000  H
  H4       1.0000 0.13810  0.30630  0.05250  Biso   1.000  H
  H5       1.0000 0.63810  0.30630  0.44750  Biso   1.000  H
  H6       1.0000 0.13810  0.19370  0.55250  Biso   1.000  H
  H7       1.0000 0.36190  0.80630  0.05250  Biso   1.000  H
  H8       1.0000 0.86190  0.69370  0.94750  Biso   1.000  H
  C17      1.0000 0.42764  0.84482  0.55591  Biso   1.000  C
  C18      1.0000 0.92764  0.65518  0.44409  Biso   1.000  C
  C19      1.0000 0.57236  0.34482  0.94409  Biso   1.000  C
  C20      1.0000 0.07236  0.15518  0.05591  Biso   1.000  C
  C21      1.0000 0.57236  0.15518  0.44409  Biso   1.000  C
  C22      1.0000 0.07236  0.34482  0.55591  Biso   1.000  C
  C23      1.0000 0.42764  0.65518  0.05591  Biso   1.000  C
  C24      1.0000 0.92764  0.84482  0.94409  Biso   1.000  C
  H9       1.0000 0.36500  0.88110  0.53540  Biso   1.000  H
  H10      1.0000 0.86500  0.61890  0.46460  Biso   1.000  H
  H11      1.0000 0.63500  0.38110  0.96460  Biso   1.000  H
  H12      1.0000 0.13500  0.11890  0.03540  Biso   1.000  H
  H13      1.0000 0.63500  0.11890  0.46460  Biso   1.000  H
  H14      1.0000 0.13500  0.38110  0.53540  Biso   1.000  H
  H15      1.0000 0.36500  0.61890  0.03540  Biso   1.000  H
  H16      1.0000 0.86500  0.88110  0.96460  Biso   1.000  H
  C25      1.0000 0.52264  0.90246  0.57536  Biso   1.000  C
  C26      1.0000 0.02264  0.59754  0.42464  Biso   1.000  C
  C27      1.0000 0.47736  0.40246  0.92464  Biso   1.000  C
  C28      1.0000 0.97736  0.09754  0.07536  Biso   1.000  C
  C29      1.0000 0.47736  0.09754  0.42464  Biso   1.000  C
  C30      1.0000 0.97736  0.40246  0.57536  Biso   1.000  C
  C31      1.0000 0.52264  0.59754  0.07536  Biso   1.000  C
  C32      1.0000 0.02264  0.90246  0.92464  Biso   1.000  C
  H17      1.0000 0.52770  0.97900  0.56670  Biso   1.000  H
  H18      1.0000 0.02770  0.52100  0.43330  Biso   1.000  H
  H19      1.0000 0.47230  0.47900  0.93330  Biso   1.000  H
  H20      1.0000 0.97230  0.02100  0.06670  Biso   1.000  H
  H21      1.0000 0.47230  0.02100  0.43330  Biso   1.000  H
  H22      1.0000 0.97230  0.47900  0.56670  Biso   1.000  H
  H23      1.0000 0.52770  0.52100  0.06670  Biso   1.000  H
  H24      1.0000 0.02770  0.97900  0.93330  Biso   1.000  H
  C33      1.0000 0.61010  0.84699  0.60769  Biso   1.000  C
  C34      1.0000 0.11010  0.65301  0.39231  Biso   1.000  C
  C35      1.0000 0.38990  0.34699  0.89231  Biso   1.000  C
  C36      1.0000 0.88990  0.15301  0.10769  Biso   1.000  C
  C37      1.0000 0.38990  0.15301  0.39231  Biso   1.000  C
  C38      1.0000 0.88990  0.34699  0.60769  Biso   1.000  C
  C39      1.0000 0.61010  0.65301  0.10769  Biso   1.000  C
  C40      1.0000 0.11010  0.84699  0.89231  Biso   1.000  C
  H25      1.0000 0.67590  0.88510  0.62190  Biso   1.000  H
  H26      1.0000 0.17590  0.61490  0.37810  Biso   1.000  H
  H27      1.0000 0.32410  0.38510  0.87810  Biso   1.000  H
  H28      1.0000 0.82410  0.11490  0.12190  Biso   1.000  H
  H29      1.0000 0.32410  0.11490  0.37810  Biso   1.000  H
  H30      1.0000 0.82410  0.38510  0.62190  Biso   1.000  H
  H31      1.0000 0.67590  0.61490  0.12190  Biso   1.000  H
  H32      1.0000 0.17590  0.88510  0.87810  Biso   1.000  H
  C41      1.0000 0.75374  0.76402  0.74016  Biso   1.000  C
  C42      1.0000 0.25374  0.73598  0.25984  Biso   1.000  C
  C43      1.0000 0.24626  0.26402  0.75984  Biso   1.000  C
  C44      1.0000 0.74626  0.23598  0.24016  Biso   1.000  C
  C45      1.0000 0.24626  0.23598  0.25984  Biso   1.000  C
  C46      1.0000 0.74626  0.26402  0.74016  Biso   1.000  C
  C47      1.0000 0.75374  0.73598  0.24016  Biso   1.000  C
  C48      1.0000 0.25374  0.76402  0.75984  Biso   1.000  C
  H33      1.0000 0.78050  0.72320  0.78270  Biso   1.000  H
  H34      1.0000 0.28050  0.77680  0.21730  Biso   1.000  H
  H35      1.0000 0.21950  0.22320  0.71730  Biso   1.000  H
  H36      1.0000 0.71950  0.27680  0.28270  Biso   1.000  H
  H37      1.0000 0.21950  0.27680  0.21730  Biso   1.000  H
  H38      1.0000 0.71950  0.22320  0.78270  Biso   1.000  H
  H39      1.0000 0.78050  0.77680  0.28270  Biso   1.000  H
  H40      1.0000 0.28050  0.72320  0.71730  Biso   1.000  H
  H41      1.0000 0.68300  0.80070  0.75410  Biso   1.000  H
  H42      1.0000 0.18300  0.69930  0.24590  Biso   1.000  H
  H43      1.0000 0.31700  0.30070  0.74590  Biso   1.000  H
  H44      1.0000 0.81700  0.19930  0.25410  Biso   1.000  H
  H45      1.0000 0.31700  0.19930  0.24590  Biso   1.000  H
  H46      1.0000 0.81700  0.30070  0.75410  Biso   1.000  H
  H47      1.0000 0.68300  0.69930  0.25410  Biso   1.000  H
  H48      1.0000 0.18300  0.80070  0.74590  Biso   1.000  H
  C49      1.0000 0.97108  0.79346  0.66899  Biso   1.000  C
  C50      1.0000 0.47108  0.70654  0.33101  Biso   1.000  C
  C51      1.0000 0.02892  0.29346  0.83101  Biso   1.000  C
  C52      1.0000 0.52892  0.20654  0.16899  Biso   1.000  C
  C53      1.0000 0.02892  0.20654  0.33101  Biso   1.000  C
  C54      1.0000 0.52892  0.29346  0.66899  Biso   1.000  C
  C55      1.0000 0.97108  0.70654  0.16899  Biso   1.000  C
  C56      1.0000 0.47108  0.79346  0.83101  Biso   1.000  C
  C57      1.0000 0.10024  0.78760  0.57704  Biso   1.000  C
  C58      1.0000 0.60024  0.71240  0.42296  Biso   1.000  C
  C59      1.0000 0.89976  0.28760  0.92296  Biso   1.000  C
  C60      1.0000 0.39976  0.21240  0.07704  Biso   1.000  C
  C61      1.0000 0.89976  0.21240  0.42296  Biso   1.000  C
  C62      1.0000 0.39976  0.28760  0.57704  Biso   1.000  C
  C63      1.0000 0.10024  0.71240  0.07704  Biso   1.000  C
  C64      1.0000 0.60024  0.78760  0.92296  Biso   1.000  C
  H49      1.0000 0.13850  0.82320  0.53900  Biso   1.000  H
  H50      1.0000 0.63850  0.67680  0.46100  Biso   1.000  H
  H51      1.0000 0.86150  0.32320  0.96100  Biso   1.000  H
  H52      1.0000 0.36150  0.17680  0.03900  Biso   1.000  H
  H53      1.0000 0.86150  0.17680  0.46100  Biso   1.000  H
  H54      1.0000 0.36150  0.32320  0.53900  Biso   1.000  H
  H55      1.0000 0.13850  0.67680  0.03900  Biso   1.000  H
  H56      1.0000 0.63850  0.82320  0.96100  Biso   1.000  H
  C65      1.0000 0.12644  0.68032  0.59209  Biso   1.000  C
  C66      1.0000 0.62644  0.81968  0.40791  Biso   1.000  C
  C67      1.0000 0.87356  0.18032  0.90791  Biso   1.000  C
  C68      1.0000 0.37356  0.31968  0.09209  Biso   1.000  C
  C69      1.0000 0.87356  0.31968  0.40791  Biso   1.000  C
  C70      1.0000 0.37356  0.18032  0.59209  Biso   1.000  C
  C71      1.0000 0.12644  0.81968  0.09209  Biso   1.000  C
  C72      1.0000 0.62644  0.68032  0.90791  Biso   1.000  C
  H57      1.0000 0.17870  0.64170  0.56310  Biso   1.000  H
  H58      1.0000 0.67870  0.85830  0.43690  Biso   1.000  H
  H59      1.0000 0.82130  0.14170  0.93690  Biso   1.000  H
  H60      1.0000 0.32130  0.35830  0.06310  Biso   1.000  H
  H61      1.0000 0.82130  0.35830  0.43690  Biso   1.000  H
  H62      1.0000 0.32130  0.14170  0.56310  Biso   1.000  H
  H63      1.0000 0.17870  0.85830  0.06310  Biso   1.000  H
  H64      1.0000 0.67870  0.64170  0.93690  Biso   1.000  H
  C73      1.0000 0.07587  0.62914  0.64992  Biso   1.000  C
  C74      1.0000 0.57587  0.87086  0.35008  Biso   1.000  C
  C75      1.0000 0.92413  0.12914  0.85008  Biso   1.000  C
  C76      1.0000 0.42413  0.37086  0.14992  Biso   1.000  C
  C77      1.0000 0.92413  0.37086  0.35008  Biso   1.000  C
  C78      1.0000 0.42413  0.12914  0.64992  Biso   1.000  C
  C79      1.0000 0.07587  0.87086  0.14992  Biso   1.000  C
  C80      1.0000 0.57587  0.62914  0.85008  Biso   1.000  C
  H65      1.0000 0.09540  0.55630  0.66260  Biso   1.000  H
  H66      1.0000 0.59540  0.94370  0.33740  Biso   1.000  H
  H67      1.0000 0.90460  0.05630  0.83740  Biso   1.000  H
  H68      1.0000 0.40460  0.44370  0.16260  Biso   1.000  H
  H69      1.0000 0.90460  0.44370  0.33740  Biso   1.000  H
  H70      1.0000 0.40460  0.05630  0.66260  Biso   1.000  H
  H71      1.0000 0.09540  0.94370  0.16260  Biso   1.000  H
  H72      1.0000 0.59540  0.55630  0.83740  Biso   1.000  H
  C81      1.0000 0.99626  0.68635  0.68886  Biso   1.000  C
  C82      1.0000 0.49626  0.81365  0.31114  Biso   1.000  C
  C83      1.0000 0.00374  0.18635  0.81114  Biso   1.000  C
  C84      1.0000 0.50374  0.31365  0.18886  Biso   1.000  C
  C85      1.0000 0.00374  0.31365  0.31114  Biso   1.000  C
  C86      1.0000 0.50374  0.18635  0.68886  Biso   1.000  C
  C87      1.0000 0.99626  0.81365  0.18886  Biso   1.000  C
  C88      1.0000 0.49626  0.68635  0.81114  Biso   1.000  C
  H73      1.0000 0.95950  0.65310  0.72840  Biso   1.000  H
  H74      1.0000 0.45950  0.84690  0.27160  Biso   1.000  H
  H75      1.0000 0.04050  0.15310  0.77160  Biso   1.000  H
  H76      1.0000 0.54050  0.34690  0.22840  Biso   1.000  H
  H77      1.0000 0.04050  0.34690  0.27160  Biso   1.000  H
  H78      1.0000 0.54050  0.15310  0.72840  Biso   1.000  H
  H79      1.0000 0.95950  0.84690  0.22840  Biso   1.000  H
  H80      1.0000 0.45950  0.65310  0.77160  Biso   1.000  H
