data_image0
_cell_length_a       9.426
_cell_length_b       11.405
_cell_length_c       11.71
_cell_angle_alpha    90
_cell_angle_beta     95.322
_cell_angle_gamma    90

_symmetry_space_group_name_H-M    "P 1"
_symmetry_int_tables_number       1

loop_
  _symmetry_equiv_pos_as_xyz
  'x, y, z'

loop_
  _atom_site_label
  _atom_site_occupancy
  _atom_site_fract_x
  _atom_site_fract_y
  _atom_site_fract_z
  _atom_site_thermal_displace_type
  _atom_site_B_iso_or_equiv
  _atom_site_type_symbol
  Cu1      1.0000 0.00000  0.00000  0.00000  Biso   1.000  Cu
  Cu2      1.0000 0.00000  0.50000  0.50000  Biso   1.000  Cu
  C1       1.0000 0.73000  0.68180  0.86170  Biso   1.000  C
  C2       1.0000 0.27000  0.18180  0.63830  Biso   1.000  C
  C3       1.0000 0.27000  0.31820  0.13830  Biso   1.000  C
  C4       1.0000 0.73000  0.81820  0.36170  Biso   1.000  C
  H1       1.0000 0.75240  0.62640  0.80550  Biso   1.000  H
  H2       1.0000 0.24760  0.12640  0.69450  Biso   1.000  H
  H3       1.0000 0.24760  0.37360  0.19450  Biso   1.000  H
  H4       1.0000 0.75240  0.87360  0.30550  Biso   1.000  H
  C5       1.0000 0.78240  0.79250  0.85970  Biso   1.000  C
  C6       1.0000 0.21760  0.29250  0.64030  Biso   1.000  C
  C7       1.0000 0.21760  0.20750  0.14030  Biso   1.000  C
  C8       1.0000 0.78240  0.70750  0.35970  Biso   1.000  C
  H5       1.0000 0.83970  0.81310  0.80020  Biso   1.000  H
  H6       1.0000 0.16030  0.31310  0.69980  Biso   1.000  H
  H7       1.0000 0.16030  0.18690  0.19980  Biso   1.000  H
  H8       1.0000 0.83970  0.68690  0.30020  Biso   1.000  H
  N1       1.0000 0.39590  0.88200  0.14100  Biso   1.000  N
  N2       1.0000 0.60410  0.38200  0.35900  Biso   1.000  N
  N3       1.0000 0.60410  0.11800  0.85900  Biso   1.000  N
  N4       1.0000 0.39590  0.61800  0.64100  Biso   1.000  N
  H9       1.0000 0.32690  0.91730  0.17340  Biso   1.000  H
  H10      1.0000 0.67310  0.41730  0.32660  Biso   1.000  H
  H11      1.0000 0.67310  0.08270  0.82660  Biso   1.000  H
  H12      1.0000 0.32690  0.58270  0.67340  Biso   1.000  H
  H13      1.0000 0.43900  0.91810  0.08760  Biso   1.000  H
  H14      1.0000 0.56100  0.41810  0.41240  Biso   1.000  H
  H15      1.0000 0.56100  0.08190  0.91240  Biso   1.000  H
  H16      1.0000 0.43900  0.58190  0.58760  Biso   1.000  H
  N5       1.0000 0.75770  0.87390  0.93700  Biso   1.000  N
  N6       1.0000 0.24230  0.37390  0.56300  Biso   1.000  N
  N7       1.0000 0.24230  0.12610  0.06300  Biso   1.000  N
  N8       1.0000 0.75770  0.62610  0.43700  Biso   1.000  N
  N9       1.0000 0.43720  0.76820  0.17470  Biso   1.000  N
  N10      1.0000 0.56280  0.26820  0.32530  Biso   1.000  N
  N11      1.0000 0.56280  0.23180  0.82530  Biso   1.000  N
  N12      1.0000 0.43720  0.73180  0.67470  Biso   1.000  N
  C9       1.0000 0.67140  0.84490  0.01650  Biso   1.000  C
  C10      1.0000 0.32860  0.34490  0.48350  Biso   1.000  C
  C11      1.0000 0.32860  0.15510  0.98350  Biso   1.000  C
  C12      1.0000 0.67140  0.65510  0.51650  Biso   1.000  C
  H17      1.0000 0.64960  0.90280  0.07050  Biso   1.000  H
  H18      1.0000 0.35040  0.40280  0.42950  Biso   1.000  H
  H19      1.0000 0.35040  0.09720  0.92950  Biso   1.000  H
  H20      1.0000 0.64960  0.59720  0.57050  Biso   1.000  H
  N13      1.0000 0.52910  0.59210  0.15950  Biso   1.000  N
  N14      1.0000 0.47090  0.09210  0.34050  Biso   1.000  N
  N15      1.0000 0.47090  0.40790  0.84050  Biso   1.000  N
  N16      1.0000 0.52910  0.90790  0.65950  Biso   1.000  N
  C13      1.0000 0.61240  0.73490  0.02380  Biso   1.000  C
  C14      1.0000 0.38760  0.23490  0.47620  Biso   1.000  C
  C15      1.0000 0.38760  0.26510  0.97620  Biso   1.000  C
  C16      1.0000 0.61240  0.76510  0.52380  Biso   1.000  C
  N17      1.0000 0.43800  0.59080  0.24560  Biso   1.000  N
  N18      1.0000 0.56200  0.09080  0.25440  Biso   1.000  N
  N19      1.0000 0.56200  0.40920  0.75440  Biso   1.000  N
  N20      1.0000 0.43800  0.90920  0.74560  Biso   1.000  N
  C17      1.0000 0.64360  0.64980  0.94610  Biso   1.000  C
  C18      1.0000 0.35640  0.14980  0.55390  Biso   1.000  C
  C19      1.0000 0.35640  0.35020  0.05390  Biso   1.000  C
  C20      1.0000 0.64360  0.85020  0.44610  Biso   1.000  C
  H21      1.0000 0.60730  0.57240  0.95030  Biso   1.000  H
  H22      1.0000 0.39270  0.07240  0.54970  Biso   1.000  H
  H23      1.0000 0.39270  0.42760  0.04970  Biso   1.000  H
  H24      1.0000 0.60730  0.92760  0.45030  Biso   1.000  H
  N21      1.0000 0.11240  0.64300  0.45340  Biso   1.000  N
  N22      1.0000 0.88760  0.14300  0.04660  Biso   1.000  N
  N23      1.0000 0.88760  0.35700  0.54660  Biso   1.000  N
  N24      1.0000 0.11240  0.85700  0.95340  Biso   1.000  N
  C21      1.0000 0.52560  0.69930  0.11750  Biso   1.000  C
  C22      1.0000 0.47440  0.19930  0.38250  Biso   1.000  C
  C23      1.0000 0.47440  0.30070  0.88250  Biso   1.000  C
  C24      1.0000 0.52560  0.80070  0.61750  Biso   1.000  C
  N25      1.0000 0.97870  0.06320  0.84130  Biso   1.000  N
  N26      1.0000 0.02130  0.56320  0.65870  Biso   1.000  N
  N27      1.0000 0.02130  0.93680  0.15870  Biso   1.000  N
  N28      1.0000 0.97870  0.43680  0.34130  Biso   1.000  N
  C25      1.0000 0.38590  0.69620  0.25480  Biso   1.000  C
  C26      1.0000 0.61410  0.19620  0.24520  Biso   1.000  C
  C27      1.0000 0.61410  0.30380  0.74520  Biso   1.000  C
  C28      1.0000 0.38590  0.80380  0.75480  Biso   1.000  C
  N29      1.0000 0.97910  0.00590  0.75560  Biso   1.000  N
  N30      1.0000 0.02090  0.50590  0.74440  Biso   1.000  N
  N31      1.0000 0.02090  0.99410  0.24440  Biso   1.000  N
  N32      1.0000 0.97910  0.49410  0.25560  Biso   1.000  N
  C29      1.0000 0.28540  0.72560  0.33850  Biso   1.000  C
  C30      1.0000 0.71460  0.22560  0.16150  Biso   1.000  C
  C31      1.0000 0.71460  0.27440  0.66150  Biso   1.000  C
  C32      1.0000 0.28540  0.77440  0.83850  Biso   1.000  C
  N33      1.0000 0.98160  0.95290  0.67330  Biso   1.000  N
  N34      1.0000 0.01840  0.45290  0.82670  Biso   1.000  N
  N35      1.0000 0.01840  0.04710  0.32670  Biso   1.000  N
  N36      1.0000 0.98160  0.54710  0.17330  Biso   1.000  N
  C33      1.0000 0.26640  0.83480  0.38680  Biso   1.000  C
  C34      1.0000 0.73360  0.33480  0.11320  Biso   1.000  C
  C35      1.0000 0.73360  0.16520  0.61320  Biso   1.000  C
  C36      1.0000 0.26640  0.66520  0.88680  Biso   1.000  C
  H25      1.0000 0.31750  0.90100  0.36330  Biso   1.000  H
  H26      1.0000 0.68250  0.40100  0.13670  Biso   1.000  H
  H27      1.0000 0.68250  0.09900  0.63670  Biso   1.000  H
  H28      1.0000 0.31750  0.59900  0.86330  Biso   1.000  H
  C37      1.0000 0.17110  0.84610  0.47010  Biso   1.000  C
  C38      1.0000 0.82890  0.34610  0.02990  Biso   1.000  C
  C39      1.0000 0.82890  0.15390  0.52990  Biso   1.000  C
  C40      1.0000 0.17110  0.65390  0.97010  Biso   1.000  C
  H29      1.0000 0.15730  0.92000  0.50490  Biso   1.000  H
  H30      1.0000 0.84270  0.42000  0.99510  Biso   1.000  H
  H31      1.0000 0.84270  0.08000  0.49510  Biso   1.000  H
  H32      1.0000 0.15730  0.58000  0.00490  Biso   1.000  H
  C41      1.0000 0.09750  0.74930  0.50160  Biso   1.000  C
  C42      1.0000 0.90250  0.24930  0.99840  Biso   1.000  C
  C43      1.0000 0.90250  0.25070  0.49840  Biso   1.000  C
  C44      1.0000 0.09750  0.75070  0.00160  Biso   1.000  C
  H33      1.0000 0.03380  0.75740  0.55930  Biso   1.000  H
  H34      1.0000 0.96620  0.25740  0.94070  Biso   1.000  H
  H35      1.0000 0.96620  0.24260  0.44070  Biso   1.000  H
  H36      1.0000 0.03380  0.74260  0.05930  Biso   1.000  H
  C45      1.0000 0.20510  0.63350  0.37450  Biso   1.000  C
  C46      1.0000 0.79490  0.13350  0.12550  Biso   1.000  C
  C47      1.0000 0.79490  0.36650  0.62550  Biso   1.000  C
  C48      1.0000 0.20510  0.86650  0.87450  Biso   1.000  C
  H37      1.0000 0.21680  0.55870  0.34100  Biso   1.000  H
  H38      1.0000 0.78320  0.05870  0.15900  Biso   1.000  H
  H39      1.0000 0.78320  0.44130  0.65900  Biso   1.000  H
  H40      1.0000 0.21680  0.94130  0.84100  Biso   1.000  H
