data_image0
_cell_length_a       7.0708
_cell_length_b       9.784
_cell_length_c       13.836
_cell_angle_alpha    90
_cell_angle_beta     103.753
_cell_angle_gamma    90

_symmetry_space_group_name_H-M    "P 1"
_symmetry_int_tables_number       1

loop_
  _symmetry_equiv_pos_as_xyz
  'x, y, z'

loop_
  _atom_site_label
  _atom_site_occupancy
  _atom_site_fract_x
  _atom_site_fract_y
  _atom_site_fract_z
  _atom_site_thermal_displace_type
  _atom_site_B_iso_or_equiv
  _atom_site_type_symbol
  Cu1      1.0000 0.50475  0.17750  0.37965  Biso   1.000  Cu
  Cu2      1.0000 0.99525  0.67750  0.12035  Biso   1.000  Cu
  Cu3      1.0000 0.49525  0.82250  0.62035  Biso   1.000  Cu
  Cu4      1.0000 0.00475  0.32250  0.87965  Biso   1.000  Cu
  N1       1.0000 0.71170  0.30300  0.46181  Biso   1.000  N
  N2       1.0000 0.78830  0.80300  0.03819  Biso   1.000  N
  N3       1.0000 0.28830  0.69700  0.53819  Biso   1.000  N
  N4       1.0000 0.21170  0.19700  0.96181  Biso   1.000  N
  H1       1.0000 0.65560  0.37130  0.48850  Biso   1.000  H
  H2       1.0000 0.84440  0.87130  0.01150  Biso   1.000  H
  H3       1.0000 0.34440  0.62870  0.51150  Biso   1.000  H
  H4       1.0000 0.15560  0.12870  0.98850  Biso   1.000  H
  H5       1.0000 0.79020  0.25590  0.51140  Biso   1.000  H
  H6       1.0000 0.70980  0.75590  0.98860  Biso   1.000  H
  H7       1.0000 0.20980  0.74410  0.48860  Biso   1.000  H
  H8       1.0000 0.29020  0.24410  0.01140  Biso   1.000  H
  C1       1.0000 0.82400  0.35830  0.39360  Biso   1.000  C
  C2       1.0000 0.67600  0.85830  0.10640  Biso   1.000  C
  C3       1.0000 0.17600  0.64170  0.60640  Biso   1.000  C
  C4       1.0000 0.32400  0.14170  0.89360  Biso   1.000  C
  H9       1.0000 0.94060  0.40360  0.43090  Biso   1.000  H
  H10      1.0000 0.55940  0.90360  0.06910  Biso   1.000  H
  H11      1.0000 0.05940  0.59640  0.56910  Biso   1.000  H
  H12      1.0000 0.44060  0.09640  0.93090  Biso   1.000  H
  H13      1.0000 0.74640  0.42400  0.34850  Biso   1.000  H
  H14      1.0000 0.75360  0.92400  0.15150  Biso   1.000  H
  H15      1.0000 0.25360  0.57600  0.65150  Biso   1.000  H
  H16      1.0000 0.24640  0.07600  0.84850  Biso   1.000  H
  C5       1.0000 0.87710  0.23960  0.33620  Biso   1.000  C
  C6       1.0000 0.62290  0.73960  0.16380  Biso   1.000  C
  C7       1.0000 0.12290  0.76040  0.66380  Biso   1.000  C
  C8       1.0000 0.37710  0.26040  0.83620  Biso   1.000  C
  H17      1.0000 0.93460  0.27240  0.28350  Biso   1.000  H
  H18      1.0000 0.56540  0.77240  0.21650  Biso   1.000  H
  H19      1.0000 0.06540  0.72760  0.71650  Biso   1.000  H
  H20      1.0000 0.43460  0.22760  0.78350  Biso   1.000  H
  H21      1.0000 0.97090  0.18130  0.37990  Biso   1.000  H
  H22      1.0000 0.52910  0.68130  0.12010  Biso   1.000  H
  H23      1.0000 0.02910  0.81870  0.62010  Biso   1.000  H
  H24      1.0000 0.47090  0.31870  0.87990  Biso   1.000  H
  N5       1.0000 0.69700  0.16210  0.29348  Biso   1.000  N
  N6       1.0000 0.80300  0.66210  0.20652  Biso   1.000  N
  N7       1.0000 0.30300  0.83790  0.70652  Biso   1.000  N
  N8       1.0000 0.19700  0.33790  0.79348  Biso   1.000  N
  H25      1.0000 0.72690  0.07360  0.28750  Biso   1.000  H
  H26      1.0000 0.77310  0.57360  0.21250  Biso   1.000  H
  H27      1.0000 0.27310  0.92640  0.71250  Biso   1.000  H
  H28      1.0000 0.22690  0.42640  0.78750  Biso   1.000  H
  H29      1.0000 0.64250  0.19440  0.23230  Biso   1.000  H
  H30      1.0000 0.85750  0.69440  0.26770  Biso   1.000  H
  H31      1.0000 0.35750  0.80560  0.76770  Biso   1.000  H
  H32      1.0000 0.14250  0.30560  0.73230  Biso   1.000  H
  N9       1.0000 0.35650  0.16840  0.48626  Biso   1.000  N
  N10      1.0000 0.14350  0.66840  0.01374  Biso   1.000  N
  N11      1.0000 0.64350  0.83160  0.51374  Biso   1.000  N
  N12      1.0000 0.85650  0.33160  0.98626  Biso   1.000  N
  N13      1.0000 0.29640  0.05440  0.52453  Biso   1.000  N
  N14      1.0000 0.20360  0.55440  0.97547  Biso   1.000  N
  N15      1.0000 0.70360  0.94560  0.47547  Biso   1.000  N
  N16      1.0000 0.79640  0.44560  0.02453  Biso   1.000  N
  N17      1.0000 0.19220  0.09000  0.58646  Biso   1.000  N
  N18      1.0000 0.30780  0.59000  0.91354  Biso   1.000  N
  N19      1.0000 0.80780  0.91000  0.41354  Biso   1.000  N
  N20      1.0000 0.69220  0.41000  0.08646  Biso   1.000  N
  N21      1.0000 0.18070  0.22660  0.59050  Biso   1.000  N
  N22      1.0000 0.31930  0.72660  0.90950  Biso   1.000  N
  N23      1.0000 0.81930  0.77340  0.40950  Biso   1.000  N
  N24      1.0000 0.68070  0.27340  0.09050  Biso   1.000  N
  C9       1.0000 0.28520  0.27020  0.52920  Biso   1.000  C
  C10      1.0000 0.21480  0.77020  0.97080  Biso   1.000  C
  C11      1.0000 0.71480  0.72980  0.47080  Biso   1.000  C
  C12      1.0000 0.78520  0.22980  0.02920  Biso   1.000  C
  H33      1.0000 0.30610  0.36200  0.51760  Biso   1.000  H
  H34      1.0000 0.19390  0.86200  0.98240  Biso   1.000  H
  H35      1.0000 0.69390  0.63800  0.48240  Biso   1.000  H
  H36      1.0000 0.80610  0.13800  0.01760  Biso   1.000  H
  N25      1.0000 0.32080  0.05580  0.28352  Biso   1.000  N
  N26      1.0000 0.17920  0.55580  0.21648  Biso   1.000  N
  N27      1.0000 0.67920  0.94420  0.71648  Biso   1.000  N
  N28      1.0000 0.82080  0.44420  0.78352  Biso   1.000  N
  N29      1.0000 0.26410  0.09350  0.18767  Biso   1.000  N
  N30      1.0000 0.23590  0.59350  0.31233  Biso   1.000  N
  N31      1.0000 0.73590  0.90650  0.81233  Biso   1.000  N
  N32      1.0000 0.76410  0.40650  0.68767  Biso   1.000  N
  N33      1.0000 0.16280  0.99530  0.13756  Biso   1.000  N
  N34      1.0000 0.33720  0.49530  0.36244  Biso   1.000  N
  N35      1.0000 0.83720  0.00470  0.86244  Biso   1.000  N
  N36      1.0000 0.66280  0.50470  0.63756  Biso   1.000  N
  N37      1.0000 0.15100  0.88980  0.19775  Biso   1.000  N
  N38      1.0000 0.34900  0.38980  0.30225  Biso   1.000  N
  N39      1.0000 0.84900  0.11020  0.80225  Biso   1.000  N
  N40      1.0000 0.65100  0.61020  0.69775  Biso   1.000  N
  C13      1.0000 0.24910  0.93110  0.28686  Biso   1.000  C
  C14      1.0000 0.25090  0.43110  0.21314  Biso   1.000  C
  C15      1.0000 0.75090  0.06890  0.71314  Biso   1.000  C
  C16      1.0000 0.74910  0.56890  0.78686  Biso   1.000  C
  H37      1.0000 0.26560  0.87920  0.34450  Biso   1.000  H
  H38      1.0000 0.23440  0.37920  0.15550  Biso   1.000  H
  H39      1.0000 0.73440  0.12080  0.65550  Biso   1.000  H
  H40      1.0000 0.76560  0.62080  0.84450  Biso   1.000  H
