data_image0
_cell_length_a       11.2631
_cell_length_b       10.9751
_cell_length_c       15.581
_cell_angle_alpha    90
_cell_angle_beta     95.302
_cell_angle_gamma    90

_symmetry_space_group_name_H-M    "P 1"
_symmetry_int_tables_number       1

loop_
  _symmetry_equiv_pos_as_xyz
  'x, y, z'

loop_
  _atom_site_label
  _atom_site_occupancy
  _atom_site_fract_x
  _atom_site_fract_y
  _atom_site_fract_z
  _atom_site_thermal_displace_type
  _atom_site_B_iso_or_equiv
  _atom_site_type_symbol
  Cu1      1.0000 0.60416  0.61257  0.42183  Biso   1.000  Cu
  Cu2      1.0000 0.89584  0.11257  0.07817  Biso   1.000  Cu
  Cu3      1.0000 0.39584  0.38743  0.57817  Biso   1.000  Cu
  Cu4      1.0000 0.10416  0.88743  0.92183  Biso   1.000  Cu
  O1       1.0000 0.68430  0.56940  0.31904  Biso   1.000  O
  O2       1.0000 0.81570  0.06940  0.18096  Biso   1.000  O
  O3       1.0000 0.31570  0.43060  0.68096  Biso   1.000  O
  O4       1.0000 0.18430  0.93060  0.81904  Biso   1.000  O
  O5       1.0000 0.76140  0.75300  0.34574  Biso   1.000  O
  O6       1.0000 0.73860  0.25300  0.15426  Biso   1.000  O
  O7       1.0000 0.23860  0.24700  0.65426  Biso   1.000  O
  O8       1.0000 0.26140  0.74700  0.84574  Biso   1.000  O
  O9       1.0000 0.98630  0.91830  0.09860  Biso   1.000  O
  O10      1.0000 0.51370  0.41830  0.40140  Biso   1.000  O
  O11      1.0000 0.01370  0.08170  0.90140  Biso   1.000  O
  O12      1.0000 0.48630  0.58170  0.59860  Biso   1.000  O
  O13      1.0000 0.06280  0.78210  0.01436  Biso   1.000  O
  O14      1.0000 0.43720  0.28210  0.48564  Biso   1.000  O
  O15      1.0000 0.93720  0.21790  0.98564  Biso   1.000  O
  O16      1.0000 0.56280  0.71790  0.51436  Biso   1.000  O
  N1       1.0000 0.28350  0.75020  0.31500  Biso   1.000  N
  N2       1.0000 0.21650  0.25020  0.18500  Biso   1.000  N
  N3       1.0000 0.71650  0.24980  0.68500  Biso   1.000  N
  N4       1.0000 0.78350  0.74980  0.81500  Biso   1.000  N
  N5       1.0000 0.31660  0.69630  0.24320  Biso   1.000  N
  N6       1.0000 0.18340  0.19630  0.25680  Biso   1.000  N
  N7       1.0000 0.68340  0.30370  0.75680  Biso   1.000  N
  N8       1.0000 0.81660  0.80370  0.74320  Biso   1.000  N
  N9       1.0000 0.45730  0.67190  0.35190  Biso   1.000  N
  N10      1.0000 0.04270  0.17190  0.14810  Biso   1.000  N
  N11      1.0000 0.54270  0.32810  0.64810  Biso   1.000  N
  N12      1.0000 0.95730  0.82810  0.85190  Biso   1.000  N
  N13      1.0000 0.12130  0.58660  0.45690  Biso   1.000  N
  N14      1.0000 0.37870  0.08660  0.04310  Biso   1.000  N
  N15      1.0000 0.87870  0.41340  0.54310  Biso   1.000  N
  N16      1.0000 0.62130  0.91340  0.95690  Biso   1.000  N
  N17      1.0000 0.12860  0.50360  0.39350  Biso   1.000  N
  N18      1.0000 0.37140  0.00360  0.10650  Biso   1.000  N
  N19      1.0000 0.87140  0.49640  0.60650  Biso   1.000  N
  N20      1.0000 0.62860  0.99640  0.89350  Biso   1.000  N
  N21      1.0000 0.26190  0.46150  0.50320  Biso   1.000  N
  N22      1.0000 0.23810  0.96150  0.99680  Biso   1.000  N
  N23      1.0000 0.73810  0.53850  0.49680  Biso   1.000  N
  N24      1.0000 0.76190  0.03850  0.00320  Biso   1.000  N
  C1       1.0000 0.15380  0.87020  0.40060  Biso   1.000  C
  C2       1.0000 0.34620  0.37020  0.09940  Biso   1.000  C
  C3       1.0000 0.84620  0.12980  0.59940  Biso   1.000  C
  C4       1.0000 0.65380  0.62980  0.90060  Biso   1.000  C
  C5       1.0000 0.09500  0.81040  0.46360  Biso   1.000  C
  C6       1.0000 0.40500  0.31040  0.03640  Biso   1.000  C
  C7       1.0000 0.90500  0.18960  0.53640  Biso   1.000  C
  C8       1.0000 0.59500  0.68960  0.96360  Biso   1.000  C
  C9       1.0000 0.09140  0.86700  0.54330  Biso   1.000  C
  C10      1.0000 0.40860  0.36700  0.95670  Biso   1.000  C
  C11      1.0000 0.90860  0.13300  0.45670  Biso   1.000  C
  C12      1.0000 0.59140  0.63300  0.04330  Biso   1.000  C
  H1       1.0000 0.05360  0.82750  0.58610  Biso   1.000  H
  H2       1.0000 0.44640  0.32750  0.91390  Biso   1.000  H
  H3       1.0000 0.94640  0.17250  0.41390  Biso   1.000  H
  H4       1.0000 0.55360  0.67250  0.08610  Biso   1.000  H
  C13      1.0000 0.14150  0.97820  0.56060  Biso   1.000  C
  C14      1.0000 0.35850  0.47820  0.93940  Biso   1.000  C
  C15      1.0000 0.85850  0.02180  0.43940  Biso   1.000  C
  C16      1.0000 0.64150  0.52180  0.06060  Biso   1.000  C
  H5       1.0000 0.13680  0.01450  0.61410  Biso   1.000  H
  H6       1.0000 0.36320  0.51450  0.88590  Biso   1.000  H
  H7       1.0000 0.86320  0.98550  0.38590  Biso   1.000  H
  H8       1.0000 0.63680  0.48550  0.11410  Biso   1.000  H
  C17      1.0000 0.19860  0.03590  0.49890  Biso   1.000  C
  C18      1.0000 0.30140  0.53590  0.00110  Biso   1.000  C
  C19      1.0000 0.80140  0.96410  0.50110  Biso   1.000  C
  C20      1.0000 0.69860  0.46410  0.99890  Biso   1.000  C
  H9       1.0000 0.23430  0.11130  0.51070  Biso   1.000  H
  H10      1.0000 0.26570  0.61130  0.98930  Biso   1.000  H
  H11      1.0000 0.76570  0.88870  0.48930  Biso   1.000  H
  H12      1.0000 0.73430  0.38870  0.01070  Biso   1.000  H
  C21      1.0000 0.20380  0.98340  0.41960  Biso   1.000  C
  C22      1.0000 0.29620  0.48340  0.08040  Biso   1.000  C
  C23      1.0000 0.79620  0.01660  0.58040  Biso   1.000  C
  C24      1.0000 0.70380  0.51660  0.91960  Biso   1.000  C
  H13      1.0000 0.24160  0.02470  0.37760  Biso   1.000  H
  H14      1.0000 0.25840  0.52470  0.12240  Biso   1.000  H
  H15      1.0000 0.75840  0.97530  0.62240  Biso   1.000  H
  H16      1.0000 0.74160  0.47530  0.87760  Biso   1.000  H
  C25      1.0000 0.16870  0.81370  0.31490  Biso   1.000  C
  C26      1.0000 0.33130  0.31370  0.18510  Biso   1.000  C
  C27      1.0000 0.83130  0.18630  0.68510  Biso   1.000  C
  C28      1.0000 0.66870  0.68630  0.81490  Biso   1.000  C
  H17      1.0000 0.10440  0.75630  0.30060  Biso   1.000  H
  H18      1.0000 0.39560  0.25630  0.19940  Biso   1.000  H
  H19      1.0000 0.89560  0.24370  0.69940  Biso   1.000  H
  H20      1.0000 0.60440  0.74370  0.80060  Biso   1.000  H
  H21      1.0000 0.16380  0.87670  0.27100  Biso   1.000  H
  H22      1.0000 0.33620  0.37670  0.22900  Biso   1.000  H
  H23      1.0000 0.83620  0.12330  0.72900  Biso   1.000  H
  H24      1.0000 0.66380  0.62330  0.77100  Biso   1.000  H
  C29      1.0000 0.03540  0.68810  0.44920  Biso   1.000  C
  C30      1.0000 0.46460  0.18810  0.05080  Biso   1.000  C
  C31      1.0000 0.96460  0.31190  0.55080  Biso   1.000  C
  C32      1.0000 0.53540  0.81190  0.94920  Biso   1.000  C
  H25      1.0000 0.97760  0.67720  0.49110  Biso   1.000  H
  H26      1.0000 0.52240  0.17720  0.00890  Biso   1.000  H
  H27      1.0000 0.02240  0.32280  0.50890  Biso   1.000  H
  H28      1.0000 0.47760  0.82280  0.99110  Biso   1.000  H
  H29      1.0000 0.99270  0.68670  0.39220  Biso   1.000  H
  H30      1.0000 0.50730  0.18670  0.10780  Biso   1.000  H
  H31      1.0000 0.00730  0.31330  0.60780  Biso   1.000  H
  H32      1.0000 0.49270  0.81330  0.89220  Biso   1.000  H
  C33      1.0000 0.42090  0.64990  0.26900  Biso   1.000  C
  C34      1.0000 0.07910  0.14990  0.23100  Biso   1.000  C
  C35      1.0000 0.57910  0.35010  0.73100  Biso   1.000  C
  C36      1.0000 0.92090  0.85010  0.76900  Biso   1.000  C
  H33      1.0000 0.46590  0.60550  0.23280  Biso   1.000  H
  H34      1.0000 0.03410  0.10550  0.26720  Biso   1.000  H
  H35      1.0000 0.53410  0.39450  0.76720  Biso   1.000  H
  H36      1.0000 0.96590  0.89450  0.73280  Biso   1.000  H
  C37      1.0000 0.36860  0.73570  0.37880  Biso   1.000  C
  C38      1.0000 0.13140  0.23570  0.12120  Biso   1.000  C
  C39      1.0000 0.63140  0.26430  0.62120  Biso   1.000  C
  C40      1.0000 0.86860  0.76430  0.87880  Biso   1.000  C
  H37      1.0000 0.36620  0.76610  0.43430  Biso   1.000  H
  H38      1.0000 0.13380  0.26610  0.06570  Biso   1.000  H
  H39      1.0000 0.63380  0.23390  0.56570  Biso   1.000  H
  H40      1.0000 0.86620  0.73390  0.93430  Biso   1.000  H
  C41      1.0000 0.21350  0.43070  0.42390  Biso   1.000  C
  C42      1.0000 0.28650  0.93070  0.07610  Biso   1.000  C
  C43      1.0000 0.78650  0.56930  0.57610  Biso   1.000  C
  C44      1.0000 0.71350  0.06930  0.92390  Biso   1.000  C
  H41      1.0000 0.23840  0.36370  0.39380  Biso   1.000  H
  H42      1.0000 0.26160  0.86370  0.10620  Biso   1.000  H
  H43      1.0000 0.76160  0.63630  0.60620  Biso   1.000  H
  H44      1.0000 0.73840  0.13630  0.89380  Biso   1.000  H
  C45      1.0000 0.20190  0.55980  0.52150  Biso   1.000  C
  C46      1.0000 0.29810  0.05980  0.97850  Biso   1.000  C
  C47      1.0000 0.79810  0.44020  0.47850  Biso   1.000  C
  C48      1.0000 0.70190  0.94020  0.02150  Biso   1.000  C
  H45      1.0000 0.21430  0.60400  0.57250  Biso   1.000  H
  H46      1.0000 0.28570  0.10400  0.92750  Biso   1.000  H
  H47      1.0000 0.78570  0.39600  0.42750  Biso   1.000  H
  H48      1.0000 0.71430  0.89600  0.07250  Biso   1.000  H
  C49      1.0000 0.83770  0.63380  0.23590  Biso   1.000  C
  C50      1.0000 0.66230  0.13380  0.26410  Biso   1.000  C
  C51      1.0000 0.16230  0.36620  0.76410  Biso   1.000  C
  C52      1.0000 0.33770  0.86620  0.73590  Biso   1.000  C
  C53      1.0000 0.88590  0.73050  0.19370  Biso   1.000  C
  C54      1.0000 0.61410  0.23050  0.30630  Biso   1.000  C
  C55      1.0000 0.11410  0.26950  0.80630  Biso   1.000  C
  C56      1.0000 0.38590  0.76950  0.69370  Biso   1.000  C
  H49      1.0000 0.86950  0.81010  0.20930  Biso   1.000  H
  H50      1.0000 0.63050  0.31010  0.29070  Biso   1.000  H
  H51      1.0000 0.13050  0.18990  0.79070  Biso   1.000  H
  H52      1.0000 0.36950  0.68990  0.70930  Biso   1.000  H
  C57      1.0000 0.95940  0.70860  0.12740  Biso   1.000  C
  C58      1.0000 0.54060  0.20860  0.37260  Biso   1.000  C
  C59      1.0000 0.04060  0.29140  0.87260  Biso   1.000  C
  C60      1.0000 0.45940  0.79140  0.62740  Biso   1.000  C
  C61      1.0000 0.98550  0.58950  0.10700  Biso   1.000  C
  C62      1.0000 0.51450  0.08950  0.39300  Biso   1.000  C
  C63      1.0000 0.01450  0.41050  0.89300  Biso   1.000  C
  C64      1.0000 0.48550  0.91050  0.60700  Biso   1.000  C
  H53      1.0000 0.03460  0.57420  0.06340  Biso   1.000  H
  H54      1.0000 0.46540  0.07420  0.43660  Biso   1.000  H
  H55      1.0000 0.96540  0.42580  0.93660  Biso   1.000  H
  H56      1.0000 0.53460  0.92580  0.56340  Biso   1.000  H
  C65      1.0000 0.94010  0.49350  0.15000  Biso   1.000  C
  C66      1.0000 0.55990  0.99350  0.35000  Biso   1.000  C
  C67      1.0000 0.05990  0.50650  0.85000  Biso   1.000  C
  C68      1.0000 0.44010  0.00650  0.65000  Biso   1.000  C
  H57      1.0000 0.95990  0.41400  0.13630  Biso   1.000  H
  H58      1.0000 0.54010  0.91400  0.36370  Biso   1.000  H
  H59      1.0000 0.04010  0.58600  0.86370  Biso   1.000  H
  H60      1.0000 0.45990  0.08600  0.63630  Biso   1.000  H
  C69      1.0000 0.86520  0.51490  0.21350  Biso   1.000  C
  C70      1.0000 0.63480  0.01490  0.28650  Biso   1.000  C
  C71      1.0000 0.13480  0.48510  0.78650  Biso   1.000  C
  C72      1.0000 0.36520  0.98510  0.71350  Biso   1.000  C
  H61      1.0000 0.83290  0.44970  0.24160  Biso   1.000  H
  H62      1.0000 0.66710  0.94970  0.25840  Biso   1.000  H
  H63      1.0000 0.16710  0.55030  0.75840  Biso   1.000  H
  H64      1.0000 0.33290  0.05030  0.74160  Biso   1.000  H
  C73      1.0000 0.75540  0.65640  0.30490  Biso   1.000  C
  C74      1.0000 0.74460  0.15640  0.19510  Biso   1.000  C
  C75      1.0000 0.24460  0.34360  0.69510  Biso   1.000  C
  C76      1.0000 0.25540  0.84360  0.80490  Biso   1.000  C
  C77      1.0000 0.00560  0.81290  0.07770  Biso   1.000  C
  C78      1.0000 0.49440  0.31290  0.42230  Biso   1.000  C
  C79      1.0000 0.99440  0.18710  0.92230  Biso   1.000  C
  C80      1.0000 0.50560  0.68710  0.57770  Biso   1.000  C
