data_image0
_cell_length_a       9.128
_cell_length_b       11.961
_cell_length_c       20.561
_cell_angle_alpha    90
_cell_angle_beta     98.476
_cell_angle_gamma    90

_symmetry_space_group_name_H-M    "P 1"
_symmetry_int_tables_number       1

loop_
  _symmetry_equiv_pos_as_xyz
  'x, y, z'

loop_
  _atom_site_label
  _atom_site_occupancy
  _atom_site_fract_x
  _atom_site_fract_y
  _atom_site_fract_z
  _atom_site_thermal_displace_type
  _atom_site_B_iso_or_equiv
  _atom_site_type_symbol
  Cu1      1.0000 0.96788  0.35717  0.05206  Biso   1.000  Cu
  Cu2      1.0000 0.53212  0.85717  0.44794  Biso   1.000  Cu
  Cu3      1.0000 0.03212  0.64283  0.94794  Biso   1.000  Cu
  Cu4      1.0000 0.46788  0.14283  0.55206  Biso   1.000  Cu
  O1       1.0000 0.07020  0.34170  0.14297  Biso   1.000  O
  O2       1.0000 0.42980  0.84170  0.35703  Biso   1.000  O
  O3       1.0000 0.92980  0.65830  0.85703  Biso   1.000  O
  O4       1.0000 0.57020  0.15830  0.64297  Biso   1.000  O
  O5       1.0000 0.98820  0.16790  0.13329  Biso   1.000  O
  O6       1.0000 0.51180  0.66790  0.36671  Biso   1.000  O
  O7       1.0000 0.01180  0.83210  0.86671  Biso   1.000  O
  O8       1.0000 0.48820  0.33210  0.63329  Biso   1.000  O
  O9       1.0000 0.32980  0.20520  0.47272  Biso   1.000  O
  O10      1.0000 0.17020  0.70520  0.02728  Biso   1.000  O
  O11      1.0000 0.67020  0.79480  0.52728  Biso   1.000  O
  O12      1.0000 0.82980  0.29480  0.97272  Biso   1.000  O
  O13      1.0000 0.40290  0.04410  0.43820  Biso   1.000  O
  O14      1.0000 0.09710  0.54410  0.06180  Biso   1.000  O
  O15      1.0000 0.59710  0.95590  0.56180  Biso   1.000  O
  O16      1.0000 0.90290  0.45590  0.93820  Biso   1.000  O
  N1       1.0000 0.67290  0.54710  0.13489  Biso   1.000  N
  N2       1.0000 0.82710  0.04710  0.36511  Biso   1.000  N
  N3       1.0000 0.32710  0.45290  0.86511  Biso   1.000  N
  N4       1.0000 0.17290  0.95290  0.63489  Biso   1.000  N
  N5       1.0000 0.57230  0.48940  0.09310  Biso   1.000  N
  N6       1.0000 0.92770  0.98940  0.40690  Biso   1.000  N
  N7       1.0000 0.42770  0.51060  0.90690  Biso   1.000  N
  N8       1.0000 0.07230  0.01060  0.59310  Biso   1.000  N
  N9       1.0000 0.79980  0.43220  0.08360  Biso   1.000  N
  N10      1.0000 0.70020  0.93220  0.41640  Biso   1.000  N
  N11      1.0000 0.20020  0.56780  0.91640  Biso   1.000  N
  N12      1.0000 0.29980  0.06780  0.58360  Biso   1.000  N
  N13      1.0000 0.73520  0.78320  0.05392  Biso   1.000  N
  N14      1.0000 0.76480  0.28320  0.44608  Biso   1.000  N
  N15      1.0000 0.26480  0.21680  0.94608  Biso   1.000  N
  N16      1.0000 0.23520  0.71680  0.55392  Biso   1.000  N
  N17      1.0000 0.63780  0.71930  0.01480  Biso   1.000  N
  N18      1.0000 0.86220  0.21930  0.48520  Biso   1.000  N
  N19      1.0000 0.36220  0.28070  0.98520  Biso   1.000  N
  N20      1.0000 0.13780  0.78070  0.51480  Biso   1.000  N
  N21      1.0000 0.86130  0.70380  0.98575  Biso   1.000  N
  N22      1.0000 0.63870  0.20380  0.51425  Biso   1.000  N
  N23      1.0000 0.13870  0.29620  0.01425  Biso   1.000  N
  N24      1.0000 0.36130  0.79620  0.48575  Biso   1.000  N
  C1       1.0000 0.74580  0.71110  0.20540  Biso   1.000  C
  C2       1.0000 0.75420  0.21110  0.29460  Biso   1.000  C
  C3       1.0000 0.25420  0.28890  0.79460  Biso   1.000  C
  C4       1.0000 0.24580  0.78890  0.70540  Biso   1.000  C
  C5       1.0000 0.77830  0.81000  0.17410  Biso   1.000  C
  C6       1.0000 0.72170  0.31000  0.32590  Biso   1.000  C
  C7       1.0000 0.22170  0.19000  0.82590  Biso   1.000  C
  C8       1.0000 0.27830  0.69000  0.67410  Biso   1.000  C
  C9       1.0000 0.89400  0.87730  0.20400  Biso   1.000  C
  C10      1.0000 0.60600  0.37730  0.29600  Biso   1.000  C
  C11      1.0000 0.10600  0.12270  0.79600  Biso   1.000  C
  C12      1.0000 0.39400  0.62270  0.70400  Biso   1.000  C
  H1       1.0000 0.91680  0.94440  0.18390  Biso   1.000  H
  H2       1.0000 0.58320  0.44440  0.31610  Biso   1.000  H
  H3       1.0000 0.08320  0.05560  0.81610  Biso   1.000  H
  H4       1.0000 0.41680  0.55560  0.68390  Biso   1.000  H
  C13      1.0000 0.97510  0.84510  0.26330  Biso   1.000  C
  C14      1.0000 0.52490  0.34510  0.23670  Biso   1.000  C
  C15      1.0000 0.02490  0.15490  0.73670  Biso   1.000  C
  C16      1.0000 0.47510  0.65490  0.76330  Biso   1.000  C
  H5       1.0000 0.05450  0.89000  0.28240  Biso   1.000  H
  H6       1.0000 0.44550  0.39000  0.21760  Biso   1.000  H
  H7       1.0000 0.94550  0.11000  0.71760  Biso   1.000  H
  H8       1.0000 0.55450  0.61000  0.78240  Biso   1.000  H
  C17      1.0000 0.94260  0.75060  0.29450  Biso   1.000  C
  C18      1.0000 0.55740  0.25060  0.20550  Biso   1.000  C
  C19      1.0000 0.05740  0.24940  0.70550  Biso   1.000  C
  C20      1.0000 0.44260  0.74940  0.79450  Biso   1.000  C
  H9       1.0000 0.99720  0.73110  0.33530  Biso   1.000  H
  H10      1.0000 0.50280  0.23110  0.16470  Biso   1.000  H
  H11      1.0000 0.00280  0.26890  0.66470  Biso   1.000  H
  H12      1.0000 0.49720  0.76890  0.83530  Biso   1.000  H
  C21      1.0000 0.82900  0.68350  0.26560  Biso   1.000  C
  C22      1.0000 0.67100  0.18350  0.23440  Biso   1.000  C
  C23      1.0000 0.17100  0.31650  0.73440  Biso   1.000  C
  C24      1.0000 0.32900  0.81650  0.76560  Biso   1.000  C
  H13      1.0000 0.80690  0.61750  0.28700  Biso   1.000  H
  H14      1.0000 0.69310  0.11750  0.21300  Biso   1.000  H
  H15      1.0000 0.19310  0.38250  0.71300  Biso   1.000  H
  H16      1.0000 0.30690  0.88250  0.78700  Biso   1.000  H
  C25      1.0000 0.62360  0.63370  0.17770  Biso   1.000  C
  C26      1.0000 0.87640  0.13370  0.32230  Biso   1.000  C
  C27      1.0000 0.37640  0.36630  0.82230  Biso   1.000  C
  C28      1.0000 0.12360  0.86630  0.67770  Biso   1.000  C
  H17      1.0000 0.58330  0.59750  0.21400  Biso   1.000  H
  H18      1.0000 0.91670  0.09750  0.28600  Biso   1.000  H
  H19      1.0000 0.41670  0.40250  0.78600  Biso   1.000  H
  H20      1.0000 0.08330  0.90250  0.71400  Biso   1.000  H
  H21      1.0000 0.54390  0.67730  0.15250  Biso   1.000  H
  H22      1.0000 0.95610  0.17730  0.34750  Biso   1.000  H
  H23      1.0000 0.45610  0.32270  0.84750  Biso   1.000  H
  H24      1.0000 0.04390  0.82270  0.65250  Biso   1.000  H
  C29      1.0000 0.69200  0.84630  0.11000  Biso   1.000  C
  C30      1.0000 0.80800  0.34630  0.39000  Biso   1.000  C
  C31      1.0000 0.30800  0.15370  0.89000  Biso   1.000  C
  C32      1.0000 0.19200  0.65370  0.61000  Biso   1.000  C
  H25      1.0000 0.58610  0.83530  0.11130  Biso   1.000  H
  H26      1.0000 0.91390  0.33530  0.38870  Biso   1.000  H
  H27      1.0000 0.41390  0.16470  0.88870  Biso   1.000  H
  H28      1.0000 0.08610  0.66470  0.61130  Biso   1.000  H
  H29      1.0000 0.70860  0.92630  0.10360  Biso   1.000  H
  H30      1.0000 0.79140  0.42630  0.39640  Biso   1.000  H
  H31      1.0000 0.29140  0.07370  0.89640  Biso   1.000  H
  H32      1.0000 0.20860  0.57370  0.60360  Biso   1.000  H
  C33      1.0000 0.65240  0.42160  0.06320  Biso   1.000  C
  C34      1.0000 0.84760  0.92160  0.43680  Biso   1.000  C
  C35      1.0000 0.34760  0.57840  0.93680  Biso   1.000  C
  C36      1.0000 0.15240  0.07840  0.56320  Biso   1.000  C
  H33      1.0000 0.61190  0.37050  0.03070  Biso   1.000  H
  H34      1.0000 0.88810  0.87050  0.46930  Biso   1.000  H
  H35      1.0000 0.38810  0.62950  0.96930  Biso   1.000  H
  H36      1.0000 0.11190  0.12950  0.53070  Biso   1.000  H
  C37      1.0000 0.80790  0.51270  0.12840  Biso   1.000  C
  C38      1.0000 0.69210  0.01270  0.37160  Biso   1.000  C
  C39      1.0000 0.19210  0.48730  0.87160  Biso   1.000  C
  C40      1.0000 0.30790  0.98730  0.62840  Biso   1.000  C
  H37      1.0000 0.89620  0.54100  0.15190  Biso   1.000  H
  H38      1.0000 0.60380  0.04100  0.34810  Biso   1.000  H
  H39      1.0000 0.10380  0.45900  0.84810  Biso   1.000  H
  H40      1.0000 0.39620  0.95900  0.65190  Biso   1.000  H
  C41      1.0000 0.71870  0.67250  0.97480  Biso   1.000  C
  C42      1.0000 0.78130  0.17250  0.52520  Biso   1.000  C
  C43      1.0000 0.28130  0.32750  0.02520  Biso   1.000  C
  C44      1.0000 0.21870  0.82750  0.47480  Biso   1.000  C
  H41      1.0000 0.68060  0.62180  0.94170  Biso   1.000  H
  H42      1.0000 0.81940  0.12180  0.55830  Biso   1.000  H
  H43      1.0000 0.31940  0.37820  0.05830  Biso   1.000  H
  H44      1.0000 0.18060  0.87820  0.44170  Biso   1.000  H
  C45      1.0000 0.86720  0.77250  0.03620  Biso   1.000  C
  C46      1.0000 0.63280  0.27250  0.46380  Biso   1.000  C
  C47      1.0000 0.13280  0.22750  0.96380  Biso   1.000  C
  C48      1.0000 0.36720  0.72750  0.53620  Biso   1.000  C
  H45      1.0000 0.95330  0.80870  0.05660  Biso   1.000  H
  H46      1.0000 0.54670  0.30870  0.44340  Biso   1.000  H
  H47      1.0000 0.04670  0.19130  0.94340  Biso   1.000  H
  H48      1.0000 0.45330  0.69130  0.55660  Biso   1.000  H
  C49      1.0000 0.14160  0.21990  0.23224  Biso   1.000  C
  C50      1.0000 0.35840  0.71990  0.26776  Biso   1.000  C
  C51      1.0000 0.85840  0.78010  0.76776  Biso   1.000  C
  C52      1.0000 0.64160  0.28010  0.73224  Biso   1.000  C
  C53      1.0000 0.15580  0.30200  0.27982  Biso   1.000  C
  C54      1.0000 0.34420  0.80200  0.22018  Biso   1.000  C
  C55      1.0000 0.84420  0.69800  0.72018  Biso   1.000  C
  C56      1.0000 0.65580  0.19800  0.77982  Biso   1.000  C
  H49      1.0000 0.12220  0.37500  0.26930  Biso   1.000  H
  H50      1.0000 0.37780  0.87500  0.23070  Biso   1.000  H
  H51      1.0000 0.87780  0.62500  0.73070  Biso   1.000  H
  H52      1.0000 0.62220  0.12500  0.76930  Biso   1.000  H
  C57      1.0000 0.22060  0.27580  0.34400  Biso   1.000  C
  C58      1.0000 0.27940  0.77580  0.15600  Biso   1.000  C
  C59      1.0000 0.77940  0.72420  0.65600  Biso   1.000  C
  C60      1.0000 0.72060  0.22420  0.84400  Biso   1.000  C
  H53      1.0000 0.22970  0.33110  0.37680  Biso   1.000  H
  H54      1.0000 0.27030  0.83110  0.12320  Biso   1.000  H
  H55      1.0000 0.77030  0.66890  0.62320  Biso   1.000  H
  H56      1.0000 0.72970  0.16890  0.87680  Biso   1.000  H
  C61      1.0000 0.27150  0.16810  0.35895  Biso   1.000  C
  C62      1.0000 0.22850  0.66810  0.14105  Biso   1.000  C
  C63      1.0000 0.72850  0.83190  0.64105  Biso   1.000  C
  C64      1.0000 0.77150  0.33190  0.85895  Biso   1.000  C
  C65      1.0000 0.26370  0.08800  0.31060  Biso   1.000  C
  C66      1.0000 0.23630  0.58800  0.18940  Biso   1.000  C
  C67      1.0000 0.73630  0.91200  0.68940  Biso   1.000  C
  C68      1.0000 0.76370  0.41200  0.81060  Biso   1.000  C
  H57      1.0000 0.30370  0.01650  0.32050  Biso   1.000  H
  H58      1.0000 0.19630  0.51650  0.17950  Biso   1.000  H
  H59      1.0000 0.69630  0.98350  0.67950  Biso   1.000  H
  H60      1.0000 0.80370  0.48350  0.82050  Biso   1.000  H
  C69      1.0000 0.19680  0.11300  0.24740  Biso   1.000  C
  C70      1.0000 0.30320  0.61300  0.25260  Biso   1.000  C
  C71      1.0000 0.80320  0.88700  0.75260  Biso   1.000  C
  C72      1.0000 0.69680  0.38700  0.74740  Biso   1.000  C
  H61      1.0000 0.18860  0.05760  0.21460  Biso   1.000  H
  H62      1.0000 0.31140  0.55760  0.28540  Biso   1.000  H
  H63      1.0000 0.81140  0.94240  0.78540  Biso   1.000  H
  H64      1.0000 0.68860  0.44240  0.71460  Biso   1.000  H
  C73      1.0000 0.06060  0.24410  0.16436  Biso   1.000  C
  C74      1.0000 0.43940  0.74410  0.33564  Biso   1.000  C
  C75      1.0000 0.93940  0.75590  0.83564  Biso   1.000  C
  C76      1.0000 0.56060  0.25590  0.66436  Biso   1.000  C
  C77      1.0000 0.33950  0.13410  0.42790  Biso   1.000  C
  C78      1.0000 0.16050  0.63410  0.07210  Biso   1.000  C
  C79      1.0000 0.66050  0.86590  0.57210  Biso   1.000  C
  C80      1.0000 0.83950  0.36590  0.92790  Biso   1.000  C
  O17      1.0000 0.09080  0.99870  0.06150  Biso   1.000  O
  O18      1.0000 0.40920  0.49870  0.43850  Biso   1.000  O
  O19      1.0000 0.90920  0.00130  0.93850  Biso   1.000  O
  O20      1.0000 0.59080  0.50130  0.56150  Biso   1.000  O
  O21      1.0000 0.69190  0.12860  0.06010  Biso   1.000  O
  O22      1.0000 0.80810  0.62860  0.43990  Biso   1.000  O
  O23      1.0000 0.30810  0.87140  0.93990  Biso   1.000  O
  O24      1.0000 0.19190  0.37140  0.56010  Biso   1.000  O
  O25      1.0000 0.60370  0.98400  0.94000  Biso   1.000  O
  O26      1.0000 0.89630  0.48400  0.56000  Biso   1.000  O
  O27      1.0000 0.39630  0.01600  0.06000  Biso   1.000  O
  O28      1.0000 0.10370  0.51600  0.44000  Biso   1.000  O
