data_image0
_cell_length_a       9.687
_cell_length_b       10.42
_cell_length_c       10.945
_cell_angle_alpha    71.008
_cell_angle_beta     66.135
_cell_angle_gamma    63.024

_symmetry_space_group_name_H-M    "P 1"
_symmetry_int_tables_number       1

loop_
  _symmetry_equiv_pos_as_xyz
  'x, y, z'

loop_
  _atom_site_label
  _atom_site_occupancy
  _atom_site_fract_x
  _atom_site_fract_y
  _atom_site_fract_z
  _atom_site_thermal_displace_type
  _atom_site_B_iso_or_equiv
  _atom_site_type_symbol
  C1       1.0000 0.63300  0.59600  0.98130  Biso   1.000  C
  C2       1.0000 0.36700  0.40400  0.01870  Biso   1.000  C
  O1       1.0000 0.62860  0.56700  0.08470  Biso   1.000  O
  O2       1.0000 0.37140  0.43300  0.91530  Biso   1.000  O
  O3       1.0000 0.62000  0.61810  0.88850  Biso   1.000  O
  O4       1.0000 0.38000  0.38190  0.11150  Biso   1.000  O
  O5       1.0000 0.50690  0.89870  0.98580  Biso   1.000  O
  O6       1.0000 0.49310  0.10130  0.01420  Biso   1.000  O
  C3       1.0000 0.50000  0.00000  0.00000  Biso   1.000  C
  C4       1.0000 0.96150  0.36860  0.74480  Biso   1.000  C
  C5       1.0000 0.03850  0.63140  0.25520  Biso   1.000  C
  C6       1.0000 0.94160  0.29140  0.88840  Biso   1.000  C
  C7       1.0000 0.05840  0.70860  0.11160  Biso   1.000  C
  C8       1.0000 0.03040  0.29210  0.96090  Biso   1.000  C
  C9       1.0000 0.96960  0.70790  0.03910  Biso   1.000  C
  H1       1.0000 0.10400  0.34040  0.91930  Biso   1.000  H
  H2       1.0000 0.89600  0.65960  0.08070  Biso   1.000  H
  C10      1.0000 0.01030  0.22130  0.09510  Biso   1.000  C
  C11      1.0000 0.98970  0.77870  0.90490  Biso   1.000  C
  H3       1.0000 0.07030  0.22180  0.14420  Biso   1.000  H
  H4       1.0000 0.92970  0.77820  0.85580  Biso   1.000  H
  C12      1.0000 0.90140  0.14980  0.15670  Biso   1.000  C
  C13      1.0000 0.09860  0.85020  0.84330  Biso   1.000  C
  H5       1.0000 0.88780  0.10190  0.24740  Biso   1.000  H
  H6       1.0000 0.11220  0.89810  0.75260  Biso   1.000  H
  C14      1.0000 0.81260  0.14910  0.08410  Biso   1.000  C
  C15      1.0000 0.18740  0.85090  0.91590  Biso   1.000  C
  H7       1.0000 0.73900  0.10080  0.12580  Biso   1.000  H
  H8       1.0000 0.26100  0.89920  0.87420  Biso   1.000  H
  C16      1.0000 0.83270  0.21990  0.95000  Biso   1.000  C
  C17      1.0000 0.16730  0.78010  0.05000  Biso   1.000  C
  H9       1.0000 0.77270  0.21950  0.90090  Biso   1.000  H
  H10      1.0000 0.22730  0.78050  0.09910  Biso   1.000  H
  C18      1.0000 0.16430  0.25330  0.42300  Biso   1.000  C
  C19      1.0000 0.83570  0.74670  0.57700  Biso   1.000  C
  C20      1.0000 0.26440  0.10520  0.38510  Biso   1.000  C
  C21      1.0000 0.73560  0.89480  0.61490  Biso   1.000  C
  C22      1.0000 0.19010  0.02450  0.37370  Biso   1.000  C
  C23      1.0000 0.80990  0.97550  0.62630  Biso   1.000  C
  H11      1.0000 0.07690  0.06300  0.39020  Biso   1.000  H
  H12      1.0000 0.92310  0.93700  0.60980  Biso   1.000  H
  C24      1.0000 0.28320  0.88680  0.33770  Biso   1.000  C
  C25      1.0000 0.71680  0.11320  0.66230  Biso   1.000  C
  H13      1.0000 0.23300  0.83230  0.33000  Biso   1.000  H
  H14      1.0000 0.76700  0.16770  0.67000  Biso   1.000  H
  C26      1.0000 0.45060  0.82990  0.31320  Biso   1.000  C
  C27      1.0000 0.54940  0.17010  0.68680  Biso   1.000  C
  H15      1.0000 0.51360  0.73680  0.28890  Biso   1.000  H
  H16      1.0000 0.48640  0.26320  0.71110  Biso   1.000  H
  C28      1.0000 0.52490  0.91060  0.32470  Biso   1.000  C
  C29      1.0000 0.47510  0.08940  0.67530  Biso   1.000  C
  H17      1.0000 0.63810  0.87210  0.30810  Biso   1.000  H
  H18      1.0000 0.36190  0.12790  0.69190  Biso   1.000  H
  C30      1.0000 0.43180  0.04830  0.36060  Biso   1.000  C
  C31      1.0000 0.56820  0.95170  0.63940  Biso   1.000  C
  H19      1.0000 0.48210  0.10290  0.36840  Biso   1.000  H
  H20      1.0000 0.51790  0.89710  0.63160  Biso   1.000  H
  C32      1.0000 0.64000  0.43550  0.41170  Biso   1.000  C
  C33      1.0000 0.36000  0.56450  0.58830  Biso   1.000  C
  H21      1.0000 0.73750  0.38850  0.34840  Biso   1.000  H
  H22      1.0000 0.26250  0.61150  0.65160  Biso   1.000  H
  C34      1.0000 0.49670  0.44450  0.40890  Biso   1.000  C
  C35      1.0000 0.50330  0.55550  0.59110  Biso   1.000  C
  H23      1.0000 0.49840  0.40470  0.34230  Biso   1.000  H
  H24      1.0000 0.50160  0.59530  0.65770  Biso   1.000  H
  Cu1      1.0000 0.87071  0.48985  0.50203  Biso   1.000  Cu
  Cu2      1.0000 0.12929  0.51015  0.49797  Biso   1.000  Cu
  N1       1.0000 0.64520  0.49310  0.50380  Biso   1.000  N
  N2       1.0000 0.35480  0.50690  0.49620  Biso   1.000  N
  O7       1.0000 0.07960  0.41090  0.68760  Biso   1.000  O
  O8       1.0000 0.92040  0.58910  0.31240  Biso   1.000  O
  O9       1.0000 0.86130  0.38660  0.68990  Biso   1.000  O
  O10      1.0000 0.13870  0.61340  0.31010  Biso   1.000  O
  O11      1.0000 0.01430  0.30210  0.44000  Biso   1.000  O
  O12      1.0000 0.98570  0.69790  0.56000  Biso   1.000  O
  O13      1.0000 0.23670  0.32020  0.43780  Biso   1.000  O
  O14      1.0000 0.76330  0.67980  0.56220  Biso   1.000  O
