data_image0
_cell_length_a       9.6898
_cell_length_b       10.42
_cell_length_c       10.939
_cell_angle_alpha    71.09
_cell_angle_beta     66.112
_cell_angle_gamma    63.052

_symmetry_space_group_name_H-M    "P 1"
_symmetry_int_tables_number       1

loop_
  _symmetry_equiv_pos_as_xyz
  'x, y, z'

loop_
  _atom_site_label
  _atom_site_occupancy
  _atom_site_fract_x
  _atom_site_fract_y
  _atom_site_fract_z
  _atom_site_thermal_displace_type
  _atom_site_B_iso_or_equiv
  _atom_site_type_symbol
  C1       1.0000 0.65900  0.60300  0.97600  Biso   1.000  C
  C2       1.0000 0.34100  0.39700  0.02400  Biso   1.000  C
  O1       1.0000 0.56100  0.55300  0.03900  Biso   1.000  O
  O2       1.0000 0.43900  0.44700  0.96100  Biso   1.000  O
  O3       1.0000 0.75300  0.64800  0.89000  Biso   1.000  O
  O4       1.0000 0.24700  0.35200  0.11000  Biso   1.000  O
  C3       1.0000 0.63000  0.60000  0.98250  Biso   1.000  C
  C4       1.0000 0.37000  0.40000  0.01750  Biso   1.000  C
  O5       1.0000 0.63800  0.56690  0.09200  Biso   1.000  O
  O6       1.0000 0.36200  0.43310  0.90800  Biso   1.000  O
  O7       1.0000 0.59400  0.61480  0.88840  Biso   1.000  O
  O8       1.0000 0.40600  0.38520  0.11160  Biso   1.000  O
  O9       1.0000 0.50960  0.89700  0.98560  Biso   1.000  O
  O10      1.0000 0.49040  0.10300  0.01440  Biso   1.000  O
  C5       1.0000 0.50000  0.00000  0.00000  Biso   1.000  C
  C6       1.0000 0.96150  0.36950  0.74430  Biso   1.000  C
  C7       1.0000 0.03850  0.63050  0.25570  Biso   1.000  C
  C8       1.0000 0.94070  0.29200  0.88840  Biso   1.000  C
  C9       1.0000 0.05930  0.70800  0.11160  Biso   1.000  C
  C10      1.0000 0.02970  0.29270  0.96070  Biso   1.000  C
  C11      1.0000 0.97030  0.70730  0.03930  Biso   1.000  C
  H1       1.0000 0.10330  0.34100  0.91890  Biso   1.000  H
  H2       1.0000 0.89670  0.65900  0.08110  Biso   1.000  H
  C12      1.0000 0.00970  0.22210  0.09490  Biso   1.000  C
  C13      1.0000 0.99030  0.77790  0.90510  Biso   1.000  C
  H3       1.0000 0.06990  0.22260  0.14380  Biso   1.000  H
  H4       1.0000 0.93010  0.77740  0.85620  Biso   1.000  H
  C14      1.0000 0.90080  0.15070  0.15670  Biso   1.000  C
  C15      1.0000 0.09920  0.84930  0.84330  Biso   1.000  C
  H5       1.0000 0.88730  0.10300  0.24750  Biso   1.000  H
  H6       1.0000 0.11270  0.89700  0.75250  Biso   1.000  H
  C16      1.0000 0.81180  0.15000  0.08440  Biso   1.000  C
  C17      1.0000 0.18820  0.85000  0.91560  Biso   1.000  C
  H7       1.0000 0.73820  0.10170  0.12620  Biso   1.000  H
  H8       1.0000 0.26180  0.89830  0.87380  Biso   1.000  H
  C18      1.0000 0.83180  0.22060  0.95020  Biso   1.000  C
  C19      1.0000 0.16820  0.77940  0.04980  Biso   1.000  C
  H9       1.0000 0.77160  0.22010  0.90130  Biso   1.000  H
  H10      1.0000 0.22840  0.77990  0.09870  Biso   1.000  H
  C20      1.0000 0.16510  0.25290  0.42340  Biso   1.000  C
  C21      1.0000 0.83490  0.74710  0.57660  Biso   1.000  C
  C22      1.0000 0.26460  0.10530  0.38540  Biso   1.000  C
  C23      1.0000 0.73540  0.89470  0.61460  Biso   1.000  C
  C24      1.0000 0.19020  0.02470  0.37380  Biso   1.000  C
  C25      1.0000 0.80980  0.97530  0.62620  Biso   1.000  C
  H11      1.0000 0.07700  0.06330  0.39050  Biso   1.000  H
  H12      1.0000 0.92300  0.93670  0.60950  Biso   1.000  H
  C26      1.0000 0.28310  0.88720  0.33750  Biso   1.000  C
  C27      1.0000 0.71690  0.11280  0.66250  Biso   1.000  C
  H13      1.0000 0.23280  0.83270  0.32970  Biso   1.000  H
  H14      1.0000 0.76720  0.16730  0.67030  Biso   1.000  H
  C28      1.0000 0.45050  0.83020  0.31290  Biso   1.000  C
  C29      1.0000 0.54950  0.16980  0.68710  Biso   1.000  C
  H15      1.0000 0.51330  0.73720  0.28830  Biso   1.000  H
  H16      1.0000 0.48670  0.26280  0.71170  Biso   1.000  H
  C30      1.0000 0.52490  0.91070  0.32440  Biso   1.000  C
  C31      1.0000 0.47510  0.08930  0.67560  Biso   1.000  C
  H17      1.0000 0.63810  0.87220  0.30780  Biso   1.000  H
  H18      1.0000 0.36190  0.12780  0.69220  Biso   1.000  H
  C32      1.0000 0.43200  0.04830  0.36070  Biso   1.000  C
  C33      1.0000 0.56800  0.95170  0.63930  Biso   1.000  C
  H19      1.0000 0.48230  0.10270  0.36850  Biso   1.000  H
  H20      1.0000 0.51770  0.89730  0.63150  Biso   1.000  H
  C34      1.0000 0.64060  0.43590  0.41180  Biso   1.000  C
  C35      1.0000 0.35940  0.56410  0.58820  Biso   1.000  C
  H21      1.0000 0.73820  0.38930  0.34820  Biso   1.000  H
  H22      1.0000 0.26180  0.61070  0.65180  Biso   1.000  H
  C36      1.0000 0.49700  0.44400  0.40930  Biso   1.000  C
  C37      1.0000 0.50300  0.55600  0.59070  Biso   1.000  C
  H23      1.0000 0.49900  0.40340  0.34310  Biso   1.000  H
  H24      1.0000 0.50100  0.59660  0.65690  Biso   1.000  H
  Cu1      1.0000 0.87072  0.48993  0.50197  Biso   1.000  Cu
  Cu2      1.0000 0.12928  0.51007  0.49803  Biso   1.000  Cu
  N1       1.0000 0.64520  0.49320  0.50350  Biso   1.000  N
  N2       1.0000 0.35480  0.50680  0.49650  Biso   1.000  N
  O11      1.0000 0.07920  0.41140  0.68750  Biso   1.000  O
  O12      1.0000 0.92080  0.58860  0.31250  Biso   1.000  O
  O13      1.0000 0.86120  0.38690  0.68990  Biso   1.000  O
  O14      1.0000 0.13880  0.61310  0.31010  Biso   1.000  O
  O15      1.0000 0.01430  0.30220  0.43990  Biso   1.000  O
  O16      1.0000 0.98570  0.69780  0.56010  Biso   1.000  O
  O17      1.0000 0.23650  0.32010  0.43770  Biso   1.000  O
  O18      1.0000 0.76350  0.67990  0.56230  Biso   1.000  O
