data_image0
_cell_length_a       9.694
_cell_length_b       10.424
_cell_length_c       10.971
_cell_angle_alpha    70.894
_cell_angle_beta     66.197
_cell_angle_gamma    63.016

_symmetry_space_group_name_H-M    "P 1"
_symmetry_int_tables_number       1

loop_
  _symmetry_equiv_pos_as_xyz
  'x, y, z'

loop_
  _atom_site_label
  _atom_site_occupancy
  _atom_site_fract_x
  _atom_site_fract_y
  _atom_site_fract_z
  _atom_site_thermal_displace_type
  _atom_site_B_iso_or_equiv
  _atom_site_type_symbol
  O1       1.0000 0.63970  0.56410  0.08620  Biso   1.000  O
  O2       1.0000 0.36030  0.43590  0.91380  Biso   1.000  O
  C1       1.0000 0.63100  0.59260  0.98180  Biso   1.000  C
  C2       1.0000 0.36900  0.40740  0.01820  Biso   1.000  C
  O3       1.0000 0.61400  0.61540  0.88800  Biso   1.000  O
  O4       1.0000 0.38600  0.38460  0.11200  Biso   1.000  O
  O5       1.0000 0.50400  0.90010  0.98620  Biso   1.000  O
  O6       1.0000 0.49600  0.09990  0.01380  Biso   1.000  O
  C3       1.0000 0.50000  0.00000  0.00000  Biso   1.000  C
  C4       1.0000 0.96330  0.36690  0.74440  Biso   1.000  C
  C5       1.0000 0.03670  0.63310  0.25560  Biso   1.000  C
  C6       1.0000 0.94200  0.28960  0.88830  Biso   1.000  C
  C7       1.0000 0.05800  0.71040  0.11170  Biso   1.000  C
  C8       1.0000 0.03220  0.28930  0.95990  Biso   1.000  C
  C9       1.0000 0.96780  0.71070  0.04010  Biso   1.000  C
  H1       1.0000 0.10640  0.33700  0.91780  Biso   1.000  H
  H2       1.0000 0.89360  0.66300  0.08220  Biso   1.000  H
  C10      1.0000 0.01270  0.21840  0.09380  Biso   1.000  C
  C11      1.0000 0.98730  0.78160  0.90620  Biso   1.000  C
  H3       1.0000 0.07370  0.21820  0.14230  Biso   1.000  H
  H4       1.0000 0.92630  0.78180  0.85770  Biso   1.000  H
  C12      1.0000 0.90300  0.14790  0.15610  Biso   1.000  C
  C13      1.0000 0.09700  0.85210  0.84390  Biso   1.000  C
  H5       1.0000 0.88980  0.10000  0.24670  Biso   1.000  H
  H6       1.0000 0.11020  0.90000  0.75330  Biso   1.000  H
  C14      1.0000 0.81280  0.14820  0.08450  Biso   1.000  C
  C15      1.0000 0.18720  0.85180  0.91550  Biso   1.000  C
  H7       1.0000 0.73870  0.10050  0.12660  Biso   1.000  H
  H8       1.0000 0.26130  0.89950  0.87340  Biso   1.000  H
  C16      1.0000 0.83230  0.21910  0.95060  Biso   1.000  C
  C17      1.0000 0.16770  0.78090  0.04940  Biso   1.000  C
  H9       1.0000 0.77140  0.21930  0.90210  Biso   1.000  H
  H10      1.0000 0.22860  0.78070  0.09790  Biso   1.000  H
  C18      1.0000 0.16470  0.25340  0.42300  Biso   1.000  C
  C19      1.0000 0.83530  0.74660  0.57700  Biso   1.000  C
  C20      1.0000 0.26490  0.10500  0.38500  Biso   1.000  C
  C21      1.0000 0.73510  0.89500  0.61500  Biso   1.000  C
  C22      1.0000 0.19040  0.02500  0.37300  Biso   1.000  C
  C23      1.0000 0.80960  0.97500  0.62700  Biso   1.000  C
  H11      1.0000 0.07740  0.06390  0.38890  Biso   1.000  H
  H12      1.0000 0.92260  0.93610  0.61110  Biso   1.000  H
  C24      1.0000 0.28300  0.88730  0.33740  Biso   1.000  C
  C25      1.0000 0.71700  0.11270  0.66260  Biso   1.000  C
  H13      1.0000 0.23250  0.83320  0.32920  Biso   1.000  H
  H14      1.0000 0.76750  0.16680  0.67080  Biso   1.000  H
  C26      1.0000 0.45010  0.82970  0.31380  Biso   1.000  C
  C27      1.0000 0.54990  0.17030  0.68620  Biso   1.000  C
  H15      1.0000 0.51260  0.73670  0.28970  Biso   1.000  H
  H16      1.0000 0.48740  0.26330  0.71030  Biso   1.000  H
  C28      1.0000 0.52460  0.90980  0.32580  Biso   1.000  C
  C29      1.0000 0.47540  0.09020  0.67420  Biso   1.000  C
  H17      1.0000 0.63760  0.87080  0.30990  Biso   1.000  H
  H18      1.0000 0.36240  0.12920  0.69010  Biso   1.000  H
  C30      1.0000 0.43210  0.04740  0.36150  Biso   1.000  C
  C31      1.0000 0.56790  0.95260  0.63850  Biso   1.000  C
  H19      1.0000 0.48250  0.10150  0.36960  Biso   1.000  H
  H20      1.0000 0.51750  0.89850  0.63040  Biso   1.000  H
  C32      1.0000 0.64120  0.43480  0.41280  Biso   1.000  C
  C33      1.0000 0.35880  0.56520  0.58720  Biso   1.000  C
  H21      1.0000 0.73890  0.38710  0.35050  Biso   1.000  H
  H22      1.0000 0.26110  0.61290  0.64950  Biso   1.000  H
  C34      1.0000 0.49660  0.44450  0.40910  Biso   1.000  C
  C35      1.0000 0.50340  0.55550  0.59090  Biso   1.000  C
  H23      1.0000 0.49830  0.40500  0.34250  Biso   1.000  H
  H24      1.0000 0.50170  0.59500  0.65750  Biso   1.000  H
  Cu1      1.0000 0.87077  0.48981  0.50205  Biso   1.000  Cu
  Cu2      1.0000 0.12923  0.51019  0.49795  Biso   1.000  Cu
  N1       1.0000 0.64530  0.49240  0.50430  Biso   1.000  N
  N2       1.0000 0.35470  0.50760  0.49570  Biso   1.000  N
  O7       1.0000 0.07970  0.40960  0.68780  Biso   1.000  O
  O8       1.0000 0.92030  0.59040  0.31220  Biso   1.000  O
  O9       1.0000 0.86150  0.38600  0.69000  Biso   1.000  O
  O10      1.0000 0.13850  0.61400  0.31000  Biso   1.000  O
  O11      1.0000 0.01440  0.30240  0.43950  Biso   1.000  O
  O12      1.0000 0.98560  0.69760  0.56050  Biso   1.000  O
  O13      1.0000 0.23630  0.31990  0.43790  Biso   1.000  O
  O14      1.0000 0.76370  0.68010  0.56210  Biso   1.000  O
