data_image0
_cell_length_a       9.693
_cell_length_b       10.424
_cell_length_c       10.967
_cell_angle_alpha    70.883
_cell_angle_beta     66.181
_cell_angle_gamma    63.01

_symmetry_space_group_name_H-M    "P 1"
_symmetry_int_tables_number       1

loop_
  _symmetry_equiv_pos_as_xyz
  'x, y, z'

loop_
  _atom_site_label
  _atom_site_occupancy
  _atom_site_fract_x
  _atom_site_fract_y
  _atom_site_fract_z
  _atom_site_thermal_displace_type
  _atom_site_B_iso_or_equiv
  _atom_site_type_symbol
  O1       1.0000 0.63790  0.56520  0.08650  Biso   1.000  O
  O2       1.0000 0.36210  0.43480  0.91350  Biso   1.000  O
  C1       1.0000 0.63300  0.59240  0.98180  Biso   1.000  C
  C2       1.0000 0.36700  0.40760  0.01820  Biso   1.000  C
  O3       1.0000 0.61180  0.61300  0.89030  Biso   1.000  O
  O4       1.0000 0.38820  0.38700  0.10970  Biso   1.000  O
  O5       1.0000 0.50590  0.89920  0.98550  Biso   1.000  O
  O6       1.0000 0.49410  0.10080  0.01450  Biso   1.000  O
  C3       1.0000 0.50000  0.00000  0.00000  Biso   1.000  C
  C4       1.0000 0.96320  0.36730  0.74440  Biso   1.000  C
  C5       1.0000 0.03680  0.63270  0.25560  Biso   1.000  C
  C6       1.0000 0.94200  0.29020  0.88850  Biso   1.000  C
  C7       1.0000 0.05800  0.70980  0.11150  Biso   1.000  C
  C8       1.0000 0.03170  0.28940  0.96080  Biso   1.000  C
  C9       1.0000 0.96830  0.71060  0.03920  Biso   1.000  C
  H1       1.0000 0.10610  0.33700  0.91920  Biso   1.000  H
  H2       1.0000 0.89390  0.66300  0.08080  Biso   1.000  H
  C10      1.0000 0.01150  0.21830  0.09480  Biso   1.000  C
  C11      1.0000 0.98850  0.78170  0.90520  Biso   1.000  C
  H3       1.0000 0.07220  0.21780  0.14370  Biso   1.000  H
  H4       1.0000 0.92780  0.78220  0.85630  Biso   1.000  H
  C12      1.0000 0.90160  0.14800  0.15650  Biso   1.000  C
  C13      1.0000 0.09840  0.85200  0.84350  Biso   1.000  C
  H5       1.0000 0.88800  0.09990  0.24700  Biso   1.000  H
  H6       1.0000 0.11200  0.90010  0.75300  Biso   1.000  H
  C14      1.0000 0.81190  0.14880  0.08420  Biso   1.000  C
  C15      1.0000 0.18810  0.85120  0.91580  Biso   1.000  C
  H7       1.0000 0.73750  0.10120  0.12590  Biso   1.000  H
  H8       1.0000 0.26250  0.89880  0.87410  Biso   1.000  H
  C16      1.0000 0.83210  0.21990  0.95020  Biso   1.000  C
  C17      1.0000 0.16790  0.78010  0.04980  Biso   1.000  C
  H9       1.0000 0.77140  0.22040  0.90130  Biso   1.000  H
  H10      1.0000 0.22860  0.77960  0.09870  Biso   1.000  H
  C18      1.0000 0.16480  0.25320  0.42290  Biso   1.000  C
  C19      1.0000 0.83520  0.74680  0.57710  Biso   1.000  C
  C20      1.0000 0.26470  0.10520  0.38500  Biso   1.000  C
  C21      1.0000 0.73530  0.89480  0.61500  Biso   1.000  C
  C22      1.0000 0.19040  0.02480  0.37320  Biso   1.000  C
  C23      1.0000 0.80960  0.97520  0.62680  Biso   1.000  C
  H11      1.0000 0.07730  0.06360  0.38930  Biso   1.000  H
  H12      1.0000 0.92270  0.93640  0.61070  Biso   1.000  H
  C24      1.0000 0.28320  0.88720  0.33760  Biso   1.000  C
  C25      1.0000 0.71680  0.11280  0.66240  Biso   1.000  C
  H13      1.0000 0.23290  0.83280  0.32960  Biso   1.000  H
  H14      1.0000 0.76710  0.16720  0.67040  Biso   1.000  H
  C26      1.0000 0.45030  0.82990  0.31380  Biso   1.000  C
  C27      1.0000 0.54970  0.17010  0.68620  Biso   1.000  C
  H15      1.0000 0.51310  0.73680  0.28970  Biso   1.000  H
  H16      1.0000 0.48690  0.26320  0.71030  Biso   1.000  H
  C28      1.0000 0.52470  0.91030  0.32560  Biso   1.000  C
  C29      1.0000 0.47530  0.08970  0.67440  Biso   1.000  C
  H17      1.0000 0.63770  0.87150  0.30950  Biso   1.000  H
  H18      1.0000 0.36230  0.12850  0.69050  Biso   1.000  H
  C30      1.0000 0.43190  0.04790  0.36120  Biso   1.000  C
  C31      1.0000 0.56810  0.95210  0.63880  Biso   1.000  C
  H19      1.0000 0.48210  0.10230  0.36920  Biso   1.000  H
  H20      1.0000 0.51790  0.89770  0.63080  Biso   1.000  H
  C32      1.0000 0.64060  0.43520  0.41220  Biso   1.000  C
  C33      1.0000 0.35940  0.56480  0.58780  Biso   1.000  C
  H21      1.0000 0.73810  0.38780  0.34960  Biso   1.000  H
  H22      1.0000 0.26190  0.61220  0.65040  Biso   1.000  H
  C34      1.0000 0.49680  0.44450  0.40900  Biso   1.000  C
  C35      1.0000 0.50320  0.55550  0.59100  Biso   1.000  C
  H23      1.0000 0.49840  0.40510  0.34250  Biso   1.000  H
  H24      1.0000 0.50160  0.59490  0.65750  Biso   1.000  H
  Cu1      1.0000 0.87068  0.48975  0.50210  Biso   1.000  Cu
  Cu2      1.0000 0.12932  0.51025  0.49790  Biso   1.000  Cu
  N1       1.0000 0.64530  0.49290  0.50360  Biso   1.000  N
  N2       1.0000 0.35470  0.50710  0.49640  Biso   1.000  N
  O7       1.0000 0.08030  0.41010  0.68770  Biso   1.000  O
  O8       1.0000 0.91970  0.58990  0.31230  Biso   1.000  O
  O9       1.0000 0.86200  0.38590  0.68950  Biso   1.000  O
  O10      1.0000 0.13800  0.61410  0.31050  Biso   1.000  O
  O11      1.0000 0.01410  0.30230  0.44010  Biso   1.000  O
  O12      1.0000 0.98590  0.69770  0.55990  Biso   1.000  O
  O13      1.0000 0.23620  0.32090  0.43770  Biso   1.000  O
  O14      1.0000 0.76380  0.67910  0.56230  Biso   1.000  O
