data_image0
_cell_length_a       9.689
_cell_length_b       10.408
_cell_length_c       10.911
_cell_angle_alpha    71.321
_cell_angle_beta     65.986
_cell_angle_gamma    63.085

_symmetry_space_group_name_H-M    "P 1"
_symmetry_int_tables_number       1

loop_
  _symmetry_equiv_pos_as_xyz
  'x, y, z'

loop_
  _atom_site_label
  _atom_site_occupancy
  _atom_site_fract_x
  _atom_site_fract_y
  _atom_site_fract_z
  _atom_site_thermal_displace_type
  _atom_site_B_iso_or_equiv
  _atom_site_type_symbol
  C1       1.0000 0.64500  0.61200  0.97600  Biso   1.000  C
  C2       1.0000 0.35500  0.38800  0.02400  Biso   1.000  C
  O1       1.0000 0.56400  0.54300  0.03500  Biso   1.000  O
  O2       1.0000 0.43600  0.45700  0.96500  Biso   1.000  O
  O3       1.0000 0.74300  0.65800  0.90000  Biso   1.000  O
  O4       1.0000 0.25700  0.34200  0.10000  Biso   1.000  O
  C3       1.0000 0.62000  0.60900  0.98200  Biso   1.000  C
  C4       1.0000 0.38000  0.39100  0.01800  Biso   1.000  C
  O5       1.0000 0.63300  0.56900  0.09030  Biso   1.000  O
  O6       1.0000 0.36700  0.43100  0.90970  Biso   1.000  O
  O7       1.0000 0.59100  0.61700  0.88630  Biso   1.000  O
  O8       1.0000 0.40900  0.38300  0.11370  Biso   1.000  O
  O9       1.0000 0.51100  0.89320  0.98720  Biso   1.000  O
  O10      1.0000 0.48900  0.10680  0.01280  Biso   1.000  O
  C5       1.0000 0.50000  0.00000  0.00000  Biso   1.000  C
  C6       1.0000 0.96040  0.37050  0.74530  Biso   1.000  C
  C7       1.0000 0.03960  0.62950  0.25470  Biso   1.000  C
  C8       1.0000 0.94050  0.29330  0.88890  Biso   1.000  C
  C9       1.0000 0.05950  0.70670  0.11110  Biso   1.000  C
  C10      1.0000 0.02810  0.29540  0.96190  Biso   1.000  C
  C11      1.0000 0.97190  0.70460  0.03810  Biso   1.000  C
  H1       1.0000 0.10040  0.34380  0.92080  Biso   1.000  H
  H2       1.0000 0.89960  0.65620  0.07920  Biso   1.000  H
  C12      1.0000 0.00750  0.22520  0.09630  Biso   1.000  C
  C13      1.0000 0.99250  0.77480  0.90370  Biso   1.000  C
  H3       1.0000 0.06620  0.22660  0.14510  Biso   1.000  H
  H4       1.0000 0.93380  0.77340  0.85490  Biso   1.000  H
  C14      1.0000 0.89940  0.15290  0.15780  Biso   1.000  C
  C15      1.0000 0.10060  0.84710  0.84220  Biso   1.000  C
  H5       1.0000 0.88570  0.10590  0.24770  Biso   1.000  H
  H6       1.0000 0.11430  0.89410  0.75230  Biso   1.000  H
  C16      1.0000 0.81180  0.15080  0.08480  Biso   1.000  C
  C17      1.0000 0.18820  0.84920  0.91520  Biso   1.000  C
  H7       1.0000 0.73950  0.10240  0.12600  Biso   1.000  H
  H8       1.0000 0.26050  0.89760  0.87400  Biso   1.000  H
  C18      1.0000 0.83230  0.22100  0.95040  Biso   1.000  C
  C19      1.0000 0.16770  0.77900  0.04960  Biso   1.000  C
  H9       1.0000 0.77370  0.21960  0.90160  Biso   1.000  H
  H10      1.0000 0.22630  0.78040  0.09840  Biso   1.000  H
  C20      1.0000 0.16540  0.25270  0.42380  Biso   1.000  C
  C21      1.0000 0.83460  0.74730  0.57620  Biso   1.000  C
  C22      1.0000 0.26520  0.10490  0.38510  Biso   1.000  C
  C23      1.0000 0.73480  0.89510  0.61490  Biso   1.000  C
  C24      1.0000 0.19100  0.02430  0.37300  Biso   1.000  C
  C25      1.0000 0.80900  0.97570  0.62700  Biso   1.000  C
  H11      1.0000 0.07890  0.06250  0.38960  Biso   1.000  H
  H12      1.0000 0.92110  0.93750  0.61040  Biso   1.000  H
  C26      1.0000 0.28420  0.88660  0.33610  Biso   1.000  C
  C27      1.0000 0.71580  0.11340  0.66390  Biso   1.000  C
  H13      1.0000 0.23460  0.83270  0.32800  Biso   1.000  H
  H14      1.0000 0.76540  0.16730  0.67200  Biso   1.000  H
  C28      1.0000 0.45170  0.82960  0.31130  Biso   1.000  C
  C29      1.0000 0.54830  0.17040  0.68870  Biso   1.000  C
  H15      1.0000 0.51410  0.73750  0.28660  Biso   1.000  H
  H16      1.0000 0.48590  0.26250  0.71340  Biso   1.000  H
  C30      1.0000 0.52600  0.91010  0.32340  Biso   1.000  C
  C31      1.0000 0.47400  0.08990  0.67660  Biso   1.000  C
  H17      1.0000 0.63800  0.87190  0.30680  Biso   1.000  H
  H18      1.0000 0.36200  0.12810  0.69320  Biso   1.000  H
  C32      1.0000 0.43270  0.04780  0.36030  Biso   1.000  C
  C33      1.0000 0.56730  0.95220  0.63970  Biso   1.000  C
  H19      1.0000 0.48240  0.10170  0.36840  Biso   1.000  H
  H20      1.0000 0.51760  0.89830  0.63160  Biso   1.000  H
  C34      1.0000 0.64000  0.43530  0.41280  Biso   1.000  C
  C35      1.0000 0.36000  0.56470  0.58720  Biso   1.000  C
  H21      1.0000 0.73710  0.38830  0.35030  Biso   1.000  H
  H22      1.0000 0.26290  0.61170  0.64970  Biso   1.000  H
  C36      1.0000 0.49760  0.44320  0.40870  Biso   1.000  C
  C37      1.0000 0.50240  0.55680  0.59130  Biso   1.000  C
  H23      1.0000 0.50060  0.40270  0.34260  Biso   1.000  H
  H24      1.0000 0.49940  0.59730  0.65740  Biso   1.000  H
  Cu1      1.0000 0.87075  0.48957  0.50224  Biso   1.000  Cu
  Cu2      1.0000 0.12925  0.51043  0.49776  Biso   1.000  Cu
  N1       1.0000 0.64530  0.49300  0.50390  Biso   1.000  N
  N2       1.0000 0.35470  0.50700  0.49610  Biso   1.000  N
  O11      1.0000 0.07790  0.41190  0.68870  Biso   1.000  O
  O12      1.0000 0.92210  0.58810  0.31130  Biso   1.000  O
  O13      1.0000 0.86020  0.38910  0.69010  Biso   1.000  O
  O14      1.0000 0.13980  0.61090  0.30990  Biso   1.000  O
  O15      1.0000 0.01510  0.30130  0.44020  Biso   1.000  O
  O16      1.0000 0.98490  0.69870  0.55980  Biso   1.000  O
  O17      1.0000 0.23630  0.32000  0.43750  Biso   1.000  O
  O18      1.0000 0.76370  0.68000  0.56250  Biso   1.000  O
