data_image0
_cell_length_a       9.6831
_cell_length_b       10.415
_cell_length_c       10.9296
_cell_angle_alpha    71.211
_cell_angle_beta     66.074
_cell_angle_gamma    63.04

_symmetry_space_group_name_H-M    "P 1"
_symmetry_int_tables_number       1

loop_
  _symmetry_equiv_pos_as_xyz
  'x, y, z'

loop_
  _atom_site_label
  _atom_site_occupancy
  _atom_site_fract_x
  _atom_site_fract_y
  _atom_site_fract_z
  _atom_site_thermal_displace_type
  _atom_site_B_iso_or_equiv
  _atom_site_type_symbol
  C1       1.0000 0.16580  0.75310  0.42250  Biso   1.000  C
  C2       1.0000 0.83420  0.24690  0.57750  Biso   1.000  C
  C3       1.0000 0.26560  0.60570  0.38420  Biso   1.000  C
  C4       1.0000 0.73440  0.39430  0.61580  Biso   1.000  C
  C5       1.0000 0.43270  0.54770  0.36050  Biso   1.000  C
  C6       1.0000 0.56730  0.45230  0.63950  Biso   1.000  C
  H1       1.0000 0.48260  0.60150  0.36840  Biso   1.000  H
  H2       1.0000 0.51740  0.39850  0.63160  Biso   1.000  H
  C7       1.0000 0.52510  0.41070  0.32540  Biso   1.000  C
  C8       1.0000 0.47490  0.58930  0.67460  Biso   1.000  C
  H3       1.0000 0.63690  0.37170  0.31050  Biso   1.000  H
  H4       1.0000 0.36310  0.62830  0.68950  Biso   1.000  H
  C9       1.0000 0.45070  0.33170  0.31240  Biso   1.000  C
  C10      1.0000 0.54930  0.66830  0.68760  Biso   1.000  C
  H5       1.0000 0.51340  0.24030  0.28650  Biso   1.000  H
  H6       1.0000 0.48660  0.75970  0.71350  Biso   1.000  H
  C11      1.0000 0.28600  0.38660  0.33720  Biso   1.000  C
  C12      1.0000 0.71400  0.61340  0.66280  Biso   1.000  C
  H7       1.0000 0.23680  0.33190  0.32980  Biso   1.000  H
  H8       1.0000 0.76320  0.66810  0.67020  Biso   1.000  H
  C13      1.0000 0.19270  0.52330  0.37330  Biso   1.000  C
  C14      1.0000 0.80730  0.47670  0.62670  Biso   1.000  C
  H9       1.0000 0.08060  0.56050  0.39040  Biso   1.000  H
  H10      1.0000 0.91940  0.43950  0.60960  Biso   1.000  H
  C15      1.0000 0.03880  0.13060  0.25420  Biso   1.000  C
  C16      1.0000 0.96120  0.86940  0.74580  Biso   1.000  C
  C17      1.0000 0.05920  0.20810  0.11140  Biso   1.000  C
  C18      1.0000 0.94080  0.79190  0.88860  Biso   1.000  C
  C19      1.0000 0.16670  0.27950  0.04980  Biso   1.000  C
  C20      1.0000 0.83330  0.72050  0.95020  Biso   1.000  C
  H11      1.0000 0.22630  0.27990  0.09820  Biso   1.000  H
  H12      1.0000 0.77370  0.72010  0.90180  Biso   1.000  H
  C21      1.0000 0.18680  0.35050  0.91640  Biso   1.000  C
  C22      1.0000 0.81320  0.64950  0.08360  Biso   1.000  C
  H13      1.0000 0.25900  0.39900  0.87560  Biso   1.000  H
  H14      1.0000 0.74100  0.60100  0.12440  Biso   1.000  H
  C23      1.0000 0.09980  0.34900  0.84510  Biso   1.000  C
  C24      1.0000 0.90020  0.65100  0.15490  Biso   1.000  C
  H15      1.0000 0.11280  0.39680  0.75560  Biso   1.000  H
  H16      1.0000 0.88720  0.60320  0.24440  Biso   1.000  H
  C25      1.0000 0.99390  0.27760  0.90470  Biso   1.000  C
  C26      1.0000 0.00610  0.72240  0.09530  Biso   1.000  C
  H17      1.0000 0.93550  0.27630  0.85560  Biso   1.000  H
  H18      1.0000 0.06450  0.72370  0.14440  Biso   1.000  H
  C27      1.0000 0.97380  0.20770  0.03720  Biso   1.000  C
  C28      1.0000 0.02620  0.79230  0.96280  Biso   1.000  C
  H19      1.0000 0.90130  0.15950  0.07740  Biso   1.000  H
  H20      1.0000 0.09870  0.84050  0.92260  Biso   1.000  H
  C29      1.0000 0.35950  0.06440  0.58680  Biso   1.000  C
  C30      1.0000 0.64050  0.93560  0.41320  Biso   1.000  C
  H21      1.0000 0.26240  0.11040  0.64960  Biso   1.000  H
  H22      1.0000 0.73760  0.88960  0.35040  Biso   1.000  H
  C31      1.0000 0.49680  0.94350  0.40880  Biso   1.000  C
  C32      1.0000 0.50320  0.05650  0.59120  Biso   1.000  C
  H23      1.0000 0.49900  0.90250  0.34360  Biso   1.000  H
  H24      1.0000 0.50100  0.09750  0.65640  Biso   1.000  H
  C33      1.0000 0.63100  0.09900  0.98000  Biso   1.000  C
  C34      1.0000 0.36900  0.90100  0.02000  Biso   1.000  C
  O1       1.0000 0.55300  0.03300  0.06000  Biso   1.000  O
  O2       1.0000 0.44700  0.96700  0.94000  Biso   1.000  O
  O3       1.0000 0.72500  0.14200  0.89300  Biso   1.000  O
  O4       1.0000 0.27500  0.85800  0.10700  Biso   1.000  O
  C35      1.0000 0.63000  0.10300  0.97880  Biso   1.000  C
  C36      1.0000 0.37000  0.89700  0.02120  Biso   1.000  C
  O5       1.0000 0.63840  0.06700  0.08880  Biso   1.000  O
  O6       1.0000 0.36160  0.93300  0.91120  Biso   1.000  O
  O7       1.0000 0.58830  0.11500  0.88820  Biso   1.000  O
  O8       1.0000 0.41170  0.88500  0.11180  Biso   1.000  O
  C37      1.0000 0.50000  0.50000  0.00000  Biso   1.000  C
  Cu1      1.0000 0.12925  0.01073  0.49768  Biso   1.000  Cu
  Cu2      1.0000 0.87075  0.98927  0.50232  Biso   1.000  Cu
  N1       1.0000 0.35510  0.00850  0.49580  Biso   1.000  N
  N2       1.0000 0.64490  0.99150  0.50420  Biso   1.000  N
  O9       1.0000 0.23600  0.82100  0.43700  Biso   1.000  O
  O10      1.0000 0.76400  0.17900  0.56300  Biso   1.000  O
  O11      1.0000 0.01460  0.80160  0.44070  Biso   1.000  O
  O12      1.0000 0.98540  0.19840  0.55930  Biso   1.000  O
  O13      1.0000 0.13890  0.11300  0.31020  Biso   1.000  O
  O14      1.0000 0.86110  0.88700  0.68980  Biso   1.000  O
  O15      1.0000 0.07980  0.91090  0.68780  Biso   1.000  O
  O16      1.0000 0.92020  0.08910  0.31220  Biso   1.000  O
  O17      1.0000 0.50800  0.39850  0.98560  Biso   1.000  O
  O18      1.0000 0.49200  0.60150  0.01440  Biso   1.000  O
