data_image0
_cell_length_a       9.6862
_cell_length_b       10.4076
_cell_length_c       10.9028
_cell_angle_alpha    71.465
_cell_angle_beta     65.916
_cell_angle_gamma    63.096

_symmetry_space_group_name_H-M    "P 1"
_symmetry_int_tables_number       1

loop_
  _symmetry_equiv_pos_as_xyz
  'x, y, z'

loop_
  _atom_site_label
  _atom_site_occupancy
  _atom_site_fract_x
  _atom_site_fract_y
  _atom_site_fract_z
  _atom_site_thermal_displace_type
  _atom_site_B_iso_or_equiv
  _atom_site_type_symbol
  C1       1.0000 0.16590  0.75250  0.42270  Biso   1.000  C
  C2       1.0000 0.83410  0.24750  0.57730  Biso   1.000  C
  C3       1.0000 0.26600  0.60470  0.38440  Biso   1.000  C
  C4       1.0000 0.73400  0.39530  0.61560  Biso   1.000  C
  C5       1.0000 0.43330  0.54660  0.35950  Biso   1.000  C
  C6       1.0000 0.56670  0.45340  0.64050  Biso   1.000  C
  H1       1.0000 0.48340  0.60060  0.36700  Biso   1.000  H
  H2       1.0000 0.51660  0.39940  0.63300  Biso   1.000  H
  C7       1.0000 0.52580  0.40970  0.32400  Biso   1.000  C
  C8       1.0000 0.47420  0.59030  0.67600  Biso   1.000  C
  H3       1.0000 0.63770  0.37070  0.30880  Biso   1.000  H
  H4       1.0000 0.36230  0.62930  0.69120  Biso   1.000  H
  C9       1.0000 0.45160  0.33080  0.31100  Biso   1.000  C
  C10      1.0000 0.54840  0.66920  0.68900  Biso   1.000  C
  H5       1.0000 0.51430  0.23920  0.28500  Biso   1.000  H
  H6       1.0000 0.48570  0.76080  0.71500  Biso   1.000  H
  C11      1.0000 0.28730  0.38600  0.33590  Biso   1.000  C
  C12      1.0000 0.71270  0.61400  0.66410  Biso   1.000  C
  H7       1.0000 0.23810  0.33130  0.32840  Biso   1.000  H
  H8       1.0000 0.76190  0.66870  0.67160  Biso   1.000  H
  C13      1.0000 0.19410  0.52240  0.37230  Biso   1.000  C
  C14      1.0000 0.80590  0.47760  0.62770  Biso   1.000  C
  H9       1.0000 0.08200  0.55970  0.38880  Biso   1.000  H
  H10      1.0000 0.91800  0.44030  0.61120  Biso   1.000  H
  C15      1.0000 0.03990  0.12950  0.25380  Biso   1.000  C
  C16      1.0000 0.96010  0.87050  0.74620  Biso   1.000  C
  C17      1.0000 0.06150  0.20570  0.11030  Biso   1.000  C
  C18      1.0000 0.93850  0.79430  0.88970  Biso   1.000  C
  C19      1.0000 0.16670  0.27920  0.04900  Biso   1.000  C
  C20      1.0000 0.83330  0.72080  0.95100  Biso   1.000  C
  H11      1.0000 0.22540  0.28120  0.09740  Biso   1.000  H
  H12      1.0000 0.77460  0.71880  0.90260  Biso   1.000  H
  C21      1.0000 0.18540  0.35000  0.91610  Biso   1.000  C
  C22      1.0000 0.81460  0.65000  0.08390  Biso   1.000  C
  H13      1.0000 0.25650  0.39960  0.87550  Biso   1.000  H
  H14      1.0000 0.74350  0.60040  0.12450  Biso   1.000  H
  C23      1.0000 0.09980  0.34790  0.84330  Biso   1.000  C
  C24      1.0000 0.90020  0.65210  0.15670  Biso   1.000  C
  H15      1.0000 0.11220  0.39610  0.75390  Biso   1.000  H
  H16      1.0000 0.88780  0.60390  0.24610  Biso   1.000  H
  C25      1.0000 0.99640  0.27440  0.90350  Biso   1.000  C
  C26      1.0000 0.00360  0.72560  0.09650  Biso   1.000  C
  H17      1.0000 0.93920  0.27120  0.85440  Biso   1.000  H
  H18      1.0000 0.06080  0.72880  0.14560  Biso   1.000  H
  C27      1.0000 0.97610  0.20540  0.03560  Biso   1.000  C
  C28      1.0000 0.02390  0.79460  0.96440  Biso   1.000  C
  H19      1.0000 0.90350  0.15720  0.07580  Biso   1.000  H
  H20      1.0000 0.09650  0.84280  0.92420  Biso   1.000  H
  C29      1.0000 0.35920  0.06460  0.58760  Biso   1.000  C
  C30      1.0000 0.64080  0.93540  0.41240  Biso   1.000  C
  H21      1.0000 0.26190  0.11080  0.65090  Biso   1.000  H
  H22      1.0000 0.73810  0.88920  0.34910  Biso   1.000  H
  C31      1.0000 0.50270  0.05630  0.59150  Biso   1.000  C
  C32      1.0000 0.49730  0.94370  0.40850  Biso   1.000  C
  H23      1.0000 0.50020  0.09730  0.65710  Biso   1.000  H
  H24      1.0000 0.49980  0.90270  0.34290  Biso   1.000  H
  C33      1.0000 0.62300  0.10100  0.98100  Biso   1.000  C
  C34      1.0000 0.37700  0.89900  0.01900  Biso   1.000  C
  O1       1.0000 0.54800  0.02900  0.05300  Biso   1.000  O
  O2       1.0000 0.45200  0.97100  0.94700  Biso   1.000  O
  O3       1.0000 0.71900  0.14700  0.89900  Biso   1.000  O
  O4       1.0000 0.28100  0.85300  0.10100  Biso   1.000  O
  C35      1.0000 0.62000  0.11100  0.97720  Biso   1.000  C
  C36      1.0000 0.38000  0.88900  0.02280  Biso   1.000  C
  O5       1.0000 0.63000  0.06990  0.08760  Biso   1.000  O
  O6       1.0000 0.37000  0.93010  0.91240  Biso   1.000  O
  O7       1.0000 0.58250  0.11620  0.88630  Biso   1.000  O
  O8       1.0000 0.41750  0.88380  0.11370  Biso   1.000  O
  C37      1.0000 0.50000  0.50000  0.00000  Biso   1.000  C
  Cu1      1.0000 0.12921  0.01095  0.49743  Biso   1.000  Cu
  Cu2      1.0000 0.87079  0.98905  0.50257  Biso   1.000  Cu
  N1       1.0000 0.35550  0.00840  0.49560  Biso   1.000  N
  N2       1.0000 0.64450  0.99160  0.50440  Biso   1.000  N
  O9       1.0000 0.23650  0.82040  0.43720  Biso   1.000  O
  O10      1.0000 0.76350  0.17960  0.56280  Biso   1.000  O
  O11      1.0000 0.01500  0.80080  0.44100  Biso   1.000  O
  O12      1.0000 0.98500  0.19920  0.55900  Biso   1.000  O
  O13      1.0000 0.14000  0.11140  0.30940  Biso   1.000  O
  O14      1.0000 0.86000  0.88860  0.69060  Biso   1.000  O
  O15      1.0000 0.92170  0.08730  0.31200  Biso   1.000  O
  O16      1.0000 0.07830  0.91270  0.68800  Biso   1.000  O
  O17      1.0000 0.51450  0.39540  0.98380  Biso   1.000  O
  O18      1.0000 0.48550  0.60460  0.01620  Biso   1.000  O
