data_image0
_cell_length_a       9.6874
_cell_length_b       10.4009
_cell_length_c       10.899
_cell_angle_alpha    71.39
_cell_angle_beta     65.922
_cell_angle_gamma    63.111

_symmetry_space_group_name_H-M    "P 1"
_symmetry_int_tables_number       1

loop_
  _symmetry_equiv_pos_as_xyz
  'x, y, z'

loop_
  _atom_site_label
  _atom_site_occupancy
  _atom_site_fract_x
  _atom_site_fract_y
  _atom_site_fract_z
  _atom_site_thermal_displace_type
  _atom_site_B_iso_or_equiv
  _atom_site_type_symbol
  O1       1.0000 0.55500  0.54500  0.04000  Biso   1.000  O
  O2       1.0000 0.44500  0.45500  0.96000  Biso   1.000  O
  C1       1.0000 0.63700  0.61300  0.97900  Biso   1.000  C
  C2       1.0000 0.36300  0.38700  0.02100  Biso   1.000  C
  O3       1.0000 0.73600  0.65800  0.90100  Biso   1.000  O
  O4       1.0000 0.26400  0.34200  0.09900  Biso   1.000  O
  C3       1.0000 0.62200  0.60900  0.98200  Biso   1.000  C
  C4       1.0000 0.37800  0.39100  0.01800  Biso   1.000  C
  O5       1.0000 0.63200  0.56900  0.09120  Biso   1.000  O
  O6       1.0000 0.36800  0.43100  0.90880  Biso   1.000  O
  O7       1.0000 0.58700  0.62000  0.88760  Biso   1.000  O
  O8       1.0000 0.41300  0.38000  0.11240  Biso   1.000  O
  O9       1.0000 0.51300  0.89500  0.98530  Biso   1.000  O
  O10      1.0000 0.48700  0.10500  0.01470  Biso   1.000  O
  C5       1.0000 0.50000  0.00000  0.00000  Biso   1.000  C
  C6       1.0000 0.96030  0.37030  0.74540  Biso   1.000  C
  C7       1.0000 0.03970  0.62970  0.25460  Biso   1.000  C
  C8       1.0000 0.93970  0.29390  0.88940  Biso   1.000  C
  C9       1.0000 0.06030  0.70610  0.11060  Biso   1.000  C
  C10      1.0000 0.02660  0.29650  0.96270  Biso   1.000  C
  C11      1.0000 0.97340  0.70350  0.03730  Biso   1.000  C
  H1       1.0000 0.09820  0.34570  0.92200  Biso   1.000  H
  H2       1.0000 0.90180  0.65430  0.07800  Biso   1.000  H
  C12      1.0000 0.00650  0.22550  0.09700  Biso   1.000  C
  C13      1.0000 0.99350  0.77450  0.90300  Biso   1.000  C
  H3       1.0000 0.06460  0.22720  0.14610  Biso   1.000  H
  H4       1.0000 0.93540  0.77280  0.85390  Biso   1.000  H
  C14      1.0000 0.89950  0.15200  0.15790  Biso   1.000  C
  C15      1.0000 0.10050  0.84800  0.84210  Biso   1.000  C
  H5       1.0000 0.88600  0.10450  0.24770  Biso   1.000  H
  H6       1.0000 0.11400  0.89550  0.75230  Biso   1.000  H
  C16      1.0000 0.81250  0.14940  0.08450  Biso   1.000  C
  C17      1.0000 0.18750  0.85060  0.91550  Biso   1.000  C
  H7       1.0000 0.74090  0.10020  0.12530  Biso   1.000  H
  H8       1.0000 0.25910  0.89980  0.87470  Biso   1.000  H
  C18      1.0000 0.83260  0.22040  0.95030  Biso   1.000  C
  C19      1.0000 0.16740  0.77960  0.04970  Biso   1.000  C
  H9       1.0000 0.77450  0.21870  0.90120  Biso   1.000  H
  H10      1.0000 0.22550  0.78130  0.09880  Biso   1.000  H
  C20      1.0000 0.16580  0.25130  0.42370  Biso   1.000  C
  C21      1.0000 0.83420  0.74870  0.57630  Biso   1.000  C
  C22      1.0000 0.26570  0.10430  0.38430  Biso   1.000  C
  C23      1.0000 0.73430  0.89570  0.61570  Biso   1.000  C
  C24      1.0000 0.19130  0.02320  0.37330  Biso   1.000  C
  C25      1.0000 0.80870  0.97680  0.62670  Biso   1.000  C
  H11      1.0000 0.07910  0.06110  0.39050  Biso   1.000  H
  H12      1.0000 0.92090  0.93890  0.60950  Biso   1.000  H
  C26      1.0000 0.28450  0.88530  0.33670  Biso   1.000  C
  C27      1.0000 0.71550  0.11470  0.66330  Biso   1.000  C
  H13      1.0000 0.23470  0.83100  0.32930  Biso   1.000  H
  H14      1.0000 0.76530  0.16900  0.67070  Biso   1.000  H
  C28      1.0000 0.45220  0.82850  0.31100  Biso   1.000  C
  C29      1.0000 0.54780  0.17150  0.68900  Biso   1.000  C
  H15      1.0000 0.51460  0.73630  0.28650  Biso   1.000  H
  H16      1.0000 0.48540  0.26370  0.71350  Biso   1.000  H
  C30      1.0000 0.52660  0.90970  0.32200  Biso   1.000  C
  C31      1.0000 0.47340  0.09030  0.67800  Biso   1.000  C
  H17      1.0000 0.63880  0.87170  0.30490  Biso   1.000  H
  H18      1.0000 0.36120  0.12830  0.69510  Biso   1.000  H
  C32      1.0000 0.43340  0.04760  0.35870  Biso   1.000  C
  C33      1.0000 0.56660  0.95240  0.64130  Biso   1.000  C
  H19      1.0000 0.48320  0.10190  0.36600  Biso   1.000  H
  H20      1.0000 0.51680  0.89810  0.63400  Biso   1.000  H
  C34      1.0000 0.64020  0.43590  0.41180  Biso   1.000  C
  C35      1.0000 0.35980  0.56410  0.58820  Biso   1.000  C
  H21      1.0000 0.73710  0.38940  0.34850  Biso   1.000  H
  H22      1.0000 0.26290  0.61060  0.65150  Biso   1.000  H
  C36      1.0000 0.49730  0.44420  0.40840  Biso   1.000  C
  C37      1.0000 0.50270  0.55580  0.59160  Biso   1.000  C
  H23      1.0000 0.49990  0.40420  0.34200  Biso   1.000  H
  H24      1.0000 0.50010  0.59580  0.65800  Biso   1.000  H
  Cu1      1.0000 0.87082  0.48953  0.50226  Biso   1.000  Cu
  Cu2      1.0000 0.12918  0.51047  0.49774  Biso   1.000  Cu
  N1       1.0000 0.64530  0.49280  0.50350  Biso   1.000  N
  N2       1.0000 0.35470  0.50720  0.49650  Biso   1.000  N
  O11      1.0000 0.07760  0.41280  0.68870  Biso   1.000  O
  O12      1.0000 0.92240  0.58720  0.31130  Biso   1.000  O
  O13      1.0000 0.85890  0.38920  0.69080  Biso   1.000  O
  O14      1.0000 0.14110  0.61080  0.30920  Biso   1.000  O
  O15      1.0000 0.01510  0.30060  0.44060  Biso   1.000  O
  O16      1.0000 0.98490  0.69940  0.55940  Biso   1.000  O
  O17      1.0000 0.23630  0.32000  0.43740  Biso   1.000  O
  O18      1.0000 0.76370  0.68000  0.56260  Biso   1.000  O
