data_image0
_cell_length_a       9.691
_cell_length_b       10.42
_cell_length_c       10.932
_cell_angle_alpha    71.15
_cell_angle_beta     66.075
_cell_angle_gamma    63.057

_symmetry_space_group_name_H-M    "P 1"
_symmetry_int_tables_number       1

loop_
  _symmetry_equiv_pos_as_xyz
  'x, y, z'

loop_
  _atom_site_label
  _atom_site_occupancy
  _atom_site_fract_x
  _atom_site_fract_y
  _atom_site_fract_z
  _atom_site_thermal_displace_type
  _atom_site_B_iso_or_equiv
  _atom_site_type_symbol
  C1       1.0000 0.66500  0.60300  0.97200  Biso   1.000  C
  C2       1.0000 0.33500  0.39700  0.02800  Biso   1.000  C
  O1       1.0000 0.57300  0.54500  0.02600  Biso   1.000  O
  O2       1.0000 0.42700  0.45500  0.97400  Biso   1.000  O
  O3       1.0000 0.75400  0.65700  0.89000  Biso   1.000  O
  O4       1.0000 0.24600  0.34300  0.11000  Biso   1.000  O
  C3       1.0000 0.62600  0.60400  0.98100  Biso   1.000  C
  C4       1.0000 0.37400  0.39600  0.01900  Biso   1.000  C
  O5       1.0000 0.63300  0.56760  0.09080  Biso   1.000  O
  O6       1.0000 0.36700  0.43240  0.90920  Biso   1.000  O
  O7       1.0000 0.59500  0.61790  0.88460  Biso   1.000  O
  O8       1.0000 0.40500  0.38210  0.11540  Biso   1.000  O
  O9       1.0000 0.50740  0.89730  0.98620  Biso   1.000  O
  O10      1.0000 0.49260  0.10270  0.01380  Biso   1.000  O
  C5       1.0000 0.50000  0.00000  0.00000  Biso   1.000  C
  C6       1.0000 0.96020  0.36880  0.74580  Biso   1.000  C
  C7       1.0000 0.03980  0.63120  0.25420  Biso   1.000  C
  C8       1.0000 0.94090  0.29300  0.88830  Biso   1.000  C
  C9       1.0000 0.05910  0.70700  0.11170  Biso   1.000  C
  C10      1.0000 0.02910  0.29440  0.96090  Biso   1.000  C
  C11      1.0000 0.97090  0.70560  0.03910  Biso   1.000  C
  H1       1.0000 0.10220  0.34320  0.91940  Biso   1.000  H
  H2       1.0000 0.89780  0.65680  0.08060  Biso   1.000  H
  C12      1.0000 0.00930  0.22340  0.09500  Biso   1.000  C
  C13      1.0000 0.99070  0.77660  0.90500  Biso   1.000  C
  H3       1.0000 0.06900  0.22430  0.14420  Biso   1.000  H
  H4       1.0000 0.93100  0.77570  0.85580  Biso   1.000  H
  C14      1.0000 0.90130  0.15110  0.15640  Biso   1.000  C
  C15      1.0000 0.09870  0.84890  0.84360  Biso   1.000  C
  H5       1.0000 0.88790  0.10310  0.24710  Biso   1.000  H
  H6       1.0000 0.11210  0.89690  0.75290  Biso   1.000  H
  C16      1.0000 0.81300  0.14980  0.08370  Biso   1.000  C
  C17      1.0000 0.18700  0.85020  0.91630  Biso   1.000  C
  H7       1.0000 0.74000  0.10090  0.12530  Biso   1.000  H
  H8       1.0000 0.26000  0.89910  0.87470  Biso   1.000  H
  C18      1.0000 0.83280  0.22080  0.94970  Biso   1.000  C
  C19      1.0000 0.16720  0.77920  0.05030  Biso   1.000  C
  H9       1.0000 0.77310  0.21990  0.90050  Biso   1.000  H
  H10      1.0000 0.22690  0.78010  0.09950  Biso   1.000  H
  C20      1.0000 0.16480  0.25340  0.42270  Biso   1.000  C
  C21      1.0000 0.83520  0.74660  0.57730  Biso   1.000  C
  C22      1.0000 0.26500  0.10550  0.38460  Biso   1.000  C
  C23      1.0000 0.73500  0.89450  0.61540  Biso   1.000  C
  C24      1.0000 0.19050  0.02480  0.37340  Biso   1.000  C
  C25      1.0000 0.80950  0.97520  0.62660  Biso   1.000  C
  H11      1.0000 0.07730  0.06350  0.39000  Biso   1.000  H
  H12      1.0000 0.92270  0.93650  0.61000  Biso   1.000  H
  C26      1.0000 0.28330  0.88700  0.33750  Biso   1.000  C
  C27      1.0000 0.71670  0.11300  0.66250  Biso   1.000  C
  H13      1.0000 0.23290  0.83250  0.33000  Biso   1.000  H
  H14      1.0000 0.76710  0.16750  0.67000  Biso   1.000  H
  C28      1.0000 0.45070  0.82990  0.31290  Biso   1.000  C
  C29      1.0000 0.54930  0.17010  0.68710  Biso   1.000  C
  H15      1.0000 0.51340  0.73670  0.28870  Biso   1.000  H
  H16      1.0000 0.48660  0.26330  0.71130  Biso   1.000  H
  C30      1.0000 0.52520  0.91050  0.32410  Biso   1.000  C
  C31      1.0000 0.47480  0.08950  0.67590  Biso   1.000  C
  H17      1.0000 0.63840  0.87190  0.30740  Biso   1.000  H
  H18      1.0000 0.36160  0.12810  0.69260  Biso   1.000  H
  C32      1.0000 0.43240  0.04840  0.35990  Biso   1.000  C
  C33      1.0000 0.56760  0.95160  0.64010  Biso   1.000  C
  H19      1.0000 0.48280  0.10290  0.36750  Biso   1.000  H
  H20      1.0000 0.51720  0.89710  0.63250  Biso   1.000  H
  C34      1.0000 0.64010  0.43610  0.41240  Biso   1.000  C
  C35      1.0000 0.35990  0.56390  0.58760  Biso   1.000  C
  H21      1.0000 0.73790  0.38910  0.34920  Biso   1.000  H
  H22      1.0000 0.26210  0.61090  0.65080  Biso   1.000  H
  C36      1.0000 0.49750  0.44370  0.40870  Biso   1.000  C
  C37      1.0000 0.50250  0.55630  0.59130  Biso   1.000  C
  H23      1.0000 0.50020  0.40330  0.34190  Biso   1.000  H
  H24      1.0000 0.49980  0.59670  0.65810  Biso   1.000  H
  Cu1      1.0000 0.87073  0.48969  0.50208  Biso   1.000  Cu
  Cu2      1.0000 0.12927  0.51031  0.49792  Biso   1.000  Cu
  N1       1.0000 0.64560  0.49350  0.50330  Biso   1.000  N
  N2       1.0000 0.35440  0.50650  0.49670  Biso   1.000  N
  O11      1.0000 0.07910  0.41120  0.68760  Biso   1.000  O
  O12      1.0000 0.92090  0.58880  0.31240  Biso   1.000  O
  O13      1.0000 0.86020  0.38780  0.69070  Biso   1.000  O
  O14      1.0000 0.13980  0.61220  0.30930  Biso   1.000  O
  O15      1.0000 0.01430  0.30220  0.44010  Biso   1.000  O
  O16      1.0000 0.98570  0.69780  0.55990  Biso   1.000  O
  O17      1.0000 0.23640  0.32000  0.43760  Biso   1.000  O
  O18      1.0000 0.76360  0.68000  0.56240  Biso   1.000  O
