data_image0
_cell_length_a       9.6878
_cell_length_b       10.3938
_cell_length_c       10.884
_cell_angle_alpha    71.478
_cell_angle_beta     65.848
_cell_angle_gamma    63.144

_symmetry_space_group_name_H-M    "P 1"
_symmetry_int_tables_number       1

loop_
  _symmetry_equiv_pos_as_xyz
  'x, y, z'

loop_
  _atom_site_label
  _atom_site_occupancy
  _atom_site_fract_x
  _atom_site_fract_y
  _atom_site_fract_z
  _atom_site_thermal_displace_type
  _atom_site_B_iso_or_equiv
  _atom_site_type_symbol
  O1       1.0000 0.71700  0.65200  0.91000  Biso   1.000  O
  O2       1.0000 0.28300  0.34800  0.09000  Biso   1.000  O
  O3       1.0000 0.54400  0.53200  0.05000  Biso   1.000  O
  O4       1.0000 0.45600  0.46800  0.95000  Biso   1.000  O
  C1       1.0000 0.61900  0.60400  0.98200  Biso   1.000  C
  C2       1.0000 0.38100  0.39600  0.01800  Biso   1.000  C
  C3       1.0000 0.61500  0.61200  0.98100  Biso   1.000  C
  C4       1.0000 0.38500  0.38800  0.01900  Biso   1.000  C
  O5       1.0000 0.62900  0.57400  0.08900  Biso   1.000  O
  O6       1.0000 0.37100  0.42600  0.91100  Biso   1.000  O
  O7       1.0000 0.58300  0.61600  0.88700  Biso   1.000  O
  O8       1.0000 0.41700  0.38400  0.11300  Biso   1.000  O
  O9       1.0000 0.51600  0.89160  0.98820  Biso   1.000  O
  O10      1.0000 0.48400  0.10840  0.01180  Biso   1.000  O
  C5       1.0000 0.50000  0.00000  0.00000  Biso   1.000  C
  C6       1.0000 0.96080  0.37100  0.74550  Biso   1.000  C
  C7       1.0000 0.03920  0.62900  0.25450  Biso   1.000  C
  C8       1.0000 0.93970  0.29420  0.88950  Biso   1.000  C
  C9       1.0000 0.06030  0.70580  0.11050  Biso   1.000  C
  C10      1.0000 0.02640  0.29690  0.96300  Biso   1.000  C
  C11      1.0000 0.97360  0.70310  0.03700  Biso   1.000  C
  H1       1.0000 0.09820  0.34590  0.92220  Biso   1.000  H
  H2       1.0000 0.90180  0.65410  0.07780  Biso   1.000  H
  C12      1.0000 0.00570  0.22630  0.09750  Biso   1.000  C
  C13      1.0000 0.99430  0.77370  0.90250  Biso   1.000  C
  H3       1.0000 0.06370  0.22810  0.14670  Biso   1.000  H
  H4       1.0000 0.93630  0.77190  0.85330  Biso   1.000  H
  C14      1.0000 0.89830  0.15300  0.15850  Biso   1.000  C
  C15      1.0000 0.10170  0.84700  0.84150  Biso   1.000  C
  H5       1.0000 0.88440  0.10580  0.24850  Biso   1.000  H
  H6       1.0000 0.11560  0.89420  0.75150  Biso   1.000  H
  C16      1.0000 0.81160  0.15030  0.08500  Biso   1.000  C
  C17      1.0000 0.18840  0.84970  0.91500  Biso   1.000  C
  H7       1.0000 0.73980  0.10130  0.12580  Biso   1.000  H
  H8       1.0000 0.26020  0.89870  0.87420  Biso   1.000  H
  C18      1.0000 0.83230  0.22090  0.95050  Biso   1.000  C
  C19      1.0000 0.16770  0.77910  0.04950  Biso   1.000  C
  H9       1.0000 0.77430  0.21910  0.90130  Biso   1.000  H
  H10      1.0000 0.22570  0.78090  0.09870  Biso   1.000  H
  C20      1.0000 0.83470  0.74690  0.57720  Biso   1.000  C
  C21      1.0000 0.16530  0.25310  0.42280  Biso   1.000  C
  C22      1.0000 0.73420  0.89560  0.61520  Biso   1.000  C
  C23      1.0000 0.26580  0.10440  0.38480  Biso   1.000  C
  C24      1.0000 0.80770  0.97680  0.62750  Biso   1.000  C
  C25      1.0000 0.19230  0.02320  0.37250  Biso   1.000  C
  H11      1.0000 0.91980  0.93900  0.61090  Biso   1.000  H
  H12      1.0000 0.08020  0.06100  0.38910  Biso   1.000  H
  C26      1.0000 0.71380  0.11460  0.66470  Biso   1.000  C
  C27      1.0000 0.28620  0.88540  0.33530  Biso   1.000  C
  H13      1.0000 0.76300  0.16890  0.67300  Biso   1.000  H
  H14      1.0000 0.23700  0.83110  0.32700  Biso   1.000  H
  C28      1.0000 0.54630  0.17110  0.68960  Biso   1.000  C
  C29      1.0000 0.45370  0.82890  0.31040  Biso   1.000  C
  H15      1.0000 0.48340  0.26330  0.71450  Biso   1.000  H
  H16      1.0000 0.51660  0.73670  0.28550  Biso   1.000  H
  C30      1.0000 0.47270  0.08990  0.67720  Biso   1.000  C
  C31      1.0000 0.52730  0.91010  0.32280  Biso   1.000  C
  H17      1.0000 0.36060  0.12770  0.69390  Biso   1.000  H
  H18      1.0000 0.63940  0.87230  0.30610  Biso   1.000  H
  C32      1.0000 0.56670  0.95210  0.64000  Biso   1.000  C
  C33      1.0000 0.43330  0.04790  0.36000  Biso   1.000  C
  H19      1.0000 0.51750  0.89780  0.63180  Biso   1.000  H
  H20      1.0000 0.48250  0.10220  0.36820  Biso   1.000  H
  C34      1.0000 0.35970  0.56500  0.58820  Biso   1.000  C
  C35      1.0000 0.64030  0.43500  0.41180  Biso   1.000  C
  H21      1.0000 0.26300  0.61150  0.65200  Biso   1.000  H
  H22      1.0000 0.73700  0.38850  0.34800  Biso   1.000  H
  C36      1.0000 0.50290  0.55660  0.59050  Biso   1.000  C
  C37      1.0000 0.49710  0.44340  0.40950  Biso   1.000  C
  H23      1.0000 0.50040  0.59800  0.65590  Biso   1.000  H
  H24      1.0000 0.49960  0.40200  0.34410  Biso   1.000  H
  Cu1      1.0000 0.12919  0.51062  0.49758  Biso   1.000  Cu
  Cu2      1.0000 0.87081  0.48938  0.50242  Biso   1.000  Cu
  N1       1.0000 0.35440  0.50780  0.49640  Biso   1.000  N
  N2       1.0000 0.64560  0.49220  0.50360  Biso   1.000  N
  O11      1.0000 0.92150  0.58700  0.31240  Biso   1.000  O
  O12      1.0000 0.07850  0.41300  0.68760  Biso   1.000  O
  O13      1.0000 0.85890  0.38980  0.69070  Biso   1.000  O
  O14      1.0000 0.14110  0.61020  0.30930  Biso   1.000  O
  O15      1.0000 0.98560  0.69950  0.55860  Biso   1.000  O
  O16      1.0000 0.01440  0.30050  0.44140  Biso   1.000  O
  O17      1.0000 0.76320  0.67990  0.56300  Biso   1.000  O
  O18      1.0000 0.23680  0.32010  0.43700  Biso   1.000  O
