data_image0
_cell_length_a       9.69
_cell_length_b       10.403
_cell_length_c       10.889
_cell_angle_alpha    71.578
_cell_angle_beta     65.775
_cell_angle_gamma    63.088

_symmetry_space_group_name_H-M    "P 1"
_symmetry_int_tables_number       1

loop_
  _symmetry_equiv_pos_as_xyz
  'x, y, z'

loop_
  _atom_site_label
  _atom_site_occupancy
  _atom_site_fract_x
  _atom_site_fract_y
  _atom_site_fract_z
  _atom_site_thermal_displace_type
  _atom_site_B_iso_or_equiv
  _atom_site_type_symbol
  C1       1.0000 0.16610  0.75220  0.42230  Biso   1.000  C
  C2       1.0000 0.83390  0.24780  0.57770  Biso   1.000  C
  C3       1.0000 0.26650  0.60410  0.38390  Biso   1.000  C
  C4       1.0000 0.73350  0.39590  0.61610  Biso   1.000  C
  C5       1.0000 0.43400  0.54580  0.35790  Biso   1.000  C
  C6       1.0000 0.56600  0.45420  0.64210  Biso   1.000  C
  H1       1.0000 0.48430  0.60000  0.36470  Biso   1.000  H
  H2       1.0000 0.51570  0.40000  0.63530  Biso   1.000  H
  C7       1.0000 0.52620  0.40970  0.32240  Biso   1.000  C
  C8       1.0000 0.47380  0.59030  0.67760  Biso   1.000  C
  H3       1.0000 0.63810  0.37110  0.30710  Biso   1.000  H
  H4       1.0000 0.36190  0.62890  0.69290  Biso   1.000  H
  C9       1.0000 0.45390  0.33010  0.30950  Biso   1.000  C
  C10      1.0000 0.54610  0.66990  0.69050  Biso   1.000  C
  H5       1.0000 0.51730  0.23830  0.28360  Biso   1.000  H
  H6       1.0000 0.48270  0.76170  0.71640  Biso   1.000  H
  C11      1.0000 0.28850  0.38500  0.33450  Biso   1.000  C
  C12      1.0000 0.71150  0.61500  0.66550  Biso   1.000  C
  H7       1.0000 0.23970  0.33020  0.32650  Biso   1.000  H
  H8       1.0000 0.76030  0.66980  0.67350  Biso   1.000  H
  C13      1.0000 0.19480  0.52140  0.37160  Biso   1.000  C
  C14      1.0000 0.80520  0.47860  0.62840  Biso   1.000  C
  H9       1.0000 0.08260  0.55850  0.38850  Biso   1.000  H
  H10      1.0000 0.91740  0.44150  0.61150  Biso   1.000  H
  C15      1.0000 0.04050  0.12840  0.25360  Biso   1.000  C
  C16      1.0000 0.95950  0.87160  0.74640  Biso   1.000  C
  C17      1.0000 0.06170  0.20500  0.11030  Biso   1.000  C
  C18      1.0000 0.93830  0.79500  0.88970  Biso   1.000  C
  C19      1.0000 0.16590  0.27880  0.04810  Biso   1.000  C
  C20      1.0000 0.83410  0.72120  0.95190  Biso   1.000  C
  H11      1.0000 0.22470  0.28060  0.09650  Biso   1.000  H
  H12      1.0000 0.77530  0.71940  0.90350  Biso   1.000  H
  C21      1.0000 0.18540  0.35000  0.91600  Biso   1.000  C
  C22      1.0000 0.81460  0.65000  0.08400  Biso   1.000  C
  H13      1.0000 0.25620  0.40000  0.87600  Biso   1.000  H
  H14      1.0000 0.74380  0.60000  0.12400  Biso   1.000  H
  C23      1.0000 0.10040  0.34760  0.84280  Biso   1.000  C
  C24      1.0000 0.89960  0.65240  0.15720  Biso   1.000  C
  H15      1.0000 0.11270  0.39610  0.75340  Biso   1.000  H
  H16      1.0000 0.88730  0.60390  0.24660  Biso   1.000  H
  C25      1.0000 0.99770  0.27320  0.90300  Biso   1.000  C
  C26      1.0000 0.00230  0.72680  0.09700  Biso   1.000  C
  H17      1.0000 0.94140  0.26940  0.85350  Biso   1.000  H
  H18      1.0000 0.05860  0.73060  0.14650  Biso   1.000  H
  C27      1.0000 0.97680  0.20400  0.03520  Biso   1.000  C
  C28      1.0000 0.02320  0.79600  0.96480  Biso   1.000  C
  H19      1.0000 0.90440  0.15570  0.07510  Biso   1.000  H
  H20      1.0000 0.09560  0.84430  0.92490  Biso   1.000  H
  C29      1.0000 0.35910  0.06480  0.58760  Biso   1.000  C
  C30      1.0000 0.64090  0.93520  0.41240  Biso   1.000  C
  H21      1.0000 0.26160  0.11140  0.65090  Biso   1.000  H
  H22      1.0000 0.73840  0.88860  0.34910  Biso   1.000  H
  C31      1.0000 0.50270  0.05660  0.59160  Biso   1.000  C
  C32      1.0000 0.49730  0.94340  0.40840  Biso   1.000  C
  H23      1.0000 0.50020  0.09770  0.65730  Biso   1.000  H
  H24      1.0000 0.49980  0.90230  0.34270  Biso   1.000  H
  C33      1.0000 0.61400  0.10000  0.98500  Biso   1.000  C
  C34      1.0000 0.38600  0.90000  0.01500  Biso   1.000  C
  O1       1.0000 0.54000  0.02600  0.05100  Biso   1.000  O
  O2       1.0000 0.46000  0.97400  0.94900  Biso   1.000  O
  O3       1.0000 0.70700  0.15200  0.90600  Biso   1.000  O
  O4       1.0000 0.29300  0.84800  0.09400  Biso   1.000  O
  C35      1.0000 0.61600  0.11200  0.97800  Biso   1.000  C
  C36      1.0000 0.38400  0.88800  0.02200  Biso   1.000  C
  O5       1.0000 0.62300  0.07000  0.08920  Biso   1.000  O
  O6       1.0000 0.37700  0.93000  0.91080  Biso   1.000  O
  O7       1.0000 0.58100  0.11800  0.88580  Biso   1.000  O
  O8       1.0000 0.41900  0.88200  0.11420  Biso   1.000  O
  C37      1.0000 0.50000  0.50000  0.00000  Biso   1.000  C
  Cu1      1.0000 0.12931  0.01106  0.49720  Biso   1.000  Cu
  Cu2      1.0000 0.87069  0.98894  0.50280  Biso   1.000  Cu
  N1       1.0000 0.35550  0.00830  0.49610  Biso   1.000  N
  N2       1.0000 0.64450  0.99170  0.50390  Biso   1.000  N
  O9       1.0000 0.23670  0.82030  0.43660  Biso   1.000  O
  O10      1.0000 0.76330  0.17970  0.56340  Biso   1.000  O
  O11      1.0000 0.01490  0.80080  0.44130  Biso   1.000  O
  O12      1.0000 0.98510  0.19920  0.55870  Biso   1.000  O
  O13      1.0000 0.14080  0.11060  0.30890  Biso   1.000  O
  O14      1.0000 0.85920  0.88940  0.69110  Biso   1.000  O
  O15      1.0000 0.92230  0.08610  0.31250  Biso   1.000  O
  O16      1.0000 0.07770  0.91390  0.68750  Biso   1.000  O
  O17      1.0000 0.52000  0.39180  0.98450  Biso   1.000  O
  O18      1.0000 0.48000  0.60820  0.01550  Biso   1.000  O
