data_image0
_cell_length_a       9.697
_cell_length_b       10.392
_cell_length_c       10.879
_cell_angle_alpha    71.587
_cell_angle_beta     65.735
_cell_angle_gamma    63.13

_symmetry_space_group_name_H-M    "P 1"
_symmetry_int_tables_number       1

loop_
  _symmetry_equiv_pos_as_xyz
  'x, y, z'

loop_
  _atom_site_label
  _atom_site_occupancy
  _atom_site_fract_x
  _atom_site_fract_y
  _atom_site_fract_z
  _atom_site_thermal_displace_type
  _atom_site_B_iso_or_equiv
  _atom_site_type_symbol
  O1       1.0000 0.54000  0.54400  0.04200  Biso   1.000  O
  O2       1.0000 0.46000  0.45600  0.95800  Biso   1.000  O
  C1       1.0000 0.62200  0.61200  0.97800  Biso   1.000  C
  C2       1.0000 0.37800  0.38800  0.02200  Biso   1.000  C
  O3       1.0000 0.72800  0.65100  0.91000  Biso   1.000  O
  O4       1.0000 0.27200  0.34900  0.09000  Biso   1.000  O
  C3       1.0000 0.60900  0.61600  0.98100  Biso   1.000  C
  C4       1.0000 0.39100  0.38400  0.01900  Biso   1.000  C
  O5       1.0000 0.63500  0.57400  0.08400  Biso   1.000  O
  O6       1.0000 0.36500  0.42600  0.91600  Biso   1.000  O
  O7       1.0000 0.58000  0.61900  0.88700  Biso   1.000  O
  O8       1.0000 0.42000  0.38100  0.11300  Biso   1.000  O
  O9       1.0000 0.51900  0.88800  0.98820  Biso   1.000  O
  O10      1.0000 0.48100  0.11200  0.01180  Biso   1.000  O
  C5       1.0000 0.50000  0.00000  0.00000  Biso   1.000  C
  C6       1.0000 0.04100  0.62680  0.25450  Biso   1.000  C
  C7       1.0000 0.95900  0.37320  0.74550  Biso   1.000  C
  C8       1.0000 0.06130  0.70500  0.10990  Biso   1.000  C
  C9       1.0000 0.93870  0.29500  0.89010  Biso   1.000  C
  C10      1.0000 0.97440  0.70120  0.03730  Biso   1.000  C
  C11      1.0000 0.02560  0.29880  0.96270  Biso   1.000  C
  H1       1.0000 0.90330  0.65150  0.07860  Biso   1.000  H
  H2       1.0000 0.09670  0.34850  0.92140  Biso   1.000  H
  C12      1.0000 0.99390  0.77160  0.90280  Biso   1.000  C
  C13      1.0000 0.00610  0.22840  0.09720  Biso   1.000  C
  H3       1.0000 0.93570  0.76910  0.85420  Biso   1.000  H
  H4       1.0000 0.06430  0.23090  0.14580  Biso   1.000  H
  C14      1.0000 0.10020  0.84590  0.84100  Biso   1.000  C
  C15      1.0000 0.89980  0.15410  0.15900  Biso   1.000  C
  H5       1.0000 0.11320  0.89300  0.75110  Biso   1.000  H
  H6       1.0000 0.88680  0.10700  0.24890  Biso   1.000  H
  C16      1.0000 0.18710  0.84970  0.91360  Biso   1.000  C
  C17      1.0000 0.81290  0.15030  0.08640  Biso   1.000  C
  H7       1.0000 0.25820  0.89940  0.87220  Biso   1.000  H
  H8       1.0000 0.74180  0.10060  0.12780  Biso   1.000  H
  C18      1.0000 0.16760  0.77930  0.04800  Biso   1.000  C
  C19      1.0000 0.83240  0.22070  0.95200  Biso   1.000  C
  H9       1.0000 0.22570  0.78180  0.09660  Biso   1.000  H
  H10      1.0000 0.77430  0.21820  0.90340  Biso   1.000  H
  C20      1.0000 0.16560  0.25210  0.42270  Biso   1.000  C
  C21      1.0000 0.83440  0.74790  0.57730  Biso   1.000  C
  C22      1.0000 0.26570  0.10400  0.38440  Biso   1.000  C
  C23      1.0000 0.73430  0.89600  0.61560  Biso   1.000  C
  C24      1.0000 0.19170  0.02310  0.37220  Biso   1.000  C
  C25      1.0000 0.80830  0.97690  0.62780  Biso   1.000  C
  H11      1.0000 0.07960  0.06130  0.38900  Biso   1.000  H
  H12      1.0000 0.92040  0.93870  0.61100  Biso   1.000  H
  C26      1.0000 0.28530  0.88520  0.33480  Biso   1.000  C
  C27      1.0000 0.71470  0.11480  0.66520  Biso   1.000  C
  H13      1.0000 0.23580  0.83120  0.32660  Biso   1.000  H
  H14      1.0000 0.76420  0.16880  0.67340  Biso   1.000  H
  C28      1.0000 0.45280  0.82820  0.30960  Biso   1.000  C
  C29      1.0000 0.54720  0.17180  0.69040  Biso   1.000  C
  H15      1.0000 0.51540  0.73590  0.28460  Biso   1.000  H
  H16      1.0000 0.48460  0.26410  0.71540  Biso   1.000  H
  C30      1.0000 0.52680  0.90900  0.32180  Biso   1.000  C
  C31      1.0000 0.47320  0.09100  0.67820  Biso   1.000  C
  H17      1.0000 0.63890  0.87090  0.30500  Biso   1.000  H
  H18      1.0000 0.36110  0.12910  0.69500  Biso   1.000  H
  C32      1.0000 0.43330  0.04690  0.35920  Biso   1.000  C
  C33      1.0000 0.56670  0.95310  0.64080  Biso   1.000  C
  H19      1.0000 0.48280  0.10100  0.36740  Biso   1.000  H
  H20      1.0000 0.51720  0.89900  0.63260  Biso   1.000  H
  C34      1.0000 0.64110  0.43480  0.41220  Biso   1.000  C
  C35      1.0000 0.35890  0.56520  0.58780  Biso   1.000  C
  H21      1.0000 0.73850  0.38800  0.34890  Biso   1.000  H
  H22      1.0000 0.26150  0.61200  0.65110  Biso   1.000  H
  C36      1.0000 0.49900  0.44190  0.40900  Biso   1.000  C
  C37      1.0000 0.50100  0.55810  0.59100  Biso   1.000  C
  H23      1.0000 0.50240  0.39980  0.34350  Biso   1.000  H
  H24      1.0000 0.49760  0.60020  0.65650  Biso   1.000  H
  Cu1      1.0000 0.87058  0.48945  0.50271  Biso   1.000  Cu
  Cu2      1.0000 0.12942  0.51055  0.49729  Biso   1.000  Cu
  N1       1.0000 0.64520  0.49290  0.50310  Biso   1.000  N
  N2       1.0000 0.35480  0.50710  0.49690  Biso   1.000  N
  O11      1.0000 0.92330  0.58560  0.31160  Biso   1.000  O
  O12      1.0000 0.07670  0.41440  0.68840  Biso   1.000  O
  O13      1.0000 0.14120  0.60940  0.30900  Biso   1.000  O
  O14      1.0000 0.85880  0.39060  0.69100  Biso   1.000  O
  O15      1.0000 0.01510  0.30050  0.44040  Biso   1.000  O
  O16      1.0000 0.98490  0.69950  0.55960  Biso   1.000  O
  O17      1.0000 0.23640  0.31950  0.43740  Biso   1.000  O
  O18      1.0000 0.76360  0.68050  0.56260  Biso   1.000  O
