data_image0
_cell_length_a       9.6955
_cell_length_b       10.3885
_cell_length_c       10.873
_cell_angle_alpha    71.614
_cell_angle_beta     65.704
_cell_angle_gamma    63.135

_symmetry_space_group_name_H-M    "P 1"
_symmetry_int_tables_number       1

loop_
  _symmetry_equiv_pos_as_xyz
  'x, y, z'

loop_
  _atom_site_label
  _atom_site_occupancy
  _atom_site_fract_x
  _atom_site_fract_y
  _atom_site_fract_z
  _atom_site_thermal_displace_type
  _atom_site_B_iso_or_equiv
  _atom_site_type_symbol
  O1       1.0000 0.54700  0.52900  0.03900  Biso   1.000  O
  O2       1.0000 0.45300  0.47100  0.96100  Biso   1.000  O
  C1       1.0000 0.62200  0.60400  0.98400  Biso   1.000  C
  C2       1.0000 0.37800  0.39600  0.01600  Biso   1.000  C
  O3       1.0000 0.72300  0.65000  0.91400  Biso   1.000  O
  O4       1.0000 0.27700  0.35000  0.08600  Biso   1.000  O
  C3       1.0000 0.60500  0.62000  0.98500  Biso   1.000  C
  C4       1.0000 0.39500  0.38000  0.01500  Biso   1.000  C
  O5       1.0000 0.62600  0.56900  0.09100  Biso   1.000  O
  O6       1.0000 0.37400  0.43100  0.90900  Biso   1.000  O
  O7       1.0000 0.58400  0.62400  0.88600  Biso   1.000  O
  O8       1.0000 0.41600  0.37600  0.11400  Biso   1.000  O
  O9       1.0000 0.52600  0.88900  0.98460  Biso   1.000  O
  O10      1.0000 0.47400  0.11100  0.01540  Biso   1.000  O
  C5       1.0000 0.50000  0.00000  0.00000  Biso   1.000  C
  C6       1.0000 0.95950  0.37230  0.74540  Biso   1.000  C
  C7       1.0000 0.04050  0.62770  0.25460  Biso   1.000  C
  C8       1.0000 0.93880  0.29510  0.89000  Biso   1.000  C
  C9       1.0000 0.06120  0.70490  0.11000  Biso   1.000  C
  C10      1.0000 0.02600  0.29820  0.96270  Biso   1.000  C
  C11      1.0000 0.97400  0.70180  0.03730  Biso   1.000  C
  H1       1.0000 0.09750  0.34760  0.92150  Biso   1.000  H
  H2       1.0000 0.90250  0.65240  0.07850  Biso   1.000  H
  C12      1.0000 0.00640  0.22750  0.09720  Biso   1.000  C
  C13      1.0000 0.99360  0.77250  0.90280  Biso   1.000  C
  H3       1.0000 0.06470  0.22960  0.14580  Biso   1.000  H
  H4       1.0000 0.93530  0.77040  0.85420  Biso   1.000  H
  C14      1.0000 0.89960  0.15370  0.15880  Biso   1.000  C
  C15      1.0000 0.10040  0.84630  0.84120  Biso   1.000  C
  H5       1.0000 0.88650  0.10630  0.24880  Biso   1.000  H
  H6       1.0000 0.11350  0.89370  0.75120  Biso   1.000  H
  C16      1.0000 0.81240  0.15050  0.08610  Biso   1.000  C
  C17      1.0000 0.18760  0.84950  0.91390  Biso   1.000  C
  H7       1.0000 0.74100  0.10110  0.12740  Biso   1.000  H
  H8       1.0000 0.25900  0.89890  0.87260  Biso   1.000  H
  C18      1.0000 0.83200  0.22120  0.95170  Biso   1.000  C
  C19      1.0000 0.16800  0.77880  0.04830  Biso   1.000  C
  H9       1.0000 0.77370  0.21910  0.90300  Biso   1.000  H
  H10      1.0000 0.22630  0.78090  0.09700  Biso   1.000  H
  C20      1.0000 0.83480  0.74710  0.57710  Biso   1.000  C
  C21      1.0000 0.16520  0.25290  0.42290  Biso   1.000  C
  C22      1.0000 0.73380  0.89600  0.61630  Biso   1.000  C
  C23      1.0000 0.26620  0.10400  0.38370  Biso   1.000  C
  C24      1.0000 0.80760  0.97730  0.62820  Biso   1.000  C
  C25      1.0000 0.19240  0.02270  0.37180  Biso   1.000  C
  H11      1.0000 0.91980  0.93930  0.61120  Biso   1.000  H
  H12      1.0000 0.08020  0.06070  0.38880  Biso   1.000  H
  C26      1.0000 0.71380  0.11530  0.66550  Biso   1.000  C
  C27      1.0000 0.28620  0.88470  0.33450  Biso   1.000  C
  H13      1.0000 0.76320  0.16960  0.67340  Biso   1.000  H
  H14      1.0000 0.23680  0.83040  0.32660  Biso   1.000  H
  C28      1.0000 0.54620  0.17210  0.69090  Biso   1.000  C
  C29      1.0000 0.45380  0.82790  0.30910  Biso   1.000  C
  H15      1.0000 0.48350  0.26440  0.71580  Biso   1.000  H
  H16      1.0000 0.51650  0.73560  0.28420  Biso   1.000  H
  C30      1.0000 0.47240  0.09080  0.67900  Biso   1.000  C
  C31      1.0000 0.52760  0.90920  0.32100  Biso   1.000  C
  H17      1.0000 0.36030  0.12880  0.69600  Biso   1.000  H
  H18      1.0000 0.63970  0.87120  0.30400  Biso   1.000  H
  C32      1.0000 0.56620  0.95280  0.64170  Biso   1.000  C
  C33      1.0000 0.43380  0.04720  0.35830  Biso   1.000  C
  H19      1.0000 0.51680  0.89850  0.63370  Biso   1.000  H
  H20      1.0000 0.48320  0.10150  0.36630  Biso   1.000  H
  C34      1.0000 0.35940  0.56470  0.58790  Biso   1.000  C
  C35      1.0000 0.64060  0.43530  0.41210  Biso   1.000  C
  H21      1.0000 0.26220  0.61090  0.65190  Biso   1.000  H
  H22      1.0000 0.73780  0.38910  0.34810  Biso   1.000  H
  C36      1.0000 0.50140  0.55750  0.59070  Biso   1.000  C
  C37      1.0000 0.49860  0.44250  0.40930  Biso   1.000  C
  H23      1.0000 0.49770  0.59990  0.65620  Biso   1.000  H
  H24      1.0000 0.50230  0.40010  0.34380  Biso   1.000  H
  Cu1      1.0000 0.12932  0.51069  0.49725  Biso   1.000  Cu
  Cu2      1.0000 0.87068  0.48931  0.50275  Biso   1.000  Cu
  N1       1.0000 0.35460  0.50750  0.49630  Biso   1.000  N
  N2       1.0000 0.64540  0.49250  0.50370  Biso   1.000  N
  O11      1.0000 0.92370  0.58560  0.31140  Biso   1.000  O
  O12      1.0000 0.07630  0.41440  0.68860  Biso   1.000  O
  O13      1.0000 0.85840  0.39040  0.69100  Biso   1.000  O
  O14      1.0000 0.14160  0.60960  0.30900  Biso   1.000  O
  O15      1.0000 0.98460  0.69950  0.55910  Biso   1.000  O
  O16      1.0000 0.01540  0.30050  0.44090  Biso   1.000  O
  O17      1.0000 0.76320  0.68100  0.56250  Biso   1.000  O
  O18      1.0000 0.23680  0.31900  0.43750  Biso   1.000  O
