data_image0
_cell_length_a       9.701
_cell_length_b       10.4
_cell_length_c       10.89
_cell_angle_alpha    71.566
_cell_angle_beta     65.771
_cell_angle_gamma    63.127

_symmetry_space_group_name_H-M    "P 1"
_symmetry_int_tables_number       1

loop_
  _symmetry_equiv_pos_as_xyz
  'x, y, z'

loop_
  _atom_site_label
  _atom_site_occupancy
  _atom_site_fract_x
  _atom_site_fract_y
  _atom_site_fract_z
  _atom_site_thermal_displace_type
  _atom_site_B_iso_or_equiv
  _atom_site_type_symbol
  O1       1.0000 0.54300  0.53600  0.04200  Biso   1.000  O
  O2       1.0000 0.45700  0.46400  0.95800  Biso   1.000  O
  C1       1.0000 0.62300  0.60500  0.98500  Biso   1.000  C
  C2       1.0000 0.37700  0.39500  0.01500  Biso   1.000  C
  O3       1.0000 0.72100  0.65300  0.91000  Biso   1.000  O
  O4       1.0000 0.27900  0.34700  0.09000  Biso   1.000  O
  C3       1.0000 0.61400  0.61400  0.98200  Biso   1.000  C
  C4       1.0000 0.38600  0.38600  0.01800  Biso   1.000  C
  O5       1.0000 0.63000  0.56900  0.09000  Biso   1.000  O
  O6       1.0000 0.37000  0.43100  0.91000  Biso   1.000  O
  O7       1.0000 0.58400  0.62400  0.88600  Biso   1.000  O
  O8       1.0000 0.41600  0.37600  0.11400  Biso   1.000  O
  O9       1.0000 0.52000  0.88950  0.98700  Biso   1.000  O
  O10      1.0000 0.48000  0.11050  0.01300  Biso   1.000  O
  C5       1.0000 0.50000  0.00000  0.00000  Biso   1.000  C
  C6       1.0000 0.95990  0.37170  0.74550  Biso   1.000  C
  C7       1.0000 0.04010  0.62830  0.25450  Biso   1.000  C
  C8       1.0000 0.93930  0.29510  0.88960  Biso   1.000  C
  C9       1.0000 0.06070  0.70490  0.11040  Biso   1.000  C
  C10      1.0000 0.02640  0.29830  0.96230  Biso   1.000  C
  C11      1.0000 0.97360  0.70170  0.03770  Biso   1.000  C
  H1       1.0000 0.09780  0.34760  0.92110  Biso   1.000  H
  H2       1.0000 0.90220  0.65240  0.07890  Biso   1.000  H
  C12      1.0000 0.00680  0.22770  0.09660  Biso   1.000  C
  C13      1.0000 0.99320  0.77230  0.90340  Biso   1.000  C
  H3       1.0000 0.06510  0.22980  0.14520  Biso   1.000  H
  H4       1.0000 0.93490  0.77020  0.85480  Biso   1.000  H
  C14      1.0000 0.90000  0.15400  0.15820  Biso   1.000  C
  C15      1.0000 0.10000  0.84600  0.84180  Biso   1.000  C
  H5       1.0000 0.88690  0.10680  0.24800  Biso   1.000  H
  H6       1.0000 0.11310  0.89320  0.75200  Biso   1.000  H
  C16      1.0000 0.81290  0.15090  0.08550  Biso   1.000  C
  C17      1.0000 0.18710  0.84910  0.91450  Biso   1.000  C
  H7       1.0000 0.74150  0.10160  0.12670  Biso   1.000  H
  H8       1.0000 0.25850  0.89840  0.87330  Biso   1.000  H
  C18      1.0000 0.83250  0.22140  0.95120  Biso   1.000  C
  C19      1.0000 0.16750  0.77860  0.04880  Biso   1.000  C
  H9       1.0000 0.77420  0.21930  0.90260  Biso   1.000  H
  H10      1.0000 0.22580  0.78070  0.09740  Biso   1.000  H
  C20      1.0000 0.83510  0.74780  0.57660  Biso   1.000  C
  C21      1.0000 0.16490  0.25220  0.42340  Biso   1.000  C
  C22      1.0000 0.73360  0.89640  0.61550  Biso   1.000  C
  C23      1.0000 0.26640  0.10360  0.38450  Biso   1.000  C
  C24      1.0000 0.80780  0.97720  0.62740  Biso   1.000  C
  C25      1.0000 0.19220  0.02280  0.37260  Biso   1.000  C
  H11      1.0000 0.91990  0.93910  0.61030  Biso   1.000  H
  H12      1.0000 0.08010  0.06090  0.38970  Biso   1.000  H
  C26      1.0000 0.71440  0.11490  0.66480  Biso   1.000  C
  C27      1.0000 0.28560  0.88510  0.33520  Biso   1.000  C
  H13      1.0000 0.76410  0.16900  0.67280  Biso   1.000  H
  H14      1.0000 0.23590  0.83100  0.32720  Biso   1.000  H
  C28      1.0000 0.54690  0.17190  0.69040  Biso   1.000  C
  C29      1.0000 0.45310  0.82810  0.30960  Biso   1.000  C
  H15      1.0000 0.48450  0.26400  0.71550  Biso   1.000  H
  H16      1.0000 0.51550  0.73600  0.28450  Biso   1.000  H
  C30      1.0000 0.47270  0.09110  0.67850  Biso   1.000  C
  C31      1.0000 0.52730  0.90890  0.32150  Biso   1.000  C
  H17      1.0000 0.36070  0.12920  0.69560  Biso   1.000  H
  H18      1.0000 0.63930  0.87080  0.30440  Biso   1.000  H
  C32      1.0000 0.56610  0.95330  0.64110  Biso   1.000  C
  C33      1.0000 0.43390  0.04670  0.35890  Biso   1.000  C
  H19      1.0000 0.51650  0.89930  0.63310  Biso   1.000  H
  H20      1.0000 0.48350  0.10070  0.36690  Biso   1.000  H
  C34      1.0000 0.64110  0.43450  0.41210  Biso   1.000  C
  C35      1.0000 0.35890  0.56550  0.58790  Biso   1.000  C
  H21      1.0000 0.73860  0.38730  0.34930  Biso   1.000  H
  H22      1.0000 0.26140  0.61270  0.65070  Biso   1.000  H
  C36      1.0000 0.49890  0.44170  0.40850  Biso   1.000  C
  C37      1.0000 0.50110  0.55830  0.59150  Biso   1.000  C
  H23      1.0000 0.50210  0.40010  0.34280  Biso   1.000  H
  H24      1.0000 0.49790  0.59990  0.65720  Biso   1.000  H
  Cu1      1.0000 0.87067  0.48946  0.50255  Biso   1.000  Cu
  Cu2      1.0000 0.12933  0.51054  0.49745  Biso   1.000  Cu
  N1       1.0000 0.64490  0.49310  0.50320  Biso   1.000  N
  N2       1.0000 0.35510  0.50690  0.49680  Biso   1.000  N
  O11      1.0000 0.07720  0.41370  0.68840  Biso   1.000  O
  O12      1.0000 0.92280  0.58630  0.31160  Biso   1.000  O
  O13      1.0000 0.85810  0.39110  0.69050  Biso   1.000  O
  O14      1.0000 0.14190  0.60890  0.30950  Biso   1.000  O
  O15      1.0000 0.98480  0.69910  0.55940  Biso   1.000  O
  O16      1.0000 0.01520  0.30090  0.44060  Biso   1.000  O
  O17      1.0000 0.76340  0.68050  0.56260  Biso   1.000  O
  O18      1.0000 0.23660  0.31950  0.43740  Biso   1.000  O
