data_image0
_cell_length_a       9.703
_cell_length_b       10.389
_cell_length_c       10.871
_cell_angle_alpha    71.664
_cell_angle_beta     65.611
_cell_angle_gamma    63.12

_symmetry_space_group_name_H-M    "P 1"
_symmetry_int_tables_number       1

loop_
  _symmetry_equiv_pos_as_xyz
  'x, y, z'

loop_
  _atom_site_label
  _atom_site_occupancy
  _atom_site_fract_x
  _atom_site_fract_y
  _atom_site_fract_z
  _atom_site_thermal_displace_type
  _atom_site_B_iso_or_equiv
  _atom_site_type_symbol
  O1       1.0000 0.53200  0.53300  0.04400  Biso   1.000  O
  O2       1.0000 0.46800  0.46700  0.95600  Biso   1.000  O
  C1       1.0000 0.61200  0.60300  0.98800  Biso   1.000  C
  C2       1.0000 0.38800  0.39700  0.01200  Biso   1.000  C
  O3       1.0000 0.71900  0.64300  0.92000  Biso   1.000  O
  O4       1.0000 0.28100  0.35700  0.08000  Biso   1.000  O
  C3       1.0000 0.60300  0.62300  0.98400  Biso   1.000  C
  C4       1.0000 0.39700  0.37700  0.01600  Biso   1.000  C
  O5       1.0000 0.63100  0.57500  0.08700  Biso   1.000  O
  O6       1.0000 0.36900  0.42500  0.91300  Biso   1.000  O
  O7       1.0000 0.58000  0.62500  0.88600  Biso   1.000  O
  O8       1.0000 0.42000  0.37500  0.11400  Biso   1.000  O
  O9       1.0000 0.52400  0.88300  0.98750  Biso   1.000  O
  O10      1.0000 0.47600  0.11700  0.01250  Biso   1.000  O
  C5       1.0000 0.50000  0.00000  0.00000  Biso   1.000  C
  C6       1.0000 0.95880  0.37370  0.74460  Biso   1.000  C
  C7       1.0000 0.04120  0.62630  0.25540  Biso   1.000  C
  C8       1.0000 0.93870  0.29600  0.89020  Biso   1.000  C
  C9       1.0000 0.06130  0.70400  0.10980  Biso   1.000  C
  C10      1.0000 0.02530  0.29940  0.96310  Biso   1.000  C
  C11      1.0000 0.97470  0.70060  0.03690  Biso   1.000  C
  H1       1.0000 0.09640  0.34920  0.92210  Biso   1.000  H
  H2       1.0000 0.90360  0.65080  0.07790  Biso   1.000  H
  C12      1.0000 0.00570  0.22850  0.09750  Biso   1.000  C
  C13      1.0000 0.99430  0.77150  0.90250  Biso   1.000  C
  H3       1.0000 0.06360  0.23080  0.14630  Biso   1.000  H
  H4       1.0000 0.93640  0.76920  0.85370  Biso   1.000  H
  C14      1.0000 0.89940  0.15420  0.15890  Biso   1.000  C
  C15      1.0000 0.10060  0.84580  0.84110  Biso   1.000  C
  H5       1.0000 0.88630  0.10670  0.24870  Biso   1.000  H
  H6       1.0000 0.11370  0.89330  0.75130  Biso   1.000  H
  C16      1.0000 0.81280  0.15070  0.08590  Biso   1.000  C
  C17      1.0000 0.18720  0.84930  0.91410  Biso   1.000  C
  H7       1.0000 0.74180  0.10100  0.12700  Biso   1.000  H
  H8       1.0000 0.25820  0.89900  0.87300  Biso   1.000  H
  C18      1.0000 0.83250  0.22160  0.95150  Biso   1.000  C
  C19      1.0000 0.16750  0.77840  0.04850  Biso   1.000  C
  H9       1.0000 0.77450  0.21930  0.90270  Biso   1.000  H
  H10      1.0000 0.22550  0.78070  0.09730  Biso   1.000  H
  C20      1.0000 0.83500  0.74840  0.57650  Biso   1.000  C
  C21      1.0000 0.16500  0.25160  0.42350  Biso   1.000  C
  C22      1.0000 0.73420  0.89660  0.61600  Biso   1.000  C
  C23      1.0000 0.26580  0.10340  0.38400  Biso   1.000  C
  C24      1.0000 0.80810  0.97780  0.62780  Biso   1.000  C
  C25      1.0000 0.19190  0.02220  0.37220  Biso   1.000  C
  H11      1.0000 0.92030  0.93980  0.61040  Biso   1.000  H
  H12      1.0000 0.07970  0.06020  0.38960  Biso   1.000  H
  C26      1.0000 0.71440  0.11570  0.66560  Biso   1.000  C
  C27      1.0000 0.28560  0.88430  0.33440  Biso   1.000  C
  H13      1.0000 0.76390  0.17000  0.67350  Biso   1.000  H
  H14      1.0000 0.23610  0.83000  0.32650  Biso   1.000  H
  C28      1.0000 0.54670  0.17250  0.69160  Biso   1.000  C
  C29      1.0000 0.45330  0.82750  0.30840  Biso   1.000  C
  H15      1.0000 0.48400  0.26470  0.71680  Biso   1.000  H
  H16      1.0000 0.51600  0.73530  0.28320  Biso   1.000  H
  C30      1.0000 0.47280  0.09130  0.67980  Biso   1.000  C
  C31      1.0000 0.52720  0.90870  0.32020  Biso   1.000  C
  H17      1.0000 0.36060  0.12930  0.69720  Biso   1.000  H
  H18      1.0000 0.63940  0.87070  0.30280  Biso   1.000  H
  C32      1.0000 0.56650  0.95340  0.64200  Biso   1.000  C
  C33      1.0000 0.43350  0.04660  0.35800  Biso   1.000  C
  H19      1.0000 0.51710  0.89910  0.63410  Biso   1.000  H
  H20      1.0000 0.48290  0.10090  0.36590  Biso   1.000  H
  C34      1.0000 0.35870  0.56450  0.58820  Biso   1.000  C
  C35      1.0000 0.64130  0.43550  0.41180  Biso   1.000  C
  H21      1.0000 0.26110  0.61030  0.65240  Biso   1.000  H
  H22      1.0000 0.73890  0.38970  0.34760  Biso   1.000  H
  C36      1.0000 0.50100  0.55900  0.59100  Biso   1.000  C
  C37      1.0000 0.49900  0.44100  0.40900  Biso   1.000  C
  H23      1.0000 0.49700  0.60220  0.65600  Biso   1.000  H
  H24      1.0000 0.50300  0.39780  0.34400  Biso   1.000  H
  Cu1      1.0000 0.12938  0.51056  0.49720  Biso   1.000  Cu
  Cu2      1.0000 0.87062  0.48944  0.50280  Biso   1.000  Cu
  N1       1.0000 0.35500  0.50660  0.49660  Biso   1.000  N
  N2       1.0000 0.64500  0.49340  0.50340  Biso   1.000  N
  O11      1.0000 0.92390  0.58490  0.31170  Biso   1.000  O
  O12      1.0000 0.07610  0.41510  0.68830  Biso   1.000  O
  O13      1.0000 0.85790  0.39110  0.69140  Biso   1.000  O
  O14      1.0000 0.14210  0.60890  0.30860  Biso   1.000  O
  O15      1.0000 0.98440  0.69990  0.55940  Biso   1.000  O
  O16      1.0000 0.01560  0.30010  0.44060  Biso   1.000  O
  O17      1.0000 0.76330  0.68120  0.56280  Biso   1.000  O
  O18      1.0000 0.23670  0.31880  0.43720  Biso   1.000  O
