data_image0
_cell_length_a       9.6913
_cell_length_b       10.366
_cell_length_c       10.835
_cell_angle_alpha    71.867
_cell_angle_beta     65.426
_cell_angle_gamma    63.151

_symmetry_space_group_name_H-M    "P 1"
_symmetry_int_tables_number       1

loop_
  _symmetry_equiv_pos_as_xyz
  'x, y, z'

loop_
  _atom_site_label
  _atom_site_occupancy
  _atom_site_fract_x
  _atom_site_fract_y
  _atom_site_fract_z
  _atom_site_thermal_displace_type
  _atom_site_B_iso_or_equiv
  _atom_site_type_symbol
  C1       1.0000 0.16680  0.75100  0.42280  Biso   1.000  C
  C2       1.0000 0.83320  0.24900  0.57720  Biso   1.000  C
  C3       1.0000 0.26800  0.60360  0.38140  Biso   1.000  C
  C4       1.0000 0.73200  0.39640  0.61860  Biso   1.000  C
  C5       1.0000 0.43500  0.54440  0.35740  Biso   1.000  C
  C6       1.0000 0.56500  0.45560  0.64260  Biso   1.000  C
  H1       1.0000 0.48470  0.59780  0.36690  Biso   1.000  H
  H2       1.0000 0.51530  0.40220  0.63310  Biso   1.000  H
  C7       1.0000 0.52840  0.40750  0.31970  Biso   1.000  C
  C8       1.0000 0.47160  0.59250  0.68030  Biso   1.000  C
  H3       1.0000 0.64050  0.36850  0.30380  Biso   1.000  H
  H4       1.0000 0.35950  0.63150  0.69620  Biso   1.000  H
  C9       1.0000 0.45590  0.32920  0.30580  Biso   1.000  C
  C10      1.0000 0.54410  0.67080  0.69420  Biso   1.000  C
  H5       1.0000 0.51920  0.23740  0.27870  Biso   1.000  H
  H6       1.0000 0.48080  0.76260  0.72130  Biso   1.000  H
  C11      1.0000 0.29010  0.38470  0.33160  Biso   1.000  C
  C12      1.0000 0.70990  0.61530  0.66840  Biso   1.000  C
  H7       1.0000 0.24130  0.33050  0.32240  Biso   1.000  H
  H8       1.0000 0.75870  0.66950  0.67760  Biso   1.000  H
  C13      1.0000 0.19680  0.52000  0.37070  Biso   1.000  C
  C14      1.0000 0.80320  0.48000  0.62930  Biso   1.000  C
  H9       1.0000 0.08420  0.55610  0.39030  Biso   1.000  H
  H10      1.0000 0.91580  0.44390  0.60970  Biso   1.000  H
  C15      1.0000 0.04240  0.12650  0.25320  Biso   1.000  C
  C16      1.0000 0.95760  0.87350  0.74680  Biso   1.000  C
  C17      1.0000 0.06340  0.20300  0.10890  Biso   1.000  C
  C18      1.0000 0.93660  0.79700  0.89110  Biso   1.000  C
  C19      1.0000 0.16670  0.27750  0.04690  Biso   1.000  C
  C20      1.0000 0.83330  0.72250  0.95310  Biso   1.000  C
  H11      1.0000 0.22530  0.28000  0.09510  Biso   1.000  H
  H12      1.0000 0.77470  0.72000  0.90490  Biso   1.000  H
  C21      1.0000 0.18510  0.34860  0.91480  Biso   1.000  C
  C22      1.0000 0.81490  0.65140  0.08520  Biso   1.000  C
  H13      1.0000 0.25620  0.39860  0.87400  Biso   1.000  H
  H14      1.0000 0.74380  0.60140  0.12600  Biso   1.000  H
  C23      1.0000 0.09900  0.34650  0.84240  Biso   1.000  C
  C24      1.0000 0.90100  0.65350  0.15760  Biso   1.000  C
  H15      1.0000 0.10970  0.39600  0.75320  Biso   1.000  H
  H16      1.0000 0.89030  0.60400  0.24680  Biso   1.000  H
  C25      1.0000 0.99800  0.27100  0.90310  Biso   1.000  C
  C26      1.0000 0.00200  0.72900  0.09690  Biso   1.000  C
  H17      1.0000 0.94120  0.26680  0.85420  Biso   1.000  H
  H18      1.0000 0.05880  0.73320  0.14580  Biso   1.000  H
  C27      1.0000 0.97890  0.20130  0.03470  Biso   1.000  C
  C28      1.0000 0.02110  0.79870  0.96530  Biso   1.000  C
  H19      1.0000 0.90740  0.15180  0.07520  Biso   1.000  H
  H20      1.0000 0.09260  0.84820  0.92480  Biso   1.000  H
  C29      1.0000 0.35820  0.06560  0.58730  Biso   1.000  C
  C30      1.0000 0.64180  0.93440  0.41270  Biso   1.000  C
  H21      1.0000 0.25990  0.11220  0.65120  Biso   1.000  H
  H22      1.0000 0.74010  0.88780  0.34880  Biso   1.000  H
  C31      1.0000 0.49900  0.94230  0.40790  Biso   1.000  C
  C32      1.0000 0.50100  0.05770  0.59210  Biso   1.000  C
  H23      1.0000 0.50310  0.89960  0.34190  Biso   1.000  H
  H24      1.0000 0.49690  0.10040  0.65810  Biso   1.000  H
  C33      1.0000 0.59700  0.10200  0.98600  Biso   1.000  C
  C34      1.0000 0.40300  0.89800  0.01400  Biso   1.000  C
  O1       1.0000 0.53200  0.02000  0.04900  Biso   1.000  O
  O2       1.0000 0.46800  0.98000  0.95100  Biso   1.000  O
  O3       1.0000 0.68800  0.15900  0.91900  Biso   1.000  O
  O4       1.0000 0.31200  0.84100  0.08100  Biso   1.000  O
  C35      1.0000 0.59700  0.11500  0.97800  Biso   1.000  C
  C36      1.0000 0.40300  0.88500  0.02200  Biso   1.000  C
  O5       1.0000 0.61500  0.07500  0.08500  Biso   1.000  O
  O6       1.0000 0.38500  0.92500  0.91500  Biso   1.000  O
  O7       1.0000 0.56600  0.11800  0.88400  Biso   1.000  O
  O8       1.0000 0.43400  0.88200  0.11600  Biso   1.000  O
  C37      1.0000 0.50000  0.50000  0.00000  Biso   1.000  C
  Cu1      1.0000 0.12953  0.01125  0.49648  Biso   1.000  Cu
  Cu2      1.0000 0.87047  0.98875  0.50352  Biso   1.000  Cu
  N1       1.0000 0.35560  0.00910  0.49500  Biso   1.000  N
  N2       1.0000 0.64440  0.99090  0.50500  Biso   1.000  N
  O9       1.0000 0.23720  0.81960  0.43600  Biso   1.000  O
  O10      1.0000 0.76280  0.18040  0.56400  Biso   1.000  O
  O11      1.0000 0.01590  0.79910  0.44180  Biso   1.000  O
  O12      1.0000 0.98410  0.20090  0.55820  Biso   1.000  O
  O13      1.0000 0.14290  0.10870  0.30700  Biso   1.000  O
  O14      1.0000 0.85710  0.89130  0.69300  Biso   1.000  O
  O15      1.0000 0.07600  0.91590  0.68810  Biso   1.000  O
  O16      1.0000 0.92400  0.08410  0.31190  Biso   1.000  O
  O17      1.0000 0.52870  0.38230  0.98520  Biso   1.000  O
  O18      1.0000 0.47130  0.61770  0.01480  Biso   1.000  O
