data_image0
_cell_length_a       9.691
_cell_length_b       10.373
_cell_length_c       10.85
_cell_angle_alpha    71.718
_cell_angle_beta     65.541
_cell_angle_gamma    63.159

_symmetry_space_group_name_H-M    "P 1"
_symmetry_int_tables_number       1

loop_
  _symmetry_equiv_pos_as_xyz
  'x, y, z'

loop_
  _atom_site_label
  _atom_site_occupancy
  _atom_site_fract_x
  _atom_site_fract_y
  _atom_site_fract_z
  _atom_site_thermal_displace_type
  _atom_site_B_iso_or_equiv
  _atom_site_type_symbol
  O1       1.0000 0.52800  0.52300  0.04700  Biso   1.000  O
  O2       1.0000 0.47200  0.47700  0.95300  Biso   1.000  O
  C1       1.0000 0.60500  0.59600  0.99500  Biso   1.000  C
  C2       1.0000 0.39500  0.40400  0.00500  Biso   1.000  C
  O3       1.0000 0.70600  0.64400  0.92800  Biso   1.000  O
  O4       1.0000 0.29400  0.35600  0.07200  Biso   1.000  O
  C3       1.0000 0.59800  0.62400  0.98500  Biso   1.000  C
  C4       1.0000 0.40200  0.37600  0.01500  Biso   1.000  C
  O5       1.0000 0.63000  0.57100  0.08600  Biso   1.000  O
  O6       1.0000 0.37000  0.42900  0.91400  Biso   1.000  O
  O7       1.0000 0.57800  0.63200  0.88400  Biso   1.000  O
  O8       1.0000 0.42200  0.36800  0.11600  Biso   1.000  O
  O9       1.0000 0.52500  0.88500  0.98800  Biso   1.000  O
  O10      1.0000 0.47500  0.11500  0.01200  Biso   1.000  O
  C5       1.0000 0.50000  0.00000  0.00000  Biso   1.000  C
  C6       1.0000 0.04080  0.62750  0.25370  Biso   1.000  C
  C7       1.0000 0.95920  0.37250  0.74630  Biso   1.000  C
  C8       1.0000 0.06220  0.70330  0.10990  Biso   1.000  C
  C9       1.0000 0.93780  0.29670  0.89010  Biso   1.000  C
  C10      1.0000 0.97380  0.70180  0.03740  Biso   1.000  C
  C11      1.0000 0.02620  0.29820  0.96260  Biso   1.000  C
  H1       1.0000 0.90180  0.65270  0.07870  Biso   1.000  H
  H2       1.0000 0.09820  0.34730  0.92130  Biso   1.000  H
  C12      1.0000 0.99280  0.77380  0.90310  Biso   1.000  C
  C13      1.0000 0.00720  0.22620  0.09690  Biso   1.000  C
  H3       1.0000 0.93360  0.77290  0.85460  Biso   1.000  H
  H4       1.0000 0.06640  0.22710  0.14540  Biso   1.000  H
  C14      1.0000 0.10020  0.84720  0.84150  Biso   1.000  C
  C15      1.0000 0.89980  0.15280  0.15850  Biso   1.000  C
  H5       1.0000 0.11290  0.89540  0.75160  Biso   1.000  H
  H6       1.0000 0.88710  0.10460  0.24840  Biso   1.000  H
  C16      1.0000 0.18870  0.84870  0.91400  Biso   1.000  C
  C17      1.0000 0.81130  0.15130  0.08600  Biso   1.000  C
  H7       1.0000 0.26060  0.89780  0.87270  Biso   1.000  H
  H8       1.0000 0.73940  0.10220  0.12730  Biso   1.000  H
  C18      1.0000 0.16970  0.77670  0.04820  Biso   1.000  C
  C19      1.0000 0.83030  0.22330  0.95180  Biso   1.000  C
  H9       1.0000 0.22890  0.77770  0.09670  Biso   1.000  H
  H10      1.0000 0.77110  0.22230  0.90330  Biso   1.000  H
  C20      1.0000 0.16520  0.25010  0.42320  Biso   1.000  C
  C21      1.0000 0.83480  0.74990  0.57680  Biso   1.000  C
  C22      1.0000 0.26600  0.10380  0.38330  Biso   1.000  C
  C23      1.0000 0.73400  0.89620  0.61670  Biso   1.000  C
  C24      1.0000 0.19220  0.02260  0.37110  Biso   1.000  C
  C25      1.0000 0.80780  0.97740  0.62890  Biso   1.000  C
  H11      1.0000 0.07990  0.06060  0.38820  Biso   1.000  H
  H12      1.0000 0.92010  0.93940  0.61180  Biso   1.000  H
  C26      1.0000 0.28620  0.88440  0.33340  Biso   1.000  C
  C27      1.0000 0.71380  0.11560  0.66660  Biso   1.000  C
  H13      1.0000 0.23680  0.83000  0.32520  Biso   1.000  H
  H14      1.0000 0.76320  0.17000  0.67480  Biso   1.000  H
  C28      1.0000 0.45400  0.82750  0.30780  Biso   1.000  C
  C29      1.0000 0.54600  0.17250  0.69220  Biso   1.000  C
  H15      1.0000 0.51690  0.73500  0.28260  Biso   1.000  H
  H16      1.0000 0.48310  0.26500  0.71740  Biso   1.000  H
  C30      1.0000 0.52780  0.90870  0.32000  Biso   1.000  C
  C31      1.0000 0.47220  0.09130  0.68000  Biso   1.000  C
  H17      1.0000 0.64000  0.87060  0.30290  Biso   1.000  H
  H18      1.0000 0.36000  0.12940  0.69710  Biso   1.000  H
  C32      1.0000 0.43380  0.04690  0.35780  Biso   1.000  C
  C33      1.0000 0.56620  0.95310  0.64220  Biso   1.000  C
  H19      1.0000 0.48310  0.10130  0.36590  Biso   1.000  H
  H20      1.0000 0.51690  0.89870  0.63410  Biso   1.000  H
  C34      1.0000 0.64060  0.43540  0.41200  Biso   1.000  C
  C35      1.0000 0.35940  0.56460  0.58800  Biso   1.000  C
  H21      1.0000 0.73800  0.39010  0.34710  Biso   1.000  H
  H22      1.0000 0.26200  0.60990  0.65290  Biso   1.000  H
  C36      1.0000 0.49830  0.44080  0.40980  Biso   1.000  C
  C37      1.0000 0.50170  0.55920  0.59020  Biso   1.000  C
  H23      1.0000 0.50220  0.39620  0.34550  Biso   1.000  H
  H24      1.0000 0.49780  0.60380  0.65450  Biso   1.000  H
  Cu1      1.0000 0.87063  0.48956  0.50285  Biso   1.000  Cu
  Cu2      1.0000 0.12937  0.51044  0.49715  Biso   1.000  Cu
  N1       1.0000 0.64530  0.49240  0.50350  Biso   1.000  N
  N2       1.0000 0.35470  0.50760  0.49650  Biso   1.000  N
  O11      1.0000 0.92460  0.58420  0.31220  Biso   1.000  O
  O12      1.0000 0.07540  0.41580  0.68780  Biso   1.000  O
  O13      1.0000 0.14320  0.60710  0.30850  Biso   1.000  O
  O14      1.0000 0.85680  0.39290  0.69150  Biso   1.000  O
  O15      1.0000 0.01430  0.30030  0.44160  Biso   1.000  O
  O16      1.0000 0.98570  0.69970  0.55840  Biso   1.000  O
  O17      1.0000 0.23720  0.31820  0.43660  Biso   1.000  O
  O18      1.0000 0.76280  0.68180  0.56340  Biso   1.000  O
