data_image0
_cell_length_a       9.694
_cell_length_b       10.383
_cell_length_c       10.866
_cell_angle_alpha    71.642
_cell_angle_beta     65.662
_cell_angle_gamma    63.139

_symmetry_space_group_name_H-M    "P 1"
_symmetry_int_tables_number       1

loop_
  _symmetry_equiv_pos_as_xyz
  'x, y, z'

loop_
  _atom_site_label
  _atom_site_occupancy
  _atom_site_fract_x
  _atom_site_fract_y
  _atom_site_fract_z
  _atom_site_thermal_displace_type
  _atom_site_B_iso_or_equiv
  _atom_site_type_symbol
  O1       1.0000 0.54100  0.52600  0.03800  Biso   1.000  O
  O2       1.0000 0.45900  0.47400  0.96200  Biso   1.000  O
  C1       1.0000 0.61600  0.60100  0.99000  Biso   1.000  C
  C2       1.0000 0.38400  0.39900  0.01000  Biso   1.000  C
  O3       1.0000 0.71600  0.64900  0.92000  Biso   1.000  O
  O4       1.0000 0.28400  0.35100  0.08000  Biso   1.000  O
  C3       1.0000 0.60400  0.62300  0.98400  Biso   1.000  C
  C4       1.0000 0.39600  0.37700  0.01600  Biso   1.000  C
  O5       1.0000 0.62400  0.57400  0.09000  Biso   1.000  O
  O6       1.0000 0.37600  0.42600  0.91000  Biso   1.000  O
  O7       1.0000 0.58500  0.62600  0.88400  Biso   1.000  O
  O8       1.0000 0.41500  0.37400  0.11600  Biso   1.000  O
  O9       1.0000 0.52500  0.88900  0.98690  Biso   1.000  O
  O10      1.0000 0.47500  0.11100  0.01310  Biso   1.000  O
  C5       1.0000 0.50000  0.00000  0.00000  Biso   1.000  C
  C6       1.0000 0.04020  0.62680  0.25470  Biso   1.000  C
  C7       1.0000 0.95980  0.37320  0.74530  Biso   1.000  C
  C8       1.0000 0.06170  0.70420  0.11000  Biso   1.000  C
  C9       1.0000 0.93830  0.29580  0.89000  Biso   1.000  C
  C10      1.0000 0.97450  0.70040  0.03760  Biso   1.000  C
  C11      1.0000 0.02550  0.29960  0.96240  Biso   1.000  C
  H1       1.0000 0.90340  0.65060  0.07920  Biso   1.000  H
  H2       1.0000 0.09660  0.34940  0.92080  Biso   1.000  H
  C12      1.0000 0.99360  0.77100  0.90320  Biso   1.000  C
  C13      1.0000 0.00640  0.22900  0.09680  Biso   1.000  C
  H3       1.0000 0.93520  0.76850  0.85470  Biso   1.000  H
  H4       1.0000 0.06480  0.23150  0.14530  Biso   1.000  H
  C14      1.0000 0.09980  0.84550  0.84110  Biso   1.000  C
  C15      1.0000 0.90020  0.15450  0.15890  Biso   1.000  C
  H5       1.0000 0.11260  0.89280  0.75110  Biso   1.000  H
  H6       1.0000 0.88740  0.10720  0.24890  Biso   1.000  H
  C16      1.0000 0.18700  0.84930  0.91340  Biso   1.000  C
  C17      1.0000 0.81300  0.15070  0.08660  Biso   1.000  C
  H7       1.0000 0.25810  0.89910  0.87190  Biso   1.000  H
  H8       1.0000 0.74190  0.10090  0.12810  Biso   1.000  H
  C18      1.0000 0.16790  0.77870  0.04790  Biso   1.000  C
  C19      1.0000 0.83210  0.22130  0.95210  Biso   1.000  C
  H9       1.0000 0.22630  0.78120  0.09630  Biso   1.000  H
  H10      1.0000 0.77370  0.21880  0.90370  Biso   1.000  H
  C20      1.0000 0.83390  0.74860  0.57760  Biso   1.000  C
  C21      1.0000 0.16610  0.25140  0.42240  Biso   1.000  C
  C22      1.0000 0.73360  0.89670  0.61600  Biso   1.000  C
  C23      1.0000 0.26640  0.10330  0.38400  Biso   1.000  C
  C24      1.0000 0.80770  0.97730  0.62850  Biso   1.000  C
  C25      1.0000 0.19230  0.02270  0.37150  Biso   1.000  C
  H11      1.0000 0.91990  0.93900  0.61170  Biso   1.000  H
  H12      1.0000 0.08010  0.06100  0.38830  Biso   1.000  H
  C26      1.0000 0.71420  0.11530  0.66610  Biso   1.000  C
  C27      1.0000 0.28580  0.88470  0.33390  Biso   1.000  C
  H13      1.0000 0.76380  0.16930  0.67450  Biso   1.000  H
  H14      1.0000 0.23620  0.83070  0.32550  Biso   1.000  H
  C28      1.0000 0.54660  0.17270  0.69130  Biso   1.000  C
  C29      1.0000 0.45340  0.82730  0.30870  Biso   1.000  C
  H15      1.0000 0.48400  0.26500  0.71650  Biso   1.000  H
  H16      1.0000 0.51600  0.73500  0.28350  Biso   1.000  H
  C30      1.0000 0.47240  0.09210  0.67880  Biso   1.000  C
  C31      1.0000 0.52760  0.90790  0.32120  Biso   1.000  C
  H17      1.0000 0.36030  0.13040  0.69560  Biso   1.000  H
  H18      1.0000 0.63970  0.86960  0.30440  Biso   1.000  H
  C32      1.0000 0.56590  0.95410  0.64120  Biso   1.000  C
  C33      1.0000 0.43410  0.04590  0.35880  Biso   1.000  C
  H19      1.0000 0.51630  0.90010  0.63280  Biso   1.000  H
  H20      1.0000 0.48370  0.09990  0.36720  Biso   1.000  H
  C34      1.0000 0.35960  0.56460  0.58770  Biso   1.000  C
  C35      1.0000 0.64040  0.43540  0.41230  Biso   1.000  C
  H21      1.0000 0.26230  0.61140  0.65150  Biso   1.000  H
  H22      1.0000 0.73770  0.38860  0.34850  Biso   1.000  H
  C36      1.0000 0.50150  0.55770  0.59080  Biso   1.000  C
  C37      1.0000 0.49850  0.44230  0.40920  Biso   1.000  C
  H23      1.0000 0.49770  0.59970  0.65670  Biso   1.000  H
  H24      1.0000 0.50230  0.40030  0.34330  Biso   1.000  H
  Cu1      1.0000 0.12937  0.51060  0.49727  Biso   1.000  Cu
  Cu2      1.0000 0.87063  0.48940  0.50273  Biso   1.000  Cu
  N1       1.0000 0.35440  0.50670  0.49690  Biso   1.000  N
  N2       1.0000 0.64560  0.49330  0.50310  Biso   1.000  N
  O11      1.0000 0.92340  0.58610  0.31170  Biso   1.000  O
  O12      1.0000 0.07660  0.41390  0.68830  Biso   1.000  O
  O13      1.0000 0.14190  0.60920  0.30860  Biso   1.000  O
  O14      1.0000 0.85810  0.39080  0.69140  Biso   1.000  O
  O15      1.0000 0.98490  0.69940  0.55930  Biso   1.000  O
  O16      1.0000 0.01510  0.30060  0.44070  Biso   1.000  O
  O17      1.0000 0.76350  0.68040  0.56270  Biso   1.000  O
  O18      1.0000 0.23650  0.31960  0.43730  Biso   1.000  O
