data_image0
_cell_length_a       8.6253
_cell_length_b       12.5777
_cell_length_c       14.8959
_cell_angle_alpha    90
_cell_angle_beta     93.421
_cell_angle_gamma    90

_symmetry_space_group_name_H-M    "P 1"
_symmetry_int_tables_number       1

loop_
  _symmetry_equiv_pos_as_xyz
  'x, y, z'

loop_
  _atom_site_label
  _atom_site_occupancy
  _atom_site_fract_x
  _atom_site_fract_y
  _atom_site_fract_z
  _atom_site_thermal_displace_type
  _atom_site_B_iso_or_equiv
  _atom_site_type_symbol
  Cu1      1.0000 0.15156  0.20553  0.07973  Biso   1.000  Cu
  Cu2      1.0000 0.15156  0.29447  0.57973  Biso   1.000  Cu
  Cu3      1.0000 0.84844  0.79447  0.92027  Biso   1.000  Cu
  Cu4      1.0000 0.84844  0.70553  0.42027  Biso   1.000  Cu
  O1       1.0000 0.29510  0.09502  0.52906  Biso   1.000  O
  O2       1.0000 0.29510  0.40498  0.02906  Biso   1.000  O
  O3       1.0000 0.70490  0.90498  0.47094  Biso   1.000  O
  O4       1.0000 0.70490  0.59502  0.97094  Biso   1.000  O
  H1       1.0000 0.30400  0.07300  0.58800  Biso   1.000  H
  H2       1.0000 0.30400  0.42700  0.08800  Biso   1.000  H
  H3       1.0000 0.69600  0.92700  0.41200  Biso   1.000  H
  H4       1.0000 0.69600  0.57300  0.91200  Biso   1.000  H
  N1       1.0000 0.03922  0.30278  0.15727  Biso   1.000  N
  N2       1.0000 0.03922  0.19722  0.65727  Biso   1.000  N
  N3       1.0000 0.96078  0.69722  0.84273  Biso   1.000  N
  N4       1.0000 0.96078  0.80278  0.34273  Biso   1.000  N
  N5       1.0000 0.90100  0.45093  0.22089  Biso   1.000  N
  N6       1.0000 0.90100  0.04907  0.72089  Biso   1.000  N
  N7       1.0000 0.09900  0.54907  0.77911  Biso   1.000  N
  N8       1.0000 0.09900  0.95093  0.27911  Biso   1.000  N
  N9       1.0000 0.94590  0.55705  0.35702  Biso   1.000  N
  N10      1.0000 0.94590  0.94295  0.85702  Biso   1.000  N
  N11      1.0000 0.05410  0.44295  0.64298  Biso   1.000  N
  N12      1.0000 0.05410  0.05705  0.14298  Biso   1.000  N
  N13      1.0000 0.27261  0.13419  0.98965  Biso   1.000  N
  N14      1.0000 0.27261  0.36581  0.48965  Biso   1.000  N
  N15      1.0000 0.72739  0.86581  0.01035  Biso   1.000  N
  N16      1.0000 0.72739  0.63419  0.51035  Biso   1.000  N
  N17      1.0000 0.37490  0.01239  0.87999  Biso   1.000  N
  N18      1.0000 0.37490  0.48761  0.37999  Biso   1.000  N
  N19      1.0000 0.62510  0.98761  0.12001  Biso   1.000  N
  N20      1.0000 0.62510  0.51239  0.62001  Biso   1.000  N
  N21      1.0000 0.33390  0.02462  0.71486  Biso   1.000  N
  N22      1.0000 0.33390  0.47538  0.21486  Biso   1.000  N
  N23      1.0000 0.66610  0.97538  0.28514  Biso   1.000  N
  N24      1.0000 0.66610  0.52462  0.78514  Biso   1.000  N
  N25      1.0000 0.33995  0.21080  0.16842  Biso   1.000  N
  N26      1.0000 0.33995  0.28920  0.66842  Biso   1.000  N
  N27      1.0000 0.66005  0.78920  0.83158  Biso   1.000  N
  N28      1.0000 0.66005  0.71080  0.33158  Biso   1.000  N
  N29      1.0000 0.97336  0.27900  0.48605  Biso   1.000  N
  N30      1.0000 0.97336  0.22100  0.98605  Biso   1.000  N
  N31      1.0000 0.02664  0.72100  0.51395  Biso   1.000  N
  N32      1.0000 0.02664  0.77900  0.01395  Biso   1.000  N
  C1       1.0000 0.98240  0.37402  0.19098  Biso   1.000  C
  C2       1.0000 0.98240  0.12598  0.69098  Biso   1.000  C
  C3       1.0000 0.01760  0.62598  0.80902  Biso   1.000  C
  C4       1.0000 0.01760  0.87402  0.30902  Biso   1.000  C
  C5       1.0000 0.93350  0.50313  0.29490  Biso   1.000  C
  C6       1.0000 0.93350  0.99687  0.79490  Biso   1.000  C
  C7       1.0000 0.06650  0.49687  0.70510  Biso   1.000  C
  C8       1.0000 0.06650  0.00313  0.20510  Biso   1.000  C
  C9       1.0000 0.31480  0.07897  0.93431  Biso   1.000  C
  C10      1.0000 0.31480  0.42103  0.43431  Biso   1.000  C
  C11      1.0000 0.68520  0.92103  0.06569  Biso   1.000  C
  C12      1.0000 0.68520  0.57897  0.56569  Biso   1.000  C
  C13      1.0000 0.34890  0.02333  0.79190  Biso   1.000  C
  C14      1.0000 0.34890  0.47667  0.29190  Biso   1.000  C
  C15      1.0000 0.65110  0.97667  0.20810  Biso   1.000  C
  C16      1.0000 0.65110  0.52333  0.70810  Biso   1.000  C
  C17      1.0000 0.32300  0.20228  0.25714  Biso   1.000  C
  C18      1.0000 0.32300  0.29772  0.75714  Biso   1.000  C
  C19      1.0000 0.67700  0.79772  0.74286  Biso   1.000  C
  C20      1.0000 0.67700  0.70228  0.24286  Biso   1.000  C
  H5       1.0000 0.22260  0.18750  0.27700  Biso   1.000  H
  H6       1.0000 0.22260  0.31250  0.77700  Biso   1.000  H
  H7       1.0000 0.77740  0.81250  0.72300  Biso   1.000  H
  H8       1.0000 0.77740  0.68750  0.22300  Biso   1.000  H
  C21      1.0000 0.44480  0.21406  0.32087  Biso   1.000  C
  C22      1.0000 0.44480  0.28594  0.82087  Biso   1.000  C
  C23      1.0000 0.55520  0.78594  0.67913  Biso   1.000  C
  C24      1.0000 0.55520  0.71406  0.17913  Biso   1.000  C
  H9       1.0000 0.42800  0.20700  0.38300  Biso   1.000  H
  H10      1.0000 0.42800  0.29300  0.88300  Biso   1.000  H
  H11      1.0000 0.57200  0.79300  0.61700  Biso   1.000  H
  H12      1.0000 0.57200  0.70700  0.11700  Biso   1.000  H
  C25      1.0000 0.59260  0.23637  0.29289  Biso   1.000  C
  C26      1.0000 0.59260  0.26363  0.79289  Biso   1.000  C
  C27      1.0000 0.40740  0.76363  0.70711  Biso   1.000  C
  C28      1.0000 0.40740  0.73637  0.20711  Biso   1.000  C
  C29      1.0000 0.72580  0.25151  0.35914  Biso   1.000  C
  C30      1.0000 0.72580  0.24849  0.85914  Biso   1.000  C
  C31      1.0000 0.27420  0.74849  0.64086  Biso   1.000  C
  C32      1.0000 0.27420  0.75151  0.14086  Biso   1.000  C
  C33      1.0000 0.71500  0.31943  0.43185  Biso   1.000  C
  C34      1.0000 0.71500  0.18057  0.93185  Biso   1.000  C
  C35      1.0000 0.28500  0.68057  0.56815  Biso   1.000  C
  C36      1.0000 0.28500  0.81943  0.06815  Biso   1.000  C
  H13      1.0000 0.62160  0.35760  0.43940  Biso   1.000  H
  H14      1.0000 0.62160  0.14240  0.93940  Biso   1.000  H
  H15      1.0000 0.37840  0.64240  0.56060  Biso   1.000  H
  H16      1.0000 0.37840  0.85760  0.06060  Biso   1.000  H
  C37      1.0000 0.83990  0.33149  0.49319  Biso   1.000  C
  C38      1.0000 0.83990  0.16851  0.99319  Biso   1.000  C
  C39      1.0000 0.16010  0.66851  0.50681  Biso   1.000  C
  C40      1.0000 0.16010  0.83149  0.00681  Biso   1.000  C
  H17      1.0000 0.83080  0.37880  0.54230  Biso   1.000  H
  H18      1.0000 0.83080  0.12120  0.04230  Biso   1.000  H
  H19      1.0000 0.16920  0.62120  0.45770  Biso   1.000  H
  H20      1.0000 0.16920  0.87880  0.95770  Biso   1.000  H
  C41      1.0000 0.98460  0.21291  0.41610  Biso   1.000  C
  C42      1.0000 0.98460  0.28709  0.91610  Biso   1.000  C
  C43      1.0000 0.01540  0.78709  0.58390  Biso   1.000  C
  C44      1.0000 0.01540  0.71291  0.08390  Biso   1.000  C
  H21      1.0000 0.07880  0.17480  0.41100  Biso   1.000  H
  H22      1.0000 0.07880  0.32520  0.91100  Biso   1.000  H
  H23      1.0000 0.92120  0.82520  0.58900  Biso   1.000  H
  H24      1.0000 0.92120  0.67480  0.08900  Biso   1.000  H
  C45      1.0000 0.86580  0.19783  0.35131  Biso   1.000  C
  C46      1.0000 0.86580  0.30217  0.85131  Biso   1.000  C
  C47      1.0000 0.13420  0.80217  0.64869  Biso   1.000  C
  C48      1.0000 0.13420  0.69783  0.14869  Biso   1.000  C
  H25      1.0000 0.87910  0.15150  0.30200  Biso   1.000  H
  H26      1.0000 0.87910  0.34850  0.80200  Biso   1.000  H
  H27      1.0000 0.12090  0.84850  0.69800  Biso   1.000  H
  H28      1.0000 0.12090  0.65150  0.19800  Biso   1.000  H
  C49      1.0000 0.61020  0.24337  0.20086  Biso   1.000  C
  C50      1.0000 0.61020  0.25663  0.70086  Biso   1.000  C
  C51      1.0000 0.38980  0.75663  0.79914  Biso   1.000  C
  C52      1.0000 0.38980  0.74337  0.29914  Biso   1.000  C
  H29      1.0000 0.70960  0.25700  0.17900  Biso   1.000  H
  H30      1.0000 0.70960  0.24300  0.67900  Biso   1.000  H
  H31      1.0000 0.29040  0.74300  0.82100  Biso   1.000  H
  H32      1.0000 0.29040  0.75700  0.32100  Biso   1.000  H
  C53      1.0000 0.48250  0.23045  0.14137  Biso   1.000  C
  C54      1.0000 0.48250  0.26955  0.64137  Biso   1.000  C
  C55      1.0000 0.51750  0.76955  0.85863  Biso   1.000  C
  C56      1.0000 0.51750  0.73045  0.35863  Biso   1.000  C
  H33      1.0000 0.49630  0.23570  0.07870  Biso   1.000  H
  H34      1.0000 0.49630  0.26430  0.57870  Biso   1.000  H
  H35      1.0000 0.50370  0.76430  0.92130  Biso   1.000  H
  H36      1.0000 0.50370  0.73570  0.42130  Biso   1.000  H
  C57      1.0000 0.28750  0.99720  0.48209  Biso   1.000  C
  C58      1.0000 0.28750  0.50280  0.98209  Biso   1.000  C
  C59      1.0000 0.71250  0.00280  0.51791  Biso   1.000  C
  C60      1.0000 0.71250  0.49720  0.01791  Biso   1.000  C
  H37      1.0000 0.36370  0.94770  0.51000  Biso   1.000  H
  H38      1.0000 0.36370  0.55230  0.01000  Biso   1.000  H
  H39      1.0000 0.63630  0.05230  0.49000  Biso   1.000  H
  H40      1.0000 0.63630  0.44770  0.99000  Biso   1.000  H
  H41      1.0000 0.31060  0.00910  0.41920  Biso   1.000  H
  H42      1.0000 0.31060  0.49090  0.91920  Biso   1.000  H
  H43      1.0000 0.68940  0.99090  0.58080  Biso   1.000  H
  H44      1.0000 0.68940  0.50910  0.08080  Biso   1.000  H
  H45      1.0000 0.18310  0.96710  0.48450  Biso   1.000  H
  H46      1.0000 0.18310  0.53290  0.98450  Biso   1.000  H
  H47      1.0000 0.81690  0.03290  0.51550  Biso   1.000  H
  H48      1.0000 0.81690  0.46710  0.01550  Biso   1.000  H
