data_image0
_cell_length_a       8.3713
_cell_length_b       13.0693
_cell_length_c       15.003
_cell_angle_alpha    90
_cell_angle_beta     92.033
_cell_angle_gamma    90

_symmetry_space_group_name_H-M    "P 1"
_symmetry_int_tables_number       1

loop_
  _symmetry_equiv_pos_as_xyz
  'x, y, z'

loop_
  _atom_site_label
  _atom_site_occupancy
  _atom_site_fract_x
  _atom_site_fract_y
  _atom_site_fract_z
  _atom_site_thermal_displace_type
  _atom_site_B_iso_or_equiv
  _atom_site_type_symbol
  Cu1      1.0000 0.16215  0.20777  0.09232  Biso   1.000  Cu
  Cu2      1.0000 0.16215  0.29223  0.59232  Biso   1.000  Cu
  Cu3      1.0000 0.83785  0.79223  0.90768  Biso   1.000  Cu
  Cu4      1.0000 0.83785  0.70777  0.40768  Biso   1.000  Cu
  O1       1.0000 0.32790  0.10262  0.54892  Biso   1.000  O
  O2       1.0000 0.32790  0.39738  0.04892  Biso   1.000  O
  O3       1.0000 0.67210  0.89738  0.45108  Biso   1.000  O
  O4       1.0000 0.67210  0.60262  0.95108  Biso   1.000  O
  O5       1.0000 0.33420  0.93310  0.43777  Biso   1.000  O
  O6       1.0000 0.33420  0.56690  0.93777  Biso   1.000  O
  O7       1.0000 0.66580  0.06690  0.56223  Biso   1.000  O
  O8       1.0000 0.66580  0.43310  0.06223  Biso   1.000  O
  N1       1.0000 0.04530  0.30175  0.16889  Biso   1.000  N
  N2       1.0000 0.04530  0.19825  0.66889  Biso   1.000  N
  N3       1.0000 0.95470  0.69825  0.83111  Biso   1.000  N
  N4       1.0000 0.95470  0.80175  0.33111  Biso   1.000  N
  N5       1.0000 0.88790  0.44570  0.22156  Biso   1.000  N
  N6       1.0000 0.88790  0.05430  0.72156  Biso   1.000  N
  N7       1.0000 0.11210  0.55430  0.77844  Biso   1.000  N
  N8       1.0000 0.11210  0.94570  0.27844  Biso   1.000  N
  N9       1.0000 0.94470  0.56400  0.34629  Biso   1.000  N
  N10      1.0000 0.94470  0.93600  0.84629  Biso   1.000  N
  N11      1.0000 0.05530  0.43600  0.65371  Biso   1.000  N
  N12      1.0000 0.05530  0.06400  0.15371  Biso   1.000  N
  N13      1.0000 0.28380  0.13410  0.00357  Biso   1.000  N
  N14      1.0000 0.28380  0.36590  0.50357  Biso   1.000  N
  N15      1.0000 0.71620  0.86590  0.99643  Biso   1.000  N
  N16      1.0000 0.71620  0.63410  0.49643  Biso   1.000  N
  N17      1.0000 0.38190  0.01590  0.89118  Biso   1.000  N
  N18      1.0000 0.38190  0.48410  0.39118  Biso   1.000  N
  N19      1.0000 0.61810  0.98410  0.10882  Biso   1.000  N
  N20      1.0000 0.61810  0.51590  0.60882  Biso   1.000  N
  N21      1.0000 0.32790  0.02930  0.72934  Biso   1.000  N
  N22      1.0000 0.32790  0.47070  0.22934  Biso   1.000  N
  N23      1.0000 0.67210  0.97070  0.27066  Biso   1.000  N
  N24      1.0000 0.67210  0.52930  0.77066  Biso   1.000  N
  N25      1.0000 0.34960  0.20591  0.18185  Biso   1.000  N
  N26      1.0000 0.34960  0.29409  0.68185  Biso   1.000  N
  N27      1.0000 0.65040  0.79409  0.81815  Biso   1.000  N
  N28      1.0000 0.65040  0.70591  0.31815  Biso   1.000  N
  N29      1.0000 0.98520  0.27129  0.49891  Biso   1.000  N
  N30      1.0000 0.98520  0.22871  0.99891  Biso   1.000  N
  N31      1.0000 0.01480  0.72871  0.50109  Biso   1.000  N
  N32      1.0000 0.01480  0.77129  0.00109  Biso   1.000  N
  C1       1.0000 0.97900  0.37140  0.19717  Biso   1.000  C
  C2       1.0000 0.97900  0.12860  0.69717  Biso   1.000  C
  C3       1.0000 0.02100  0.62860  0.80283  Biso   1.000  C
  C4       1.0000 0.02100  0.87140  0.30283  Biso   1.000  C
  C5       1.0000 0.92590  0.50600  0.28910  Biso   1.000  C
  C6       1.0000 0.92590  0.99400  0.78910  Biso   1.000  C
  C7       1.0000 0.07410  0.49400  0.71090  Biso   1.000  C
  C8       1.0000 0.07410  0.00600  0.21090  Biso   1.000  C
  C9       1.0000 0.32460  0.08030  0.94776  Biso   1.000  C
  C10      1.0000 0.32460  0.41970  0.44776  Biso   1.000  C
  C11      1.0000 0.67540  0.91970  0.05224  Biso   1.000  C
  C12      1.0000 0.67540  0.58030  0.55224  Biso   1.000  C
  C13      1.0000 0.35030  0.02710  0.80510  Biso   1.000  C
  C14      1.0000 0.35030  0.47290  0.30510  Biso   1.000  C
  C15      1.0000 0.64970  0.97290  0.19490  Biso   1.000  C
  C16      1.0000 0.64970  0.52710  0.69490  Biso   1.000  C
  C17      1.0000 0.32520  0.20500  0.27000  Biso   1.000  C
  C18      1.0000 0.32520  0.29500  0.77000  Biso   1.000  C
  C19      1.0000 0.67480  0.79500  0.73000  Biso   1.000  C
  C20      1.0000 0.67480  0.70500  0.23000  Biso   1.000  C
  H1       1.0000 0.21900  0.19780  0.28940  Biso   1.000  H
  H2       1.0000 0.21900  0.30220  0.78940  Biso   1.000  H
  H3       1.0000 0.78100  0.80220  0.71060  Biso   1.000  H
  H4       1.0000 0.78100  0.69780  0.21060  Biso   1.000  H
  C21      1.0000 0.44810  0.21420  0.33362  Biso   1.000  C
  C22      1.0000 0.44810  0.28580  0.83362  Biso   1.000  C
  C23      1.0000 0.55190  0.78580  0.66638  Biso   1.000  C
  C24      1.0000 0.55190  0.71420  0.16638  Biso   1.000  C
  H5       1.0000 0.42580  0.21370  0.39530  Biso   1.000  H
  H6       1.0000 0.42580  0.28630  0.89530  Biso   1.000  H
  H7       1.0000 0.57420  0.78630  0.60470  Biso   1.000  H
  H8       1.0000 0.57420  0.71370  0.10470  Biso   1.000  H
  C25      1.0000 0.60470  0.22430  0.30646  Biso   1.000  C
  C26      1.0000 0.60470  0.27570  0.80646  Biso   1.000  C
  C27      1.0000 0.39530  0.77570  0.69354  Biso   1.000  C
  C28      1.0000 0.39530  0.72430  0.19354  Biso   1.000  C
  C29      1.0000 0.73730  0.24050  0.37191  Biso   1.000  C
  C30      1.0000 0.73730  0.25950  0.87191  Biso   1.000  C
  C31      1.0000 0.26270  0.75950  0.62809  Biso   1.000  C
  C32      1.0000 0.26270  0.74050  0.12809  Biso   1.000  C
  C33      1.0000 0.73590  0.32140  0.43120  Biso   1.000  C
  C34      1.0000 0.73590  0.17860  0.93120  Biso   1.000  C
  C35      1.0000 0.26410  0.67860  0.56880  Biso   1.000  C
  C36      1.0000 0.26410  0.82140  0.06880  Biso   1.000  C
  H9       1.0000 0.64890  0.36810  0.42970  Biso   1.000  H
  H10      1.0000 0.64890  0.13190  0.92970  Biso   1.000  H
  H11      1.0000 0.35110  0.63190  0.57030  Biso   1.000  H
  H12      1.0000 0.35110  0.86810  0.07030  Biso   1.000  H
  C37      1.0000 0.86020  0.33450  0.49240  Biso   1.000  C
  C38      1.0000 0.86020  0.16550  0.99240  Biso   1.000  C
  C39      1.0000 0.13980  0.66550  0.50760  Biso   1.000  C
  C40      1.0000 0.13980  0.83450  0.00760  Biso   1.000  C
  H13      1.0000 0.85700  0.39130  0.53190  Biso   1.000  H
  H14      1.0000 0.85700  0.10870  0.03190  Biso   1.000  H
  H15      1.0000 0.14300  0.60870  0.46810  Biso   1.000  H
  H16      1.0000 0.14300  0.89130  0.96810  Biso   1.000  H
  C41      1.0000 0.98830  0.19210  0.44190  Biso   1.000  C
  C42      1.0000 0.98830  0.30790  0.94190  Biso   1.000  C
  C43      1.0000 0.01170  0.80790  0.55810  Biso   1.000  C
  C44      1.0000 0.01170  0.69210  0.05810  Biso   1.000  C
  H17      1.0000 0.07610  0.14620  0.44600  Biso   1.000  H
  H18      1.0000 0.07610  0.35380  0.94600  Biso   1.000  H
  H19      1.0000 0.92390  0.85380  0.55400  Biso   1.000  H
  H20      1.0000 0.92390  0.64620  0.05400  Biso   1.000  H
  C45      1.0000 0.86940  0.17470  0.37750  Biso   1.000  C
  C46      1.0000 0.86940  0.32530  0.87750  Biso   1.000  C
  C47      1.0000 0.13060  0.82530  0.62250  Biso   1.000  C
  C48      1.0000 0.13060  0.67470  0.12250  Biso   1.000  C
  H21      1.0000 0.87700  0.11870  0.33750  Biso   1.000  H
  H22      1.0000 0.87700  0.38130  0.83750  Biso   1.000  H
  H23      1.0000 0.12300  0.88130  0.66250  Biso   1.000  H
  H24      1.0000 0.12300  0.61870  0.16250  Biso   1.000  H
  C49      1.0000 0.62970  0.22190  0.21501  Biso   1.000  C
  C50      1.0000 0.62970  0.27810  0.71501  Biso   1.000  C
  C51      1.0000 0.37030  0.77810  0.78499  Biso   1.000  C
  C52      1.0000 0.37030  0.72190  0.28499  Biso   1.000  C
  H25      1.0000 0.73510  0.22620  0.19380  Biso   1.000  H
  H26      1.0000 0.73510  0.27380  0.69380  Biso   1.000  H
  H27      1.0000 0.26490  0.77380  0.80620  Biso   1.000  H
  H28      1.0000 0.26490  0.72620  0.30620  Biso   1.000  H
  C53      1.0000 0.50040  0.21320  0.15537  Biso   1.000  C
  C54      1.0000 0.50040  0.28680  0.65537  Biso   1.000  C
  C55      1.0000 0.49960  0.78680  0.84463  Biso   1.000  C
  C56      1.0000 0.49960  0.71320  0.34463  Biso   1.000  C
  H29      1.0000 0.51930  0.21240  0.09330  Biso   1.000  H
  H30      1.0000 0.51930  0.28760  0.59330  Biso   1.000  H
  H31      1.0000 0.48070  0.78760  0.90670  Biso   1.000  H
  H32      1.0000 0.48070  0.71240  0.40670  Biso   1.000  H
