data_image0
_cell_length_a       7.3887
_cell_length_b       11.961
_cell_length_c       18.7679
_cell_angle_alpha    90
_cell_angle_beta     90
_cell_angle_gamma    90

_symmetry_space_group_name_H-M    "P 1"
_symmetry_int_tables_number       1

loop_
  _symmetry_equiv_pos_as_xyz
  'x, y, z'

loop_
  _atom_site_label
  _atom_site_occupancy
  _atom_site_fract_x
  _atom_site_fract_y
  _atom_site_fract_z
  _atom_site_thermal_displace_type
  _atom_site_B_iso_or_equiv
  _atom_site_type_symbol
  Cu1      1.0000 0.25939  0.03927  0.00000  Biso   1.000  Cu
  Cu2      1.0000 0.74061  0.96073  0.50000  Biso   1.000  Cu
  Cu3      1.0000 0.75939  0.46073  0.00000  Biso   1.000  Cu
  Cu4      1.0000 0.24061  0.53927  0.50000  Biso   1.000  Cu
  N1       1.0000 0.07370  0.93160  0.03484  Biso   1.000  N
  N2       1.0000 0.92630  0.06840  0.53484  Biso   1.000  N
  N3       1.0000 0.57370  0.56840  0.03484  Biso   1.000  N
  N4       1.0000 0.42630  0.43160  0.53484  Biso   1.000  N
  N5       1.0000 0.77980  0.85330  0.06620  Biso   1.000  N
  N6       1.0000 0.22020  0.14670  0.56620  Biso   1.000  N
  N7       1.0000 0.27980  0.64670  0.06620  Biso   1.000  N
  N8       1.0000 0.72020  0.35330  0.56620  Biso   1.000  N
  N9       1.0000 0.49510  0.95420  0.05002  Biso   1.000  N
  N10      1.0000 0.50490  0.04580  0.55002  Biso   1.000  N
  N11      1.0000 0.99510  0.54580  0.05002  Biso   1.000  N
  N12      1.0000 0.00490  0.45420  0.55002  Biso   1.000  N
  N13      1.0000 0.37990  0.16870  0.95417  Biso   1.000  N
  N14      1.0000 0.62010  0.83130  0.45417  Biso   1.000  N
  N15      1.0000 0.87990  0.33130  0.95417  Biso   1.000  N
  N16      1.0000 0.12010  0.66870  0.45417  Biso   1.000  N
  N17      1.0000 0.44490  0.36590  0.93400  Biso   1.000  N
  N18      1.0000 0.55510  0.63410  0.43400  Biso   1.000  N
  N19      1.0000 0.94490  0.13410  0.93400  Biso   1.000  N
  N20      1.0000 0.05510  0.86590  0.43400  Biso   1.000  N
  N21      1.0000 0.25170  0.50380  0.87380  Biso   1.000  N
  N22      1.0000 0.74830  0.49620  0.37380  Biso   1.000  N
  N23      1.0000 0.75170  0.99620  0.87380  Biso   1.000  N
  N24      1.0000 0.24830  0.00380  0.37380  Biso   1.000  N
  N25      1.0000 0.21800  0.13250  0.09025  Biso   1.000  N
  N26      1.0000 0.78200  0.86750  0.59025  Biso   1.000  N
  N27      1.0000 0.71800  0.36750  0.09025  Biso   1.000  N
  N28      1.0000 0.28200  0.63250  0.59025  Biso   1.000  N
  N29      1.0000 0.22110  0.45170  0.40798  Biso   1.000  N
  N30      1.0000 0.77890  0.54830  0.90798  Biso   1.000  N
  N31      1.0000 0.72110  0.04830  0.40798  Biso   1.000  N
  N32      1.0000 0.27890  0.95170  0.90798  Biso   1.000  N
  C1       1.0000 0.93210  0.89960  0.04830  Biso   1.000  C
  C2       1.0000 0.06790  0.10040  0.54830  Biso   1.000  C
  C3       1.0000 0.43210  0.60040  0.04830  Biso   1.000  C
  C4       1.0000 0.56790  0.39960  0.54830  Biso   1.000  C
  C5       1.0000 0.63110  0.91180  0.05590  Biso   1.000  C
  C6       1.0000 0.36890  0.08820  0.55590  Biso   1.000  C
  C7       1.0000 0.13110  0.58820  0.05590  Biso   1.000  C
  C8       1.0000 0.86890  0.41180  0.55590  Biso   1.000  C
  C9       1.0000 0.40140  0.26100  0.94100  Biso   1.000  C
  C10      1.0000 0.59860  0.73900  0.44100  Biso   1.000  C
  C11      1.0000 0.90140  0.23900  0.94100  Biso   1.000  C
  C12      1.0000 0.09860  0.76100  0.44100  Biso   1.000  C
  C13      1.0000 0.33740  0.43490  0.90030  Biso   1.000  C
  C14      1.0000 0.66260  0.56510  0.40030  Biso   1.000  C
  C15      1.0000 0.83740  0.06510  0.90030  Biso   1.000  C
  C16      1.0000 0.16260  0.93490  0.40030  Biso   1.000  C
  C17      1.0000 0.23700  0.08300  0.15380  Biso   1.000  C
  C18      1.0000 0.76300  0.91700  0.65380  Biso   1.000  C
  C19      1.0000 0.73700  0.41700  0.15380  Biso   1.000  C
  C20      1.0000 0.26300  0.58300  0.65380  Biso   1.000  C
  H1       1.0000 0.25500  0.00440  0.15530  Biso   1.000  H
  H2       1.0000 0.74500  0.99560  0.65530  Biso   1.000  H
  H3       1.0000 0.75500  0.49560  0.15530  Biso   1.000  H
  H4       1.0000 0.24500  0.50440  0.65530  Biso   1.000  H
  C21      1.0000 0.23140  0.14180  0.21800  Biso   1.000  C
  C22      1.0000 0.76860  0.85820  0.71800  Biso   1.000  C
  C23      1.0000 0.73140  0.35820  0.21800  Biso   1.000  C
  C24      1.0000 0.26860  0.64180  0.71800  Biso   1.000  C
  H5       1.0000 0.24780  0.10410  0.26210  Biso   1.000  H
  H6       1.0000 0.75220  0.89590  0.76210  Biso   1.000  H
  H7       1.0000 0.74780  0.39590  0.26210  Biso   1.000  H
  H8       1.0000 0.25220  0.60410  0.76210  Biso   1.000  H
  C25      1.0000 0.20110  0.25760  0.21635  Biso   1.000  C
  C26      1.0000 0.79890  0.74240  0.71635  Biso   1.000  C
  C27      1.0000 0.70110  0.24240  0.21635  Biso   1.000  C
  C28      1.0000 0.29890  0.75760  0.71635  Biso   1.000  C
  C29      1.0000 0.20330  0.32480  0.28350  Biso   1.000  C
  C30      1.0000 0.79670  0.67520  0.78350  Biso   1.000  C
  C31      1.0000 0.70330  0.17520  0.28350  Biso   1.000  C
  C32      1.0000 0.29670  0.82480  0.78350  Biso   1.000  C
  C33      1.0000 0.17720  0.27630  0.34920  Biso   1.000  C
  C34      1.0000 0.82280  0.72370  0.84920  Biso   1.000  C
  C35      1.0000 0.67720  0.22370  0.34920  Biso   1.000  C
  C36      1.0000 0.32280  0.77630  0.84920  Biso   1.000  C
  H9       1.0000 0.15200  0.19870  0.35270  Biso   1.000  H
  H10      1.0000 0.84800  0.80130  0.85270  Biso   1.000  H
  H11      1.0000 0.65200  0.30130  0.35270  Biso   1.000  H
  H12      1.0000 0.34800  0.69870  0.85270  Biso   1.000  H
  C37      1.0000 0.18800  0.34160  0.41040  Biso   1.000  C
  C38      1.0000 0.81200  0.65840  0.91040  Biso   1.000  C
  C39      1.0000 0.68800  0.15840  0.41040  Biso   1.000  C
  C40      1.0000 0.31200  0.84160  0.91040  Biso   1.000  C
  H13      1.0000 0.17140  0.30690  0.45540  Biso   1.000  H
  H14      1.0000 0.82860  0.69310  0.95540  Biso   1.000  H
  H15      1.0000 0.67140  0.19310  0.45540  Biso   1.000  H
  H16      1.0000 0.32860  0.80690  0.95540  Biso   1.000  H
  C41      1.0000 0.24480  0.49930  0.34500  Biso   1.000  C
  C42      1.0000 0.75520  0.50070  0.84500  Biso   1.000  C
  C43      1.0000 0.74480  0.00070  0.34500  Biso   1.000  C
  C44      1.0000 0.25520  0.99930  0.84500  Biso   1.000  C
  H17      1.0000 0.26720  0.57740  0.34280  Biso   1.000  H
  H18      1.0000 0.73280  0.42260  0.84280  Biso   1.000  H
  H19      1.0000 0.76720  0.92260  0.34280  Biso   1.000  H
  H20      1.0000 0.23280  0.07740  0.84280  Biso   1.000  H
  C45      1.0000 0.23770  0.43840  0.28190  Biso   1.000  C
  C46      1.0000 0.76230  0.56160  0.78190  Biso   1.000  C
  C47      1.0000 0.73770  0.06160  0.28190  Biso   1.000  C
  C48      1.0000 0.26230  0.93840  0.78190  Biso   1.000  C
  H21      1.0000 0.25670  0.47490  0.23760  Biso   1.000  H
  H22      1.0000 0.74330  0.52510  0.73760  Biso   1.000  H
  H23      1.0000 0.75670  0.02510  0.23760  Biso   1.000  H
  H24      1.0000 0.24330  0.97490  0.73760  Biso   1.000  H
  C49      1.0000 0.17510  0.30710  0.15020  Biso   1.000  C
  C50      1.0000 0.82490  0.69290  0.65020  Biso   1.000  C
  C51      1.0000 0.67510  0.19290  0.15020  Biso   1.000  C
  C52      1.0000 0.32490  0.80710  0.65020  Biso   1.000  C
  H25      1.0000 0.15210  0.38510  0.14700  Biso   1.000  H
  H26      1.0000 0.84790  0.61490  0.64700  Biso   1.000  H
  H27      1.0000 0.65210  0.11490  0.14700  Biso   1.000  H
  H28      1.0000 0.34790  0.88510  0.64700  Biso   1.000  H
  C53      1.0000 0.18250  0.24330  0.08920  Biso   1.000  C
  C54      1.0000 0.81750  0.75670  0.58920  Biso   1.000  C
  C55      1.0000 0.68250  0.25670  0.08920  Biso   1.000  C
  C56      1.0000 0.31750  0.74330  0.58920  Biso   1.000  C
  H29      1.0000 0.16170  0.27860  0.04460  Biso   1.000  H
  H30      1.0000 0.83830  0.72140  0.54460  Biso   1.000  H
  H31      1.0000 0.66170  0.22140  0.04460  Biso   1.000  H
  H32      1.0000 0.33830  0.77860  0.54460  Biso   1.000  H
  O1       1.0000 0.38540  0.79070  0.23900  Biso   1.000  O
  O2       1.0000 0.61460  0.20930  0.73900  Biso   1.000  O
  O3       1.0000 0.88540  0.70930  0.23900  Biso   1.000  O
  O4       1.0000 0.11460  0.29070  0.73900  Biso   1.000  O
  O5       1.0000 0.25960  0.78910  0.20070  Biso   1.000  O
  O6       1.0000 0.74040  0.21090  0.70070  Biso   1.000  O
  O7       1.0000 0.75960  0.71090  0.20070  Biso   1.000  O
  O8       1.0000 0.24040  0.28910  0.70070  Biso   1.000  O
  O9       1.0000 0.45710  0.69300  0.25390  Biso   1.000  O
  O10      1.0000 0.54290  0.30700  0.75390  Biso   1.000  O
  O11      1.0000 0.95710  0.80700  0.25390  Biso   1.000  O
  O12      1.0000 0.04290  0.19300  0.75390  Biso   1.000  O
  O13      1.0000 0.49370  0.76090  0.22480  Biso   1.000  O
  O14      1.0000 0.50630  0.23910  0.72480  Biso   1.000  O
  O15      1.0000 0.99370  0.73910  0.22480  Biso   1.000  O
  O16      1.0000 0.00630  0.26090  0.72480  Biso   1.000  O
  O17      1.0000 0.28740  0.71630  0.23190  Biso   1.000  O
  O18      1.0000 0.71260  0.28370  0.73190  Biso   1.000  O
  O19      1.0000 0.78740  0.78370  0.23190  Biso   1.000  O
  O20      1.0000 0.21260  0.21630  0.73190  Biso   1.000  O
  O21      1.0000 0.40890  0.67230  0.22920  Biso   1.000  O
  O22      1.0000 0.59110  0.32770  0.72920  Biso   1.000  O
  O23      1.0000 0.90890  0.82770  0.22920  Biso   1.000  O
  O24      1.0000 0.09110  0.17230  0.72920  Biso   1.000  O
