data_image0
_cell_length_a       23.219
_cell_length_b       8.0004
_cell_length_c       29.702
_cell_angle_alpha    90
_cell_angle_beta     108.004
_cell_angle_gamma    90

_symmetry_space_group_name_H-M    "P 1"
_symmetry_int_tables_number       1

loop_
  _symmetry_equiv_pos_as_xyz
  'x, y, z'

loop_
  _atom_site_label
  _atom_site_occupancy
  _atom_site_fract_x
  _atom_site_fract_y
  _atom_site_fract_z
  _atom_site_thermal_displace_type
  _atom_site_B_iso_or_equiv
  _atom_site_type_symbol
  Cu1      1.0000 0.24950  0.94565  0.83108  Biso   1.000  Cu
  Cu2      1.0000 0.75050  0.94565  0.66892  Biso   1.000  Cu
  Cu3      1.0000 0.74950  0.44565  0.83108  Biso   1.000  Cu
  Cu4      1.0000 0.25050  0.44565  0.66892  Biso   1.000  Cu
  Cu5      1.0000 0.75050  0.05435  0.16892  Biso   1.000  Cu
  Cu6      1.0000 0.24950  0.05435  0.33108  Biso   1.000  Cu
  Cu7      1.0000 0.25050  0.55435  0.16892  Biso   1.000  Cu
  Cu8      1.0000 0.74950  0.55435  0.33108  Biso   1.000  Cu
  Cu9      1.0000 0.33607  0.66422  0.83426  Biso   1.000  Cu
  Cu10     1.0000 0.66393  0.66422  0.66574  Biso   1.000  Cu
  Cu11     1.0000 0.83607  0.16422  0.83426  Biso   1.000  Cu
  Cu12     1.0000 0.16393  0.16422  0.66574  Biso   1.000  Cu
  Cu13     1.0000 0.66393  0.33578  0.16574  Biso   1.000  Cu
  Cu14     1.0000 0.33607  0.33578  0.33426  Biso   1.000  Cu
  Cu15     1.0000 0.16393  0.83578  0.16574  Biso   1.000  Cu
  Cu16     1.0000 0.83607  0.83578  0.33426  Biso   1.000  Cu
  Cu17     1.0000 0.25000  0.75000  0.00000  Biso   1.000  Cu
  Cu18     1.0000 0.75000  0.75000  0.50000  Biso   1.000  Cu
  Cu19     1.0000 0.75000  0.25000  0.00000  Biso   1.000  Cu
  Cu20     1.0000 0.25000  0.25000  0.50000  Biso   1.000  Cu
  O1       1.0000 0.32480  0.85390  0.87132  Biso   1.000  O
  O2       1.0000 0.67520  0.85390  0.62868  Biso   1.000  O
  O3       1.0000 0.82480  0.35390  0.87132  Biso   1.000  O
  O4       1.0000 0.17520  0.35390  0.62868  Biso   1.000  O
  O5       1.0000 0.67520  0.14610  0.12868  Biso   1.000  O
  O6       1.0000 0.32480  0.14610  0.37132  Biso   1.000  O
  O7       1.0000 0.17520  0.64610  0.12868  Biso   1.000  O
  O8       1.0000 0.82480  0.64610  0.37132  Biso   1.000  O
  O9       1.0000 0.35473  0.49950  0.79397  Biso   1.000  O
  O10      1.0000 0.64527  0.49950  0.70603  Biso   1.000  O
  O11      1.0000 0.85473  0.99950  0.79397  Biso   1.000  O
  O12      1.0000 0.14527  0.99950  0.70603  Biso   1.000  O
  O13      1.0000 0.64527  0.50050  0.20603  Biso   1.000  O
  O14      1.0000 0.35473  0.50050  0.29397  Biso   1.000  O
  O15      1.0000 0.14527  0.00050  0.20603  Biso   1.000  O
  O16      1.0000 0.85473  0.00050  0.29397  Biso   1.000  O
  O17      1.0000 0.43860  0.29060  0.93320  Biso   1.000  O
  O18      1.0000 0.56140  0.29060  0.56680  Biso   1.000  O
  O19      1.0000 0.93860  0.79060  0.93320  Biso   1.000  O
  O20      1.0000 0.06140  0.79060  0.56680  Biso   1.000  O
  O21      1.0000 0.56140  0.70940  0.06680  Biso   1.000  O
  O22      1.0000 0.43860  0.70940  0.43320  Biso   1.000  O
  O23      1.0000 0.06140  0.20940  0.06680  Biso   1.000  O
  O24      1.0000 0.93860  0.20940  0.43320  Biso   1.000  O
  H1       1.0000 0.41270  0.33290  0.94430  Biso   1.000  H
  H2       1.0000 0.58730  0.33290  0.55570  Biso   1.000  H
  H3       1.0000 0.91270  0.83290  0.94430  Biso   1.000  H
  H4       1.0000 0.08730  0.83290  0.55570  Biso   1.000  H
  H5       1.0000 0.58730  0.66710  0.05570  Biso   1.000  H
  H6       1.0000 0.41270  0.66710  0.44430  Biso   1.000  H
  H7       1.0000 0.08730  0.16710  0.05570  Biso   1.000  H
  H8       1.0000 0.91270  0.16710  0.44430  Biso   1.000  H
  O25      1.0000 0.53163  0.61520  0.87088  Biso   1.000  O
  O26      1.0000 0.46837  0.61520  0.62912  Biso   1.000  O
  O27      1.0000 0.03163  0.11520  0.87088  Biso   1.000  O
  O28      1.0000 0.96837  0.11520  0.62912  Biso   1.000  O
  O29      1.0000 0.46837  0.38480  0.12912  Biso   1.000  O
  O30      1.0000 0.53163  0.38480  0.37088  Biso   1.000  O
  O31      1.0000 0.96837  0.88480  0.12912  Biso   1.000  O
  O32      1.0000 0.03163  0.88480  0.37088  Biso   1.000  O
  H9       1.0000 0.56620  0.63350  0.89000  Biso   1.000  H
  H10      1.0000 0.43380  0.63350  0.61000  Biso   1.000  H
  H11      1.0000 0.06620  0.13350  0.89000  Biso   1.000  H
  H12      1.0000 0.93380  0.13350  0.61000  Biso   1.000  H
  H13      1.0000 0.43380  0.36650  0.11000  Biso   1.000  H
  H14      1.0000 0.56620  0.36650  0.39000  Biso   1.000  H
  H15      1.0000 0.93380  0.86650  0.11000  Biso   1.000  H
  H16      1.0000 0.06620  0.86650  0.39000  Biso   1.000  H
  O33      1.0000 0.18185  0.05630  0.78971  Biso   1.000  O
  O34      1.0000 0.81815  0.05630  0.71029  Biso   1.000  O
  O35      1.0000 0.68185  0.55630  0.78971  Biso   1.000  O
  O36      1.0000 0.31815  0.55630  0.71029  Biso   1.000  O
  O37      1.0000 0.81815  0.94370  0.21029  Biso   1.000  O
  O38      1.0000 0.18185  0.94370  0.28971  Biso   1.000  O
  O39      1.0000 0.31815  0.44370  0.21029  Biso   1.000  O
  O40      1.0000 0.68185  0.44370  0.28971  Biso   1.000  O
  O41      1.0000 0.14823  0.19050  0.91627  Biso   1.000  O
  O42      1.0000 0.85177  0.19050  0.58373  Biso   1.000  O
  O43      1.0000 0.64823  0.69050  0.91627  Biso   1.000  O
  O44      1.0000 0.35177  0.69050  0.58373  Biso   1.000  O
  O45      1.0000 0.85177  0.80950  0.08373  Biso   1.000  O
  O46      1.0000 0.14823  0.80950  0.41627  Biso   1.000  O
  O47      1.0000 0.35177  0.30950  0.08373  Biso   1.000  O
  O48      1.0000 0.64823  0.30950  0.41627  Biso   1.000  O
  H17      1.0000 0.17210  0.10870  0.92270  Biso   1.000  H
  H18      1.0000 0.82790  0.10870  0.57730  Biso   1.000  H
  H19      1.0000 0.67210  0.60870  0.92270  Biso   1.000  H
  H20      1.0000 0.32790  0.60870  0.57730  Biso   1.000  H
  H21      1.0000 0.82790  0.89130  0.07730  Biso   1.000  H
  H22      1.0000 0.17210  0.89130  0.42270  Biso   1.000  H
  H23      1.0000 0.32790  0.39130  0.07730  Biso   1.000  H
  H24      1.0000 0.67210  0.39130  0.42270  Biso   1.000  H
  O49      1.0000 0.27886  0.46780  0.86866  Biso   1.000  O
  O50      1.0000 0.72114  0.46780  0.63134  Biso   1.000  O
  O51      1.0000 0.77886  0.96780  0.86866  Biso   1.000  O
  O52      1.0000 0.22114  0.96780  0.63134  Biso   1.000  O
  O53      1.0000 0.72114  0.53220  0.13134  Biso   1.000  O
  O54      1.0000 0.27886  0.53220  0.36866  Biso   1.000  O
  O55      1.0000 0.22114  0.03220  0.13134  Biso   1.000  O
  O56      1.0000 0.77886  0.03220  0.36866  Biso   1.000  O
  H25      1.0000 0.26780  0.51860  0.88930  Biso   1.000  H
  H26      1.0000 0.73220  0.51860  0.61070  Biso   1.000  H
  H27      1.0000 0.76780  0.01860  0.88930  Biso   1.000  H
  H28      1.0000 0.23220  0.01860  0.61070  Biso   1.000  H
  H29      1.0000 0.73220  0.48140  0.11070  Biso   1.000  H
  H30      1.0000 0.26780  0.48140  0.38930  Biso   1.000  H
  H31      1.0000 0.23220  0.98140  0.11070  Biso   1.000  H
  H32      1.0000 0.76780  0.98140  0.38930  Biso   1.000  H
  N1       1.0000 0.41217  0.60310  0.87972  Biso   1.000  N
  N2       1.0000 0.58783  0.60310  0.62028  Biso   1.000  N
  N3       1.0000 0.91217  0.10310  0.87972  Biso   1.000  N
  N4       1.0000 0.08783  0.10310  0.62028  Biso   1.000  N
  N5       1.0000 0.58783  0.39690  0.12028  Biso   1.000  N
  N6       1.0000 0.41217  0.39690  0.37972  Biso   1.000  N
  N7       1.0000 0.08783  0.89690  0.12028  Biso   1.000  N
  N8       1.0000 0.91217  0.89690  0.37972  Biso   1.000  N
  N9       1.0000 0.24840  0.11970  0.87586  Biso   1.000  N
  N10      1.0000 0.75160  0.11970  0.62414  Biso   1.000  N
  N11      1.0000 0.74840  0.61970  0.87586  Biso   1.000  N
  N12      1.0000 0.25160  0.61970  0.62414  Biso   1.000  N
  N13      1.0000 0.75160  0.88030  0.12414  Biso   1.000  N
  N14      1.0000 0.24840  0.88030  0.37586  Biso   1.000  N
  N15      1.0000 0.25160  0.38030  0.12414  Biso   1.000  N
  N16      1.0000 0.74840  0.38030  0.37586  Biso   1.000  N
  N17      1.0000 0.26164  0.76190  0.78966  Biso   1.000  N
  N18      1.0000 0.73836  0.76190  0.71034  Biso   1.000  N
  N19      1.0000 0.76164  0.26190  0.78966  Biso   1.000  N
  N20      1.0000 0.23836  0.26190  0.71034  Biso   1.000  N
  N21      1.0000 0.73836  0.23810  0.21034  Biso   1.000  N
  N22      1.0000 0.26164  0.23810  0.28966  Biso   1.000  N
  N23      1.0000 0.23836  0.73810  0.21034  Biso   1.000  N
  N24      1.0000 0.76164  0.73810  0.28966  Biso   1.000  N
  N25      1.0000 0.22270  0.69170  0.75780  Biso   1.000  N
  N26      1.0000 0.77730  0.69170  0.74220  Biso   1.000  N
  N27      1.0000 0.72270  0.19170  0.75780  Biso   1.000  N
  N28      1.0000 0.27730  0.19170  0.74220  Biso   1.000  N
  N29      1.0000 0.77730  0.30830  0.24220  Biso   1.000  N
  N30      1.0000 0.22270  0.30830  0.25780  Biso   1.000  N
  N31      1.0000 0.27730  0.80830  0.24220  Biso   1.000  N
  N32      1.0000 0.72270  0.80830  0.25780  Biso   1.000  N
  N33      1.0000 0.18766  0.62810  0.72739  Biso   1.000  N
  N34      1.0000 0.81234  0.62810  0.77261  Biso   1.000  N
  N35      1.0000 0.68766  0.12810  0.72739  Biso   1.000  N
  N36      1.0000 0.31234  0.12810  0.77261  Biso   1.000  N
  N37      1.0000 0.81234  0.37190  0.27261  Biso   1.000  N
  N38      1.0000 0.18766  0.37190  0.22739  Biso   1.000  N
  N39      1.0000 0.31234  0.87190  0.27261  Biso   1.000  N
  N40      1.0000 0.68766  0.87190  0.22739  Biso   1.000  N
  N41      1.0000 0.12397  0.03910  0.00891  Biso   1.000  N
  N42      1.0000 0.87603  0.03910  0.49109  Biso   1.000  N
  N43      1.0000 0.62397  0.53910  0.00891  Biso   1.000  N
  N44      1.0000 0.37603  0.53910  0.49109  Biso   1.000  N
  N45      1.0000 0.87603  0.96090  0.99109  Biso   1.000  N
  N46      1.0000 0.12397  0.96090  0.50891  Biso   1.000  N
  N47      1.0000 0.37603  0.46090  0.99109  Biso   1.000  N
  N48      1.0000 0.62397  0.46090  0.50891  Biso   1.000  N
  N49      1.0000 0.16949  0.96790  0.02310  Biso   1.000  N
  N50      1.0000 0.83051  0.96790  0.47690  Biso   1.000  N
  N51      1.0000 0.66949  0.46790  0.02310  Biso   1.000  N
  N52      1.0000 0.33051  0.46790  0.47690  Biso   1.000  N
  N53      1.0000 0.83051  0.03210  0.97690  Biso   1.000  N
  N54      1.0000 0.16949  0.03210  0.52310  Biso   1.000  N
  N55      1.0000 0.33051  0.53210  0.97690  Biso   1.000  N
  N56      1.0000 0.66949  0.53210  0.52310  Biso   1.000  N
  N57      1.0000 0.21693  0.89660  0.03917  Biso   1.000  N
  N58      1.0000 0.78307  0.89660  0.46083  Biso   1.000  N
  N59      1.0000 0.71693  0.39660  0.03917  Biso   1.000  N
  N60      1.0000 0.28307  0.39660  0.46083  Biso   1.000  N
  N61      1.0000 0.78307  0.10340  0.96083  Biso   1.000  N
  N62      1.0000 0.21693  0.10340  0.53917  Biso   1.000  N
  N63      1.0000 0.28307  0.60340  0.96083  Biso   1.000  N
  N64      1.0000 0.71693  0.60340  0.53917  Biso   1.000  N
  N65      1.0000 0.19199  0.84780  0.94302  Biso   1.000  N
  N66      1.0000 0.80801  0.84780  0.55698  Biso   1.000  N
  N67      1.0000 0.69199  0.34780  0.94302  Biso   1.000  N
  N68      1.0000 0.30801  0.34780  0.55698  Biso   1.000  N
  N69      1.0000 0.80801  0.15220  0.05698  Biso   1.000  N
  N70      1.0000 0.19199  0.15220  0.44302  Biso   1.000  N
  N71      1.0000 0.30801  0.65220  0.05698  Biso   1.000  N
  N72      1.0000 0.69199  0.65220  0.44302  Biso   1.000  N
  N73      1.0000 0.18782  0.79600  0.90431  Biso   1.000  N
  N74      1.0000 0.81218  0.79600  0.59569  Biso   1.000  N
  N75      1.0000 0.68782  0.29600  0.90431  Biso   1.000  N
  N76      1.0000 0.31218  0.29600  0.59569  Biso   1.000  N
  N77      1.0000 0.81218  0.20400  0.09569  Biso   1.000  N
  N78      1.0000 0.18782  0.20400  0.40431  Biso   1.000  N
  N79      1.0000 0.31218  0.70400  0.09569  Biso   1.000  N
  N80      1.0000 0.68782  0.70400  0.40431  Biso   1.000  N
  N81      1.0000 0.18471  0.75710  0.86623  Biso   1.000  N
  N82      1.0000 0.81529  0.75710  0.63377  Biso   1.000  N
  N83      1.0000 0.68471  0.25710  0.86623  Biso   1.000  N
  N84      1.0000 0.31529  0.25710  0.63377  Biso   1.000  N
  N85      1.0000 0.81529  0.24290  0.13377  Biso   1.000  N
  N86      1.0000 0.18471  0.24290  0.36623  Biso   1.000  N
  N87      1.0000 0.31529  0.74290  0.13377  Biso   1.000  N
  N88      1.0000 0.68471  0.74290  0.36623  Biso   1.000  N
  C1       1.0000 0.44722  0.98980  0.06536  Biso   1.000  C
  C2       1.0000 0.55278  0.98980  0.43464  Biso   1.000  C
  C3       1.0000 0.94722  0.48980  0.06536  Biso   1.000  C
  C4       1.0000 0.05278  0.48980  0.43464  Biso   1.000  C
  C5       1.0000 0.55278  0.01020  0.93464  Biso   1.000  C
  C6       1.0000 0.44722  0.01020  0.56536  Biso   1.000  C
  C7       1.0000 0.05278  0.51020  0.93464  Biso   1.000  C
  C8       1.0000 0.94722  0.51020  0.56536  Biso   1.000  C
  H33      1.0000 0.42710  0.92590  0.08440  Biso   1.000  H
  H34      1.0000 0.57290  0.92590  0.41560  Biso   1.000  H
  H35      1.0000 0.92710  0.42590  0.08440  Biso   1.000  H
  H36      1.0000 0.07290  0.42590  0.41560  Biso   1.000  H
  H37      1.0000 0.57290  0.07410  0.91560  Biso   1.000  H
  H38      1.0000 0.42710  0.07410  0.58440  Biso   1.000  H
  H39      1.0000 0.07290  0.57410  0.91560  Biso   1.000  H
  H40      1.0000 0.92710  0.57410  0.58440  Biso   1.000  H
  H41      1.0000 0.48960  0.95470  0.07330  Biso   1.000  H
  H42      1.0000 0.51040  0.95470  0.42670  Biso   1.000  H
  H43      1.0000 0.98960  0.45470  0.07330  Biso   1.000  H
  H44      1.0000 0.01040  0.45470  0.42670  Biso   1.000  H
  H45      1.0000 0.51040  0.04530  0.92670  Biso   1.000  H
  H46      1.0000 0.48960  0.04530  0.57330  Biso   1.000  H
  H47      1.0000 0.01040  0.54530  0.92670  Biso   1.000  H
  H48      1.0000 0.98960  0.54530  0.57330  Biso   1.000  H
  H49      1.0000 0.44540  0.10930  0.07210  Biso   1.000  H
  H50      1.0000 0.55460  0.10930  0.42790  Biso   1.000  H
  H51      1.0000 0.94540  0.60930  0.07210  Biso   1.000  H
  H52      1.0000 0.05460  0.60930  0.42790  Biso   1.000  H
  H53      1.0000 0.55460  0.89070  0.92790  Biso   1.000  H
  H54      1.0000 0.44540  0.89070  0.57210  Biso   1.000  H
  H55      1.0000 0.05460  0.39070  0.92790  Biso   1.000  H
  H56      1.0000 0.94540  0.39070  0.57210  Biso   1.000  H
  C9       1.0000 0.41569  0.95850  0.01364  Biso   1.000  C
  C10      1.0000 0.58431  0.95850  0.48636  Biso   1.000  C
  C11      1.0000 0.91569  0.45850  0.01364  Biso   1.000  C
  C12      1.0000 0.08431  0.45850  0.48636  Biso   1.000  C
  C13      1.0000 0.58431  0.04150  0.98636  Biso   1.000  C
  C14      1.0000 0.41569  0.04150  0.51364  Biso   1.000  C
  C15      1.0000 0.08431  0.54150  0.98636  Biso   1.000  C
  C16      1.0000 0.91569  0.54150  0.51364  Biso   1.000  C
  C17      1.0000 0.43737  0.84030  0.98851  Biso   1.000  C
  C18      1.0000 0.56263  0.84030  0.51149  Biso   1.000  C
  C19      1.0000 0.93737  0.34030  0.98851  Biso   1.000  C
  C20      1.0000 0.06263  0.34030  0.51149  Biso   1.000  C
  C21      1.0000 0.56263  0.15970  0.01149  Biso   1.000  C
  C22      1.0000 0.43737  0.15970  0.48851  Biso   1.000  C
  C23      1.0000 0.06263  0.65970  0.01149  Biso   1.000  C
  C24      1.0000 0.93737  0.65970  0.48851  Biso   1.000  C
  H57      1.0000 0.47370  0.78240  0.00440  Biso   1.000  H
  H58      1.0000 0.52630  0.78240  0.49560  Biso   1.000  H
  H59      1.0000 0.97370  0.28240  0.00440  Biso   1.000  H
  H60      1.0000 0.02630  0.28240  0.49560  Biso   1.000  H
  H61      1.0000 0.52630  0.21760  0.99560  Biso   1.000  H
  H62      1.0000 0.47370  0.21760  0.50440  Biso   1.000  H
  H63      1.0000 0.02630  0.71760  0.99560  Biso   1.000  H
  H64      1.0000 0.97370  0.71760  0.50440  Biso   1.000  H
  C25      1.0000 0.40815  0.80320  0.94116  Biso   1.000  C
  C26      1.0000 0.59185  0.80320  0.55884  Biso   1.000  C
  C27      1.0000 0.90815  0.30320  0.94116  Biso   1.000  C
  C28      1.0000 0.09185  0.30320  0.55884  Biso   1.000  C
  C29      1.0000 0.59185  0.19680  0.05884  Biso   1.000  C
  C30      1.0000 0.40815  0.19680  0.44116  Biso   1.000  C
  C31      1.0000 0.09185  0.69680  0.05884  Biso   1.000  C
  C32      1.0000 0.90815  0.69680  0.44116  Biso   1.000  C
  C33      1.0000 0.35446  0.89060  0.91628  Biso   1.000  C
  C34      1.0000 0.64554  0.89060  0.58372  Biso   1.000  C
  C35      1.0000 0.85446  0.39060  0.91628  Biso   1.000  C
  C36      1.0000 0.14554  0.39060  0.58372  Biso   1.000  C
  C37      1.0000 0.64554  0.10940  0.08372  Biso   1.000  C
  C38      1.0000 0.35446  0.10940  0.41628  Biso   1.000  C
  C39      1.0000 0.14554  0.60940  0.08372  Biso   1.000  C
  C40      1.0000 0.85446  0.60940  0.41628  Biso   1.000  C
  C41      1.0000 0.33364  0.01720  0.94074  Biso   1.000  C
  C42      1.0000 0.66636  0.01720  0.55926  Biso   1.000  C
  C43      1.0000 0.83364  0.51720  0.94074  Biso   1.000  C
  C44      1.0000 0.16636  0.51720  0.55926  Biso   1.000  C
  C45      1.0000 0.66636  0.98280  0.05926  Biso   1.000  C
  C46      1.0000 0.33364  0.98280  0.44074  Biso   1.000  C
  C47      1.0000 0.16636  0.48280  0.05926  Biso   1.000  C
  C48      1.0000 0.83364  0.48280  0.44074  Biso   1.000  C
  C49      1.0000 0.36422  0.04700  0.98882  Biso   1.000  C
  C50      1.0000 0.63578  0.04700  0.51118  Biso   1.000  C
  C51      1.0000 0.86422  0.54700  0.98882  Biso   1.000  C
  C52      1.0000 0.13578  0.54700  0.51118  Biso   1.000  C
  C53      1.0000 0.63578  0.95300  0.01118  Biso   1.000  C
  C54      1.0000 0.36422  0.95300  0.48882  Biso   1.000  C
  C55      1.0000 0.13578  0.45300  0.01118  Biso   1.000  C
  C56      1.0000 0.86422  0.45300  0.48882  Biso   1.000  C
  H65      1.0000 0.34920  0.13070  0.00490  Biso   1.000  H
  H66      1.0000 0.65080  0.13070  0.49510  Biso   1.000  H
  H67      1.0000 0.84920  0.63070  0.00490  Biso   1.000  H
  H68      1.0000 0.15080  0.63070  0.49510  Biso   1.000  H
  H69      1.0000 0.65080  0.86930  0.99510  Biso   1.000  H
  H70      1.0000 0.34920  0.86930  0.50490  Biso   1.000  H
  H71      1.0000 0.15080  0.36930  0.99510  Biso   1.000  H
  H72      1.0000 0.84920  0.36930  0.50490  Biso   1.000  H
  C57      1.0000 0.43506  0.66910  0.92082  Biso   1.000  C
  C58      1.0000 0.56494  0.66910  0.57918  Biso   1.000  C
  C59      1.0000 0.93506  0.16910  0.92082  Biso   1.000  C
  C60      1.0000 0.06494  0.16910  0.57918  Biso   1.000  C
  C61      1.0000 0.56494  0.33090  0.07918  Biso   1.000  C
  C62      1.0000 0.43506  0.33090  0.42082  Biso   1.000  C
  C63      1.0000 0.06494  0.83090  0.07918  Biso   1.000  C
  C64      1.0000 0.93506  0.83090  0.42082  Biso   1.000  C
  H73      1.0000 0.47300  0.62680  0.93980  Biso   1.000  H
  H74      1.0000 0.52700  0.62680  0.56020  Biso   1.000  H
  H75      1.0000 0.97300  0.12680  0.93980  Biso   1.000  H
  H76      1.0000 0.02700  0.12680  0.56020  Biso   1.000  H
  H77      1.0000 0.52700  0.37320  0.06020  Biso   1.000  H
  H78      1.0000 0.47300  0.37320  0.43980  Biso   1.000  H
  H79      1.0000 0.02700  0.87320  0.06020  Biso   1.000  H
  H80      1.0000 0.97300  0.87320  0.43980  Biso   1.000  H
  C65      1.0000 0.28305  0.12770  0.91886  Biso   1.000  C
  C66      1.0000 0.71695  0.12770  0.58114  Biso   1.000  C
  C67      1.0000 0.78305  0.62770  0.91886  Biso   1.000  C
  C68      1.0000 0.21695  0.62770  0.58114  Biso   1.000  C
  C69      1.0000 0.71695  0.87230  0.08114  Biso   1.000  C
  C70      1.0000 0.28305  0.87230  0.41886  Biso   1.000  C
  C71      1.0000 0.21695  0.37230  0.08114  Biso   1.000  C
  C72      1.0000 0.78305  0.37230  0.41886  Biso   1.000  C
  H81      1.0000 0.27490  0.21370  0.93810  Biso   1.000  H
  H82      1.0000 0.72510  0.21370  0.56190  Biso   1.000  H
  H83      1.0000 0.77490  0.71370  0.93810  Biso   1.000  H
  H84      1.0000 0.22510  0.71370  0.56190  Biso   1.000  H
  H85      1.0000 0.72510  0.78630  0.06190  Biso   1.000  H
  H86      1.0000 0.27490  0.78630  0.43810  Biso   1.000  H
  H87      1.0000 0.22510  0.28630  0.06190  Biso   1.000  H
  H88      1.0000 0.77490  0.28630  0.43810  Biso   1.000  H
  C73      1.0000 0.44036  0.45600  0.86450  Biso   1.000  C
  C74      1.0000 0.55964  0.45600  0.63550  Biso   1.000  C
  C75      1.0000 0.94036  0.95600  0.86450  Biso   1.000  C
  C76      1.0000 0.05964  0.95600  0.63550  Biso   1.000  C
  C77      1.0000 0.55964  0.54400  0.13550  Biso   1.000  C
  C78      1.0000 0.44036  0.54400  0.36450  Biso   1.000  C
  C79      1.0000 0.05964  0.04400  0.13550  Biso   1.000  C
  C80      1.0000 0.94036  0.04400  0.36450  Biso   1.000  C
  C81      1.0000 0.41741  0.29870  0.88324  Biso   1.000  C
  C82      1.0000 0.58259  0.29870  0.61676  Biso   1.000  C
  C83      1.0000 0.91741  0.79870  0.88324  Biso   1.000  C
  C84      1.0000 0.08259  0.79870  0.61676  Biso   1.000  C
  C85      1.0000 0.58259  0.70130  0.11676  Biso   1.000  C
  C86      1.0000 0.41741  0.70130  0.38324  Biso   1.000  C
  C87      1.0000 0.08259  0.20130  0.11676  Biso   1.000  C
  C88      1.0000 0.91741  0.20130  0.38324  Biso   1.000  C
  H89      1.0000 0.43120  0.19830  0.87000  Biso   1.000  H
  H90      1.0000 0.56880  0.19830  0.63000  Biso   1.000  H
  H91      1.0000 0.93120  0.69830  0.87000  Biso   1.000  H
  H92      1.0000 0.06880  0.69830  0.63000  Biso   1.000  H
  H93      1.0000 0.56880  0.80170  0.13000  Biso   1.000  H
  H94      1.0000 0.43120  0.80170  0.37000  Biso   1.000  H
  H95      1.0000 0.06880  0.30170  0.13000  Biso   1.000  H
  H96      1.0000 0.93120  0.30170  0.37000  Biso   1.000  H
  H97      1.0000 0.37260  0.29880  0.87250  Biso   1.000  H
  H98      1.0000 0.62740  0.29880  0.62750  Biso   1.000  H
  H99      1.0000 0.87260  0.79880  0.87250  Biso   1.000  H
  H100     1.0000 0.12740  0.79880  0.62750  Biso   1.000  H
  H101     1.0000 0.62740  0.70120  0.12750  Biso   1.000  H
  H102     1.0000 0.37260  0.70120  0.37250  Biso   1.000  H
  H103     1.0000 0.12740  0.20120  0.12750  Biso   1.000  H
  H104     1.0000 0.87260  0.20120  0.37250  Biso   1.000  H
  C89      1.0000 0.50994  0.45870  0.88150  Biso   1.000  C
  C90      1.0000 0.49006  0.45870  0.61850  Biso   1.000  C
  C91      1.0000 0.00994  0.95870  0.88150  Biso   1.000  C
  C92      1.0000 0.99006  0.95870  0.61850  Biso   1.000  C
  C93      1.0000 0.49006  0.54130  0.11850  Biso   1.000  C
  C94      1.0000 0.50994  0.54130  0.38150  Biso   1.000  C
  C95      1.0000 0.99006  0.04130  0.11850  Biso   1.000  C
  C96      1.0000 0.00994  0.04130  0.38150  Biso   1.000  C
  H105     1.0000 0.52550  0.36800  0.86580  Biso   1.000  H
  H106     1.0000 0.47450  0.36800  0.63420  Biso   1.000  H
  H107     1.0000 0.02550  0.86800  0.86580  Biso   1.000  H
  H108     1.0000 0.97450  0.86800  0.63420  Biso   1.000  H
  H109     1.0000 0.47450  0.63200  0.13420  Biso   1.000  H
  H110     1.0000 0.52550  0.63200  0.36580  Biso   1.000  H
  H111     1.0000 0.97450  0.13200  0.13420  Biso   1.000  H
  H112     1.0000 0.02550  0.13200  0.36580  Biso   1.000  H
  H113     1.0000 0.52490  0.43910  0.91610  Biso   1.000  H
  H114     1.0000 0.47510  0.43910  0.58390  Biso   1.000  H
  H115     1.0000 0.02490  0.93910  0.91610  Biso   1.000  H
  H116     1.0000 0.97510  0.93910  0.58390  Biso   1.000  H
  H117     1.0000 0.47510  0.56090  0.08390  Biso   1.000  H
  H118     1.0000 0.52490  0.56090  0.41610  Biso   1.000  H
  H119     1.0000 0.97510  0.06090  0.08390  Biso   1.000  H
  H120     1.0000 0.02490  0.06090  0.41610  Biso   1.000  H
  C97      1.0000 0.41731  0.45470  0.81006  Biso   1.000  C
  C98      1.0000 0.58269  0.45470  0.68994  Biso   1.000  C
  C99      1.0000 0.91731  0.95470  0.81006  Biso   1.000  C
  C100     1.0000 0.08269  0.95470  0.68994  Biso   1.000  C
  C101     1.0000 0.58269  0.54530  0.18994  Biso   1.000  C
  C102     1.0000 0.41731  0.54530  0.31006  Biso   1.000  C
  C103     1.0000 0.08269  0.04530  0.18994  Biso   1.000  C
  C104     1.0000 0.91731  0.04530  0.31006  Biso   1.000  C
  H121     1.0000 0.42270  0.34200  0.79820  Biso   1.000  H
  H122     1.0000 0.57730  0.34200  0.70180  Biso   1.000  H
  H123     1.0000 0.92270  0.84200  0.79820  Biso   1.000  H
  H124     1.0000 0.07730  0.84200  0.70180  Biso   1.000  H
  H125     1.0000 0.57730  0.65800  0.20180  Biso   1.000  H
  H126     1.0000 0.42270  0.65800  0.29820  Biso   1.000  H
  H127     1.0000 0.07730  0.15800  0.20180  Biso   1.000  H
  H128     1.0000 0.92270  0.15800  0.29820  Biso   1.000  H
  H129     1.0000 0.44100  0.53510  0.79750  Biso   1.000  H
  H130     1.0000 0.55900  0.53510  0.70250  Biso   1.000  H
  H131     1.0000 0.94100  0.03510  0.79750  Biso   1.000  H
  H132     1.0000 0.05900  0.03510  0.70250  Biso   1.000  H
  H133     1.0000 0.55900  0.46490  0.20250  Biso   1.000  H
  H134     1.0000 0.44100  0.46490  0.29750  Biso   1.000  H
  H135     1.0000 0.05900  0.96490  0.20250  Biso   1.000  H
  H136     1.0000 0.94100  0.96490  0.29750  Biso   1.000  H
  C105     1.0000 0.20019  0.24640  0.85618  Biso   1.000  C
  C106     1.0000 0.79981  0.24640  0.64382  Biso   1.000  C
  C107     1.0000 0.70019  0.74640  0.85618  Biso   1.000  C
  C108     1.0000 0.29981  0.74640  0.64382  Biso   1.000  C
  C109     1.0000 0.79981  0.75360  0.14382  Biso   1.000  C
  C110     1.0000 0.20019  0.75360  0.35618  Biso   1.000  C
  C111     1.0000 0.29981  0.25360  0.14382  Biso   1.000  C
  C112     1.0000 0.70019  0.25360  0.35618  Biso   1.000  C
  C113     1.0000 0.15273  0.15710  0.81549  Biso   1.000  C
  C114     1.0000 0.84727  0.15710  0.68451  Biso   1.000  C
  C115     1.0000 0.65273  0.65710  0.81549  Biso   1.000  C
  C116     1.0000 0.34727  0.65710  0.68451  Biso   1.000  C
  C117     1.0000 0.84727  0.84290  0.18451  Biso   1.000  C
  C118     1.0000 0.15273  0.84290  0.31549  Biso   1.000  C
  C119     1.0000 0.34727  0.34290  0.18451  Biso   1.000  C
  C120     1.0000 0.65273  0.34290  0.31549  Biso   1.000  C
  H137     1.0000 0.12680  0.24100  0.79410  Biso   1.000  H
  H138     1.0000 0.87320  0.24100  0.70590  Biso   1.000  H
  H139     1.0000 0.62680  0.74100  0.79410  Biso   1.000  H
  H140     1.0000 0.37320  0.74100  0.70590  Biso   1.000  H
  H141     1.0000 0.87320  0.75900  0.20590  Biso   1.000  H
  H142     1.0000 0.12680  0.75900  0.29410  Biso   1.000  H
  H143     1.0000 0.37320  0.25900  0.20590  Biso   1.000  H
  H144     1.0000 0.62680  0.25900  0.29410  Biso   1.000  H
  H145     1.0000 0.12660  0.08640  0.82840  Biso   1.000  H
  H146     1.0000 0.87340  0.08640  0.67160  Biso   1.000  H
  H147     1.0000 0.62660  0.58640  0.82840  Biso   1.000  H
  H148     1.0000 0.37340  0.58640  0.67160  Biso   1.000  H
  H149     1.0000 0.87340  0.91360  0.17160  Biso   1.000  H
  H150     1.0000 0.12660  0.91360  0.32840  Biso   1.000  H
  H151     1.0000 0.37340  0.41360  0.17160  Biso   1.000  H
  H152     1.0000 0.62660  0.41360  0.32840  Biso   1.000  H
  C121     1.0000 0.22765  0.39060  0.83562  Biso   1.000  C
  C122     1.0000 0.77235  0.39060  0.66438  Biso   1.000  C
  C123     1.0000 0.72765  0.89060  0.83562  Biso   1.000  C
  C124     1.0000 0.27235  0.89060  0.66438  Biso   1.000  C
  C125     1.0000 0.77235  0.60940  0.16438  Biso   1.000  C
  C126     1.0000 0.22765  0.60940  0.33562  Biso   1.000  C
  C127     1.0000 0.27235  0.10940  0.16438  Biso   1.000  C
  C128     1.0000 0.72765  0.10940  0.33562  Biso   1.000  C
  H153     1.0000 0.19600  0.47650  0.82320  Biso   1.000  H
  H154     1.0000 0.80400  0.47650  0.67680  Biso   1.000  H
  H155     1.0000 0.69600  0.97650  0.82320  Biso   1.000  H
  H156     1.0000 0.30400  0.97650  0.67680  Biso   1.000  H
  H157     1.0000 0.80400  0.52350  0.17680  Biso   1.000  H
  H158     1.0000 0.19600  0.52350  0.32320  Biso   1.000  H
  H159     1.0000 0.30400  0.02350  0.17680  Biso   1.000  H
  H160     1.0000 0.69600  0.02350  0.32320  Biso   1.000  H
  H161     1.0000 0.23990  0.34770  0.80860  Biso   1.000  H
  H162     1.0000 0.76010  0.34770  0.69140  Biso   1.000  H
  H163     1.0000 0.73990  0.84770  0.80860  Biso   1.000  H
  H164     1.0000 0.26010  0.84770  0.69140  Biso   1.000  H
  H165     1.0000 0.76010  0.65230  0.19140  Biso   1.000  H
  H166     1.0000 0.23990  0.65230  0.30860  Biso   1.000  H
  H167     1.0000 0.26010  0.15230  0.19140  Biso   1.000  H
  H168     1.0000 0.73990  0.15230  0.30860  Biso   1.000  H
  C129     1.0000 0.17133  0.31420  0.89236  Biso   1.000  C
  C130     1.0000 0.82867  0.31420  0.60764  Biso   1.000  C
  C131     1.0000 0.67133  0.81420  0.89236  Biso   1.000  C
  C132     1.0000 0.32867  0.81420  0.60764  Biso   1.000  C
  C133     1.0000 0.82867  0.68580  0.10764  Biso   1.000  C
  C134     1.0000 0.17133  0.68580  0.39236  Biso   1.000  C
  C135     1.0000 0.32867  0.18580  0.10764  Biso   1.000  C
  C136     1.0000 0.67133  0.18580  0.39236  Biso   1.000  C
  H169     1.0000 0.13790  0.39050  0.87590  Biso   1.000  H
  H170     1.0000 0.86210  0.39050  0.62410  Biso   1.000  H
  H171     1.0000 0.63790  0.89050  0.87590  Biso   1.000  H
  H172     1.0000 0.36210  0.89050  0.62410  Biso   1.000  H
  H173     1.0000 0.86210  0.60950  0.12410  Biso   1.000  H
  H174     1.0000 0.13790  0.60950  0.37590  Biso   1.000  H
  H175     1.0000 0.36210  0.10950  0.12410  Biso   1.000  H
  H176     1.0000 0.63790  0.10950  0.37590  Biso   1.000  H
  H177     1.0000 0.20200  0.38090  0.91620  Biso   1.000  H
  H178     1.0000 0.79800  0.38090  0.58380  Biso   1.000  H
  H179     1.0000 0.70200  0.88090  0.91620  Biso   1.000  H
  H180     1.0000 0.29800  0.88090  0.58380  Biso   1.000  H
  H181     1.0000 0.79800  0.61910  0.08380  Biso   1.000  H
  H182     1.0000 0.20200  0.61910  0.41620  Biso   1.000  H
  H183     1.0000 0.29800  0.11910  0.08380  Biso   1.000  H
  H184     1.0000 0.70200  0.11910  0.41620  Biso   1.000  H
