data_image0
_cell_length_a       7.4533
_cell_length_b       7.4752
_cell_length_c       7.627
_cell_angle_alpha    88.7823
_cell_angle_beta     62.9361
_cell_angle_gamma    65.4102

_symmetry_space_group_name_H-M    "P 1"
_symmetry_int_tables_number       1

loop_
  _symmetry_equiv_pos_as_xyz
  'x, y, z'

loop_
  _atom_site_label
  _atom_site_occupancy
  _atom_site_fract_x
  _atom_site_fract_y
  _atom_site_fract_z
  _atom_site_thermal_displace_type
  _atom_site_B_iso_or_equiv
  _atom_site_type_symbol
  Cu1      1.0000 0.27340  0.37580  0.39150  Biso   1.000  Cu
  Cu2      1.0000 0.72660  0.62420  0.60850  Biso   1.000  Cu
  V1       1.0000 0.12810  0.74570  0.74830  Biso   1.000  V
  V2       1.0000 0.87190  0.25430  0.25170  Biso   1.000  V
  V3       1.0000 0.95850  0.23080  0.77250  Biso   1.000  V
  V4       1.0000 0.04150  0.76920  0.22750  Biso   1.000  V
  O1       1.0000 0.61230  0.28720  0.36710  Biso   1.000  O
  O2       1.0000 0.38770  0.71280  0.63290  Biso   1.000  O
  O3       1.0000 0.26310  0.58330  0.22920  Biso   1.000  O
  O4       1.0000 0.73690  0.41670  0.77080  Biso   1.000  O
  O5       1.0000 0.20220  0.19970  0.57910  Biso   1.000  O
  O6       1.0000 0.79780  0.80030  0.42090  Biso   1.000  O
  O7       1.0000 0.09410  0.58890  0.62640  Biso   1.000  O
  O8       1.0000 0.90590  0.41110  0.37360  Biso   1.000  O
  O9       1.0000 0.93990  0.00120  0.76550  Biso   1.000  O
  O10      1.0000 0.06010  0.99880  0.23450  Biso   1.000  O
  O11      1.0000 0.95270  0.29210  0.00030  Biso   1.000  O
  O12      1.0000 0.04730  0.70790  0.99970  Biso   1.000  O
  C1       1.0000 0.50260  0.96290  0.17190  Biso   1.000  C
  C2       1.0000 0.49740  0.03710  0.82810  Biso   1.000  C
  C3       1.0000 0.41400  0.19410  0.98350  Biso   1.000  C
  C4       1.0000 0.58600  0.80590  0.01650  Biso   1.000  C
  N1       1.0000 0.41810  0.15470  0.15520  Biso   1.000  N
  N2       1.0000 0.58190  0.84530  0.84480  Biso   1.000  N
  H1       1.0000 0.49800  0.94100  0.29100  Biso   1.000  H
  H2       1.0000 0.50200  0.05900  0.70900  Biso   1.000  H
  H3       1.0000 0.35200  0.32800  0.97300  Biso   1.000  H
  H4       1.0000 0.64800  0.67200  0.02700  Biso   1.000  H
