data_image0
_cell_length_a       7.5692
_cell_length_b       7.817
_cell_length_c       8.422
_cell_angle_alpha    62.998
_cell_angle_beta     64.744
_cell_angle_gamma    66.963

_symmetry_space_group_name_H-M    "P 1"
_symmetry_int_tables_number       1

loop_
  _symmetry_equiv_pos_as_xyz
  'x, y, z'

loop_
  _atom_site_label
  _atom_site_occupancy
  _atom_site_fract_x
  _atom_site_fract_y
  _atom_site_fract_z
  _atom_site_thermal_displace_type
  _atom_site_B_iso_or_equiv
  _atom_site_type_symbol
  Cu1      1.0000 0.50000  0.50000  0.00000  Biso   1.000  Cu
  Cu2      1.0000 0.31830  0.64240  0.67670  Biso   1.000  Cu
  Cu3      1.0000 0.68170  0.35760  0.32330  Biso   1.000  Cu
  V1       1.0000 0.39490  0.97770  0.77230  Biso   1.000  V
  V2       1.0000 0.60510  0.02230  0.22770  Biso   1.000  V
  V3       1.0000 0.18680  0.17600  0.11750  Biso   1.000  V
  V4       1.0000 0.81320  0.82400  0.88250  Biso   1.000  V
  O1       1.0000 0.37970  0.74190  0.82010  Biso   1.000  O
  O2       1.0000 0.62030  0.25810  0.17990  Biso   1.000  O
  O3       1.0000 0.64290  0.97330  0.74470  Biso   1.000  O
  O4       1.0000 0.35710  0.02670  0.25530  Biso   1.000  O
  O5       1.0000 0.33520  0.13170  0.58740  Biso   1.000  O
  O6       1.0000 0.66480  0.86830  0.41260  Biso   1.000  O
  O7       1.0000 0.22350  0.06120  0.96080  Biso   1.000  O
  O8       1.0000 0.77650  0.93880  0.03920  Biso   1.000  O
  O9       1.0000 0.04880  0.80140  0.74030  Biso   1.000  O
  O10      1.0000 0.95120  0.19860  0.25970  Biso   1.000  O
  O11      1.0000 0.24000  0.39210  0.99710  Biso   1.000  O
  O12      1.0000 0.76000  0.60790  0.00290  Biso   1.000  O
  C1       1.0000 0.13500  0.67850  0.26690  Biso   1.000  C
  C2       1.0000 0.86500  0.32150  0.73310  Biso   1.000  C
  C3       1.0000 0.09730  0.70020  0.43240  Biso   1.000  C
  C4       1.0000 0.90270  0.29980  0.56760  Biso   1.000  C
  N1       1.0000 0.32750  0.57940  0.21750  Biso   1.000  N
  N2       1.0000 0.67250  0.42060  0.78250  Biso   1.000  N
  N3       1.0000 0.40850  0.53740  0.34770  Biso   1.000  N
  N4       1.0000 0.59150  0.46260  0.65230  Biso   1.000  N
  N5       1.0000 0.26830  0.61120  0.48080  Biso   1.000  N
  N6       1.0000 0.73170  0.38880  0.51920  Biso   1.000  N
  H1       1.0000 0.05100  0.72300  0.18500  Biso   1.000  H
  H2       1.0000 0.94900  0.27700  0.81500  Biso   1.000  H
  H3       1.0000 0.98600  0.77400  0.49000  Biso   1.000  H
  H4       1.0000 0.01400  0.22600  0.51000  Biso   1.000  H
