data_image0
_cell_length_a       7.4515
_cell_length_b       7.4727
_cell_length_c       7.6274
_cell_angle_alpha    88.775
_cell_angle_beta     62.957
_cell_angle_gamma    65.404

_symmetry_space_group_name_H-M    "P 1"
_symmetry_int_tables_number       1

loop_
  _symmetry_equiv_pos_as_xyz
  'x, y, z'

loop_
  _atom_site_label
  _atom_site_occupancy
  _atom_site_fract_x
  _atom_site_fract_y
  _atom_site_fract_z
  _atom_site_thermal_displace_type
  _atom_site_B_iso_or_equiv
  _atom_site_type_symbol
  Cu1      1.0000 0.27350  0.37590  0.39140  Biso   1.000  Cu
  Cu2      1.0000 0.72650  0.62410  0.60860  Biso   1.000  Cu
  V1       1.0000 0.04160  0.76910  0.22760  Biso   1.000  V
  V2       1.0000 0.95840  0.23090  0.77240  Biso   1.000  V
  V3       1.0000 0.87180  0.25410  0.25160  Biso   1.000  V
  V4       1.0000 0.12820  0.74590  0.74840  Biso   1.000  V
  O1       1.0000 0.61250  0.28730  0.36730  Biso   1.000  O
  O2       1.0000 0.38750  0.71270  0.63270  Biso   1.000  O
  O3       1.0000 0.26300  0.58350  0.22940  Biso   1.000  O
  O4       1.0000 0.73700  0.41650  0.77060  Biso   1.000  O
  O5       1.0000 0.20220  0.19970  0.57910  Biso   1.000  O
  O6       1.0000 0.79780  0.80030  0.42090  Biso   1.000  O
  O7       1.0000 0.09410  0.58890  0.62640  Biso   1.000  O
  O8       1.0000 0.90590  0.41110  0.37360  Biso   1.000  O
  O9       1.0000 0.06020  0.99880  0.23450  Biso   1.000  O
  O10      1.0000 0.93980  0.00120  0.76550  Biso   1.000  O
  O11      1.0000 0.04750  0.70800  0.99970  Biso   1.000  O
  O12      1.0000 0.95250  0.29200  0.00030  Biso   1.000  O
  C1       1.0000 0.50260  0.96290  0.17180  Biso   1.000  C
  C2       1.0000 0.49740  0.03710  0.82820  Biso   1.000  C
  C3       1.0000 0.58600  0.80590  0.01630  Biso   1.000  C
  C4       1.0000 0.41400  0.19410  0.98370  Biso   1.000  C
  N1       1.0000 0.41830  0.15460  0.15520  Biso   1.000  N
  N2       1.0000 0.58170  0.84540  0.84480  Biso   1.000  N
  H1       1.0000 0.49800  0.94100  0.29100  Biso   1.000  H
  H2       1.0000 0.50200  0.05900  0.70900  Biso   1.000  H
  H3       1.0000 0.64800  0.67200  0.02700  Biso   1.000  H
  H4       1.0000 0.35200  0.32800  0.97300  Biso   1.000  H
