data_image0
_cell_length_a       9.542
_cell_length_b       11.0396
_cell_length_c       12.7663
_cell_angle_alpha    72.948
_cell_angle_beta     88.866
_cell_angle_gamma    70.439

_symmetry_space_group_name_H-M    "P 1"
_symmetry_int_tables_number       1

loop_
  _symmetry_equiv_pos_as_xyz
  'x, y, z'

loop_
  _atom_site_label
  _atom_site_occupancy
  _atom_site_fract_x
  _atom_site_fract_y
  _atom_site_fract_z
  _atom_site_thermal_displace_type
  _atom_site_B_iso_or_equiv
  _atom_site_type_symbol
  Cu1      1.0000 0.60010  0.50220  0.60850  Biso   1.000  Cu
  Cu2      1.0000 0.39990  0.49780  0.39150  Biso   1.000  Cu
  V1       1.0000 0.76390  0.58870  0.38410  Biso   1.000  V
  V2       1.0000 0.23610  0.41130  0.61590  Biso   1.000  V
  V3       1.0000 0.88490  0.65910  0.57700  Biso   1.000  V
  V4       1.0000 0.11510  0.34090  0.42300  Biso   1.000  V
  O1       1.0000 0.91770  0.43670  0.40500  Biso   1.000  O
  O2       1.0000 0.08230  0.56330  0.59500  Biso   1.000  O
  O3       1.0000 0.71120  0.65540  0.25430  Biso   1.000  O
  O4       1.0000 0.28880  0.34460  0.74570  Biso   1.000  O
  O5       1.0000 0.81380  0.70580  0.43320  Biso   1.000  O
  O6       1.0000 0.18620  0.29420  0.56680  Biso   1.000  O
  O7       1.0000 0.85770  0.79460  0.61150  Biso   1.000  O
  O8       1.0000 0.14230  0.20540  0.38850  Biso   1.000  O
  O9       1.0000 0.62020  0.55160  0.45230  Biso   1.000  O
  O10      1.0000 0.37980  0.44840  0.54770  Biso   1.000  O
  O11      1.0000 0.79170  0.56910  0.65190  Biso   1.000  O
  O12      1.0000 0.20830  0.43090  0.34810  Biso   1.000  O
  O13      1.0000 0.64590  0.73640  0.79660  Biso   1.000  O
  O14      1.0000 0.35410  0.26360  0.20340  Biso   1.000  O
  C1       1.0000 0.44610  0.79940  0.54050  Biso   1.000  C
  C2       1.0000 0.55390  0.20060  0.45950  Biso   1.000  C
  C3       1.0000 0.35630  0.92140  0.55260  Biso   1.000  C
  C4       1.0000 0.64370  0.07860  0.44740  Biso   1.000  C
  C5       1.0000 0.28120  0.91980  0.64630  Biso   1.000  C
  C6       1.0000 0.71880  0.08020  0.35370  Biso   1.000  C
  C7       1.0000 0.29980  0.79730  0.72660  Biso   1.000  C
  C8       1.0000 0.70020  0.20270  0.27340  Biso   1.000  C
  C9       1.0000 0.39070  0.67880  0.70960  Biso   1.000  C
  C10      1.0000 0.60930  0.32120  0.29040  Biso   1.000  C
  C11      1.0000 0.42980  0.54080  0.78920  Biso   1.000  C
  C12      1.0000 0.57020  0.45920  0.21080  Biso   1.000  C
  C13      1.0000 0.37250  0.49450  0.88920  Biso   1.000  C
  C14      1.0000 0.62750  0.50550  0.11080  Biso   1.000  C
  C15      1.0000 0.23120  0.56770  0.92920  Biso   1.000  C
  C16      1.0000 0.76880  0.43230  0.07080  Biso   1.000  C
  C17      1.0000 0.09990  0.62630  0.86010  Biso   1.000  C
  C18      1.0000 0.90010  0.37370  0.13990  Biso   1.000  C
  C19      1.0000 0.96650  0.67710  0.90530  Biso   1.000  C
  C20      1.0000 0.03350  0.32290  0.09470  Biso   1.000  C
  C21      1.0000 0.97130  0.67000  0.01490  Biso   1.000  C
  C22      1.0000 0.02870  0.33000  0.98510  Biso   1.000  C
  C23      1.0000 0.10820  0.61210  0.07680  Biso   1.000  C
  C24      1.0000 0.89180  0.38790  0.92320  Biso   1.000  C
  C25      1.0000 0.55790  0.28410  0.92490  Biso   1.000  C
  C26      1.0000 0.44210  0.71590  0.07510  Biso   1.000  C
  C27      1.0000 0.63690  0.15290  0.00990  Biso   1.000  C
  C28      1.0000 0.36310  0.84710  0.99010  Biso   1.000  C
  C29      1.0000 0.55680  0.08520  0.08040  Biso   1.000  C
  C30      1.0000 0.44320  0.91480  0.91960  Biso   1.000  C
  C31      1.0000 0.63430  0.96290  0.15710  Biso   1.000  C
  C32      1.0000 0.36570  0.03710  0.84290  Biso   1.000  C
  C33      1.0000 0.78790  0.91600  0.16160  Biso   1.000  C
  C34      1.0000 0.21210  0.08400  0.83840  Biso   1.000  C
  C35      1.0000 0.85860  0.99060  0.08950  Biso   1.000  C
  C36      1.0000 0.14140  0.00940  0.91050  Biso   1.000  C
  C37      1.0000 0.59660  0.31960  0.81630  Biso   1.000  C
  C38      1.0000 0.40340  0.68040  0.18370  Biso   1.000  C
  C39      1.0000 0.69240  0.23290  0.75390  Biso   1.000  C
  C40      1.0000 0.30760  0.76710  0.24610  Biso   1.000  C
  C41      1.0000 0.74050  0.09320  0.78620  Biso   1.000  C
  C42      1.0000 0.25950  0.90680  0.21380  Biso   1.000  C
  C43      1.0000 0.83050  0.02540  0.71970  Biso   1.000  C
  C44      1.0000 0.16950  0.97460  0.28030  Biso   1.000  C
  C45      1.0000 0.86980  0.09780  0.62380  Biso   1.000  C
  C46      1.0000 0.13020  0.90220  0.37620  Biso   1.000  C
  C47      1.0000 0.81200  0.23750  0.59290  Biso   1.000  C
  C48      1.0000 0.18800  0.76250  0.40710  Biso   1.000  C
  N1       1.0000 0.46150  0.68110  0.61560  Biso   1.000  N
  N2       1.0000 0.53850  0.31890  0.38440  Biso   1.000  N
  N3       1.0000 0.53810  0.44880  0.75630  Biso   1.000  N
  N4       1.0000 0.46190  0.55120  0.24370  Biso   1.000  N
  N5       1.0000 0.72240  0.30410  0.65570  Biso   1.000  N
  N6       1.0000 0.27760  0.69590  0.34430  Biso   1.000  N
  N7       1.0000 0.44380  0.36950  0.95730  Biso   1.000  N
  N8       1.0000 0.55620  0.63050  0.04270  Biso   1.000  N
  N9       1.0000 0.78670  0.10810  0.01290  Biso   1.000  N
  N10      1.0000 0.21330  0.89190  0.98710  Biso   1.000  N
  N11      1.0000 0.23720  0.55960  0.03620  Biso   1.000  N
  N12      1.0000 0.76280  0.44040  0.96380  Biso   1.000  N
  H1       1.0000 0.50000  0.79200  0.48400  Biso   1.000  H
  H2       1.0000 0.50000  0.20800  0.51600  Biso   1.000  H
  H3       1.0000 0.33900  0.00600  0.49700  Biso   1.000  H
  H4       1.0000 0.66100  0.99400  0.50300  Biso   1.000  H
  H5       1.0000 0.21500  0.99700  0.66100  Biso   1.000  H
  H6       1.0000 0.78500  0.00300  0.33900  Biso   1.000  H
  H7       1.0000 0.25000  0.79700  0.79300  Biso   1.000  H
  H8       1.0000 0.75000  0.20300  0.20700  Biso   1.000  H
  H9       1.0000 0.09700  0.62600  0.79000  Biso   1.000  H
  H10      1.0000 0.90300  0.37400  0.21000  Biso   1.000  H
  H11      1.0000 0.87000  0.71000  0.86400  Biso   1.000  H
  H12      1.0000 0.13000  0.29000  0.13600  Biso   1.000  H
  H13      1.0000 0.87800  0.70400  0.04400  Biso   1.000  H
  H14      1.0000 0.12200  0.29600  0.95600  Biso   1.000  H
  H15      1.0000 0.11600  0.60400  0.15800  Biso   1.000  H
  H16      1.0000 0.88400  0.39600  0.84200  Biso   1.000  H
  H17      1.0000 0.45200  0.12200  0.07600  Biso   1.000  H
  H18      1.0000 0.54800  0.87800  0.92400  Biso   1.000  H
  H19      1.0000 0.58800  0.91500  0.20000  Biso   1.000  H
  H20      1.0000 0.41200  0.08500  0.80000  Biso   1.000  H
  H21      1.0000 0.83500  0.85200  0.20200  Biso   1.000  H
  H22      1.0000 0.16500  0.14800  0.79800  Biso   1.000  H
  H23      1.0000 0.94300  0.96700  0.09700  Biso   1.000  H
  H24      1.0000 0.05700  0.03300  0.90300  Biso   1.000  H
  H25      1.0000 0.71300  0.04300  0.85500  Biso   1.000  H
  H26      1.0000 0.28700  0.95700  0.14500  Biso   1.000  H
  H27      1.0000 0.86700  0.93200  0.73700  Biso   1.000  H
  H28      1.0000 0.13300  0.06800  0.26300  Biso   1.000  H
  H29      1.0000 0.93400  0.05500  0.57200  Biso   1.000  H
  H30      1.0000 0.06600  0.94500  0.42800  Biso   1.000  H
  H31      1.0000 0.83200  0.29000  0.52700  Biso   1.000  H
  H32      1.0000 0.16800  0.71000  0.47300  Biso   1.000  H
