data_image0
_cell_length_a       6.509
_cell_length_b       8.311
_cell_length_c       18.923
_cell_angle_alpha    90
_cell_angle_beta     94.98
_cell_angle_gamma    90

_symmetry_space_group_name_H-M    "P 1"
_symmetry_int_tables_number       1

loop_
  _symmetry_equiv_pos_as_xyz
  'x, y, z'

loop_
  _atom_site_label
  _atom_site_occupancy
  _atom_site_fract_x
  _atom_site_fract_y
  _atom_site_fract_z
  _atom_site_thermal_displace_type
  _atom_site_B_iso_or_equiv
  _atom_site_type_symbol
  Cu1      1.0000 0.27594  0.30610  0.20482  Biso   1.000  Cu
  Cu2      1.0000 0.27594  0.19390  0.70482  Biso   1.000  Cu
  Cu3      1.0000 0.72406  0.69390  0.79518  Biso   1.000  Cu
  Cu4      1.0000 0.72406  0.80610  0.29518  Biso   1.000  Cu
  Cl1      1.0000 0.54944  0.39453  0.27447  Biso   1.000  Cl
  Cl2      1.0000 0.54944  0.10547  0.77447  Biso   1.000  Cl
  Cl3      1.0000 0.45056  0.60547  0.72553  Biso   1.000  Cl
  Cl4      1.0000 0.45056  0.89453  0.22553  Biso   1.000  Cl
  O1       1.0000 0.05990  0.16770  0.14352  Biso   1.000  O
  O2       1.0000 0.05990  0.33230  0.64352  Biso   1.000  O
  O3       1.0000 0.94010  0.83230  0.85648  Biso   1.000  O
  O4       1.0000 0.94010  0.66770  0.35648  Biso   1.000  O
  O5       1.0000 0.16140  0.19420  0.28021  Biso   1.000  O
  O6       1.0000 0.16140  0.30580  0.78021  Biso   1.000  O
  O7       1.0000 0.83860  0.80580  0.71979  Biso   1.000  O
  O8       1.0000 0.83860  0.69420  0.21979  Biso   1.000  O
  O9       1.0000 0.95670  0.99670  0.30749  Biso   1.000  O
  O10      1.0000 0.95670  0.50330  0.80749  Biso   1.000  O
  O11      1.0000 0.04330  0.00330  0.69251  Biso   1.000  O
  O12      1.0000 0.04330  0.49670  0.19251  Biso   1.000  O
  O13      1.0000 0.56750  0.46030  0.11613  Biso   1.000  O
  O14      1.0000 0.56750  0.03970  0.61613  Biso   1.000  O
  O15      1.0000 0.43250  0.53970  0.88387  Biso   1.000  O
  O16      1.0000 0.43250  0.96030  0.38387  Biso   1.000  O
  H1       1.0000 0.60210  0.46370  0.15740  Biso   1.000  H
  H2       1.0000 0.60210  0.03630  0.65740  Biso   1.000  H
  H3       1.0000 0.39790  0.53630  0.84260  Biso   1.000  H
  H4       1.0000 0.39790  0.96370  0.34260  Biso   1.000  H
  N1       1.0000 0.38360  0.37480  0.11573  Biso   1.000  N
  N2       1.0000 0.38360  0.12520  0.61573  Biso   1.000  N
  N3       1.0000 0.61640  0.62520  0.88427  Biso   1.000  N
  N4       1.0000 0.61640  0.87480  0.38427  Biso   1.000  N
  C1       1.0000 0.98440  0.18930  0.07410  Biso   1.000  C
  C2       1.0000 0.98440  0.31070  0.57410  Biso   1.000  C
  C3       1.0000 0.01560  0.81070  0.92590  Biso   1.000  C
  C4       1.0000 0.01560  0.68930  0.42590  Biso   1.000  C
  C5       1.0000 0.10590  0.28270  0.03090  Biso   1.000  C
  C6       1.0000 0.10590  0.21730  0.53090  Biso   1.000  C
  C7       1.0000 0.89410  0.71730  0.96910  Biso   1.000  C
  C8       1.0000 0.89410  0.78270  0.46910  Biso   1.000  C
  C9       1.0000 0.03160  0.30290  0.95950  Biso   1.000  C
  C10      1.0000 0.03160  0.19710  0.45950  Biso   1.000  C
  C11      1.0000 0.96840  0.69710  0.04050  Biso   1.000  C
  C12      1.0000 0.96840  0.80290  0.54050  Biso   1.000  C
  H5       1.0000 0.11240  0.36360  0.92870  Biso   1.000  H
  H6       1.0000 0.11240  0.13640  0.42870  Biso   1.000  H
  H7       1.0000 0.88760  0.63640  0.07130  Biso   1.000  H
  H8       1.0000 0.88760  0.86360  0.57130  Biso   1.000  H
  C13      1.0000 0.84470  0.23980  0.93270  Biso   1.000  C
  C14      1.0000 0.84470  0.26020  0.43270  Biso   1.000  C
  C15      1.0000 0.15530  0.76020  0.06730  Biso   1.000  C
  C16      1.0000 0.15530  0.73980  0.56730  Biso   1.000  C
  H9       1.0000 0.82570  0.22020  0.88990  Biso   1.000  H
  H10      1.0000 0.82570  0.27980  0.38990  Biso   1.000  H
  H11      1.0000 0.17430  0.77980  0.11010  Biso   1.000  H
  H12      1.0000 0.17430  0.72020  0.61010  Biso   1.000  H
  C17      1.0000 0.73240  0.14850  0.97520  Biso   1.000  C
  C18      1.0000 0.73240  0.35150  0.47520  Biso   1.000  C
  C19      1.0000 0.26760  0.85150  0.02480  Biso   1.000  C
  C20      1.0000 0.26760  0.64850  0.52480  Biso   1.000  C
  H13      1.0000 0.60200  0.10520  0.95660  Biso   1.000  H
  H14      1.0000 0.60200  0.39480  0.45660  Biso   1.000  H
  H15      1.0000 0.39800  0.89480  0.04340  Biso   1.000  H
  H16      1.0000 0.39800  0.60520  0.54340  Biso   1.000  H
  C21      1.0000 0.80220  0.12320  0.04590  Biso   1.000  C
  C22      1.0000 0.80220  0.37680  0.54590  Biso   1.000  C
  C23      1.0000 0.19780  0.87680  0.95410  Biso   1.000  C
  C24      1.0000 0.19780  0.62320  0.45410  Biso   1.000  C
  H17      1.0000 0.72410  0.05590  0.07500  Biso   1.000  H
  H18      1.0000 0.72410  0.44410  0.57500  Biso   1.000  H
  H19      1.0000 0.27590  0.94410  0.92500  Biso   1.000  H
  H20      1.0000 0.27590  0.55590  0.42500  Biso   1.000  H
  C25      1.0000 0.29750  0.35880  0.05190  Biso   1.000  C
  C26      1.0000 0.29750  0.14120  0.55190  Biso   1.000  C
  C27      1.0000 0.70250  0.64120  0.94810  Biso   1.000  C
  C28      1.0000 0.70250  0.85880  0.44810  Biso   1.000  C
  H21      1.0000 0.37300  0.40070  0.01460  Biso   1.000  H
  H22      1.0000 0.37300  0.09930  0.51460  Biso   1.000  H
  H23      1.0000 0.62700  0.59930  0.98540  Biso   1.000  H
  H24      1.0000 0.62700  0.90070  0.48540  Biso   1.000  H
  C29      1.0000 0.93300  0.07630  0.18863  Biso   1.000  C
  C30      1.0000 0.93300  0.42370  0.68863  Biso   1.000  C
  C31      1.0000 0.06700  0.92370  0.81137  Biso   1.000  C
  C32      1.0000 0.06700  0.57630  0.31137  Biso   1.000  C
  H25      1.0000 0.92550  0.96580  0.17390  Biso   1.000  H
  H26      1.0000 0.92550  0.53420  0.67390  Biso   1.000  H
  H27      1.0000 0.07450  0.03420  0.82610  Biso   1.000  H
  H28      1.0000 0.07450  0.46580  0.32610  Biso   1.000  H
  H29      1.0000 0.79590  0.11980  0.18480  Biso   1.000  H
  H30      1.0000 0.79590  0.38020  0.68480  Biso   1.000  H
  H31      1.0000 0.20410  0.88020  0.81520  Biso   1.000  H
  H32      1.0000 0.20410  0.61980  0.31520  Biso   1.000  H
  C33      1.0000 0.02340  0.08840  0.26439  Biso   1.000  C
  C34      1.0000 0.02340  0.41160  0.76439  Biso   1.000  C
  C35      1.0000 0.97660  0.91160  0.73561  Biso   1.000  C
  C36      1.0000 0.97660  0.58840  0.23561  Biso   1.000  C
