data_image0
_cell_length_a       8.0304
_cell_length_b       13.8823
_cell_length_c       12.0812
_cell_angle_alpha    90
_cell_angle_beta     106.194
_cell_angle_gamma    90

_symmetry_space_group_name_H-M    "P 1"
_symmetry_int_tables_number       1

loop_
  _symmetry_equiv_pos_as_xyz
  'x, y, z'

loop_
  _atom_site_label
  _atom_site_occupancy
  _atom_site_fract_x
  _atom_site_fract_y
  _atom_site_fract_z
  _atom_site_thermal_displace_type
  _atom_site_B_iso_or_equiv
  _atom_site_type_symbol
  Cu1      1.0000 0.00000  0.00000  0.50000  Biso   1.000  Cu
  Cu2      1.0000 0.00000  0.50000  0.00000  Biso   1.000  Cu
  F1       1.0000 0.58590  0.15480  0.65310  Biso   1.000  F
  F2       1.0000 0.58590  0.34520  0.15310  Biso   1.000  F
  F3       1.0000 0.41410  0.84520  0.34690  Biso   1.000  F
  F4       1.0000 0.41410  0.65480  0.84690  Biso   1.000  F
  F5       1.0000 0.71360  0.25850  0.57610  Biso   1.000  F
  F6       1.0000 0.71360  0.24150  0.07610  Biso   1.000  F
  F7       1.0000 0.28640  0.74150  0.42390  Biso   1.000  F
  F8       1.0000 0.28640  0.75850  0.92390  Biso   1.000  F
  F9       1.0000 0.45280  0.21890  0.48860  Biso   1.000  F
  F10      1.0000 0.45280  0.28110  0.98860  Biso   1.000  F
  F11      1.0000 0.54720  0.78110  0.51140  Biso   1.000  F
  F12      1.0000 0.54720  0.71890  0.01140  Biso   1.000  F
  F13      1.0000 0.43830  0.08680  0.85100  Biso   1.000  F
  F14      1.0000 0.43830  0.41320  0.35100  Biso   1.000  F
  F15      1.0000 0.56170  0.91320  0.14900  Biso   1.000  F
  F16      1.0000 0.56170  0.58680  0.64900  Biso   1.000  F
  F17      1.0000 0.42020  0.93680  0.87630  Biso   1.000  F
  F18      1.0000 0.42020  0.56320  0.37630  Biso   1.000  F
  F19      1.0000 0.57980  0.06320  0.12370  Biso   1.000  F
  F20      1.0000 0.57980  0.43680  0.62370  Biso   1.000  F
  F21      1.0000 0.62740  0.99420  0.81200  Biso   1.000  F
  F22      1.0000 0.62740  0.50580  0.31200  Biso   1.000  F
  F23      1.0000 0.37260  0.00580  0.18800  Biso   1.000  F
  F24      1.0000 0.37260  0.49420  0.68800  Biso   1.000  F
  O1       1.0000 0.82459  0.07472  0.55462  Biso   1.000  O
  O2       1.0000 0.82459  0.42528  0.05462  Biso   1.000  O
  O3       1.0000 0.17541  0.92528  0.44538  Biso   1.000  O
  O4       1.0000 0.17541  0.57472  0.94538  Biso   1.000  O
  O5       1.0000 0.78159  0.96084  0.34489  Biso   1.000  O
  O6       1.0000 0.78159  0.53916  0.84489  Biso   1.000  O
  O7       1.0000 0.21841  0.03916  0.65511  Biso   1.000  O
  O8       1.0000 0.21841  0.46084  0.15511  Biso   1.000  O
  N1       1.0000 0.04310  0.11605  0.41018  Biso   1.000  N
  N2       1.0000 0.04310  0.38395  0.91018  Biso   1.000  N
  N3       1.0000 0.95690  0.88395  0.58982  Biso   1.000  N
  N4       1.0000 0.95690  0.61605  0.08982  Biso   1.000  N
  C1       1.0000 0.08570  0.10537  0.31091  Biso   1.000  C
  C2       1.0000 0.08570  0.39463  0.81091  Biso   1.000  C
  C3       1.0000 0.91430  0.89463  0.68909  Biso   1.000  C
  C4       1.0000 0.91430  0.60537  0.18909  Biso   1.000  C
  H1       1.0000 0.09570  0.04220  0.28320  Biso   1.000  H
  H2       1.0000 0.09570  0.45780  0.78320  Biso   1.000  H
  H3       1.0000 0.90430  0.95780  0.71680  Biso   1.000  H
  H4       1.0000 0.90430  0.54220  0.21680  Biso   1.000  H
  C5       1.0000 0.11550  0.18331  0.24777  Biso   1.000  C
  C6       1.0000 0.11550  0.31669  0.74777  Biso   1.000  C
  C7       1.0000 0.88450  0.81669  0.75223  Biso   1.000  C
  C8       1.0000 0.88450  0.68331  0.25223  Biso   1.000  C
  H5       1.0000 0.14700  0.17330  0.17850  Biso   1.000  H
  H6       1.0000 0.14700  0.32670  0.67850  Biso   1.000  H
  H7       1.0000 0.85300  0.82670  0.82150  Biso   1.000  H
  H8       1.0000 0.85300  0.67330  0.32150  Biso   1.000  H
  C9       1.0000 0.09910  0.27589  0.28589  Biso   1.000  C
  C10      1.0000 0.09910  0.22411  0.78589  Biso   1.000  C
  C11      1.0000 0.90090  0.72411  0.71411  Biso   1.000  C
  C12      1.0000 0.90090  0.77589  0.21411  Biso   1.000  C
  H9       1.0000 0.11900  0.33020  0.24350  Biso   1.000  H
  H10      1.0000 0.11900  0.16980  0.74350  Biso   1.000  H
  H11      1.0000 0.88100  0.66980  0.75650  Biso   1.000  H
  H12      1.0000 0.88100  0.83020  0.25650  Biso   1.000  H
  C13      1.0000 0.05270  0.28762  0.38818  Biso   1.000  C
  C14      1.0000 0.05270  0.21238  0.88818  Biso   1.000  C
  C15      1.0000 0.94730  0.71238  0.61182  Biso   1.000  C
  C16      1.0000 0.94730  0.78762  0.11182  Biso   1.000  C
  C17      1.0000 0.02740  0.20532  0.44784  Biso   1.000  C
  C18      1.0000 0.02740  0.29468  0.94784  Biso   1.000  C
  C19      1.0000 0.97260  0.79468  0.55216  Biso   1.000  C
  C20      1.0000 0.97260  0.70532  0.05216  Biso   1.000  C
  H13      1.0000 0.99780  0.21300  0.51820  Biso   1.000  H
  H14      1.0000 0.99780  0.28700  0.01820  Biso   1.000  H
  H15      1.0000 0.00220  0.78700  0.48180  Biso   1.000  H
  H16      1.0000 0.00220  0.71300  0.98180  Biso   1.000  H
  C21      1.0000 0.03090  0.38048  0.43398  Biso   1.000  C
  C22      1.0000 0.03090  0.11952  0.93398  Biso   1.000  C
  C23      1.0000 0.96910  0.61952  0.56602  Biso   1.000  C
  C24      1.0000 0.96910  0.88048  0.06602  Biso   1.000  C
  C25      1.0000 0.01120  0.45616  0.47584  Biso   1.000  C
  C26      1.0000 0.01120  0.04384  0.97584  Biso   1.000  C
  C27      1.0000 0.98880  0.54384  0.52416  Biso   1.000  C
  C28      1.0000 0.98880  0.95616  0.02416  Biso   1.000  C
  C29      1.0000 0.68060  0.10506  0.49281  Biso   1.000  C
  C30      1.0000 0.68060  0.39494  0.99281  Biso   1.000  C
  C31      1.0000 0.31940  0.89494  0.50719  Biso   1.000  C
  C32      1.0000 0.31940  0.60506  0.00719  Biso   1.000  C
  C33      1.0000 0.59080  0.08088  0.38130  Biso   1.000  C
  C34      1.0000 0.59080  0.41912  0.88130  Biso   1.000  C
  C35      1.0000 0.40920  0.91912  0.61870  Biso   1.000  C
  C36      1.0000 0.40920  0.58088  0.11870  Biso   1.000  C
  H17      1.0000 0.48380  0.11240  0.34700  Biso   1.000  H
  H18      1.0000 0.48380  0.38760  0.84700  Biso   1.000  H
  H19      1.0000 0.51620  0.88760  0.65300  Biso   1.000  H
  H20      1.0000 0.51620  0.61240  0.15300  Biso   1.000  H
  C37      1.0000 0.60380  0.18441  0.55210  Biso   1.000  C
  C38      1.0000 0.60380  0.31559  0.05210  Biso   1.000  C
  C39      1.0000 0.39620  0.81559  0.44790  Biso   1.000  C
  C40      1.0000 0.39620  0.68441  0.94790  Biso   1.000  C
  C41      1.0000 0.65040  0.01143  0.31550  Biso   1.000  C
  C42      1.0000 0.65040  0.48857  0.81550  Biso   1.000  C
  C43      1.0000 0.34960  0.98857  0.68450  Biso   1.000  C
  C44      1.0000 0.34960  0.51143  0.18450  Biso   1.000  C
  C45      1.0000 0.54240  0.99888  0.18900  Biso   1.000  C
  C46      1.0000 0.54240  0.50112  0.68900  Biso   1.000  C
  C47      1.0000 0.45760  0.00112  0.81100  Biso   1.000  C
  C48      1.0000 0.45760  0.49888  0.31100  Biso   1.000  C
  F25      1.0000 0.63630  0.16240  0.66690  Biso   1.000  F
  F26      1.0000 0.63630  0.33760  0.16690  Biso   1.000  F
  F27      1.0000 0.36370  0.83760  0.33310  Biso   1.000  F
  F28      1.0000 0.36370  0.66240  0.83310  Biso   1.000  F
  F29      1.0000 0.68410  0.26690  0.54910  Biso   1.000  F
  F30      1.0000 0.68410  0.23310  0.04910  Biso   1.000  F
  F31      1.0000 0.31590  0.73310  0.45090  Biso   1.000  F
  F32      1.0000 0.31590  0.76690  0.95090  Biso   1.000  F
  F33      1.0000 0.43360  0.19480  0.51270  Biso   1.000  F
  F34      1.0000 0.43360  0.30520  0.01270  Biso   1.000  F
  F35      1.0000 0.56640  0.80520  0.48730  Biso   1.000  F
  F36      1.0000 0.56640  0.69480  0.98730  Biso   1.000  F
  F37      1.0000 0.53070  0.90510  0.15910  Biso   1.000  F
  F38      1.0000 0.53070  0.59490  0.65910  Biso   1.000  F
  F39      1.0000 0.46930  0.09490  0.84090  Biso   1.000  F
  F40      1.0000 0.46930  0.40510  0.34090  Biso   1.000  F
  F41      1.0000 0.64410  0.03330  0.12080  Biso   1.000  F
  F42      1.0000 0.64410  0.46670  0.62080  Biso   1.000  F
  F43      1.0000 0.35590  0.96670  0.87920  Biso   1.000  F
  F44      1.0000 0.35590  0.53330  0.37920  Biso   1.000  F
  F45      1.0000 0.39040  0.03520  0.15590  Biso   1.000  F
  F46      1.0000 0.39040  0.46480  0.65590  Biso   1.000  F
  F47      1.0000 0.60960  0.96480  0.84410  Biso   1.000  F
  F48      1.0000 0.60960  0.53520  0.34410  Biso   1.000  F
  F49      1.0000 0.69540  0.20810  0.65380  Biso   1.000  F
  F50      1.0000 0.69540  0.29190  0.15380  Biso   1.000  F
  F51      1.0000 0.30460  0.79190  0.34620  Biso   1.000  F
  F52      1.0000 0.30460  0.70810  0.84620  Biso   1.000  F
  F53      1.0000 0.58400  0.26490  0.48580  Biso   1.000  F
  F54      1.0000 0.58400  0.23510  0.98580  Biso   1.000  F
  F55      1.0000 0.41600  0.73510  0.51420  Biso   1.000  F
  F56      1.0000 0.41600  0.76490  0.01420  Biso   1.000  F
  F57      1.0000 0.44580  0.16070  0.55450  Biso   1.000  F
  F58      1.0000 0.44580  0.33930  0.05450  Biso   1.000  F
  F59      1.0000 0.55420  0.83930  0.44550  Biso   1.000  F
  F60      1.0000 0.55420  0.66070  0.94550  Biso   1.000  F
  F61      1.0000 0.59290  0.05490  0.82570  Biso   1.000  F
  F62      1.0000 0.59290  0.44510  0.32570  Biso   1.000  F
  F63      1.0000 0.40710  0.94510  0.17430  Biso   1.000  F
  F64      1.0000 0.40710  0.55490  0.67430  Biso   1.000  F
  F65      1.0000 0.36800  0.02620  0.87970  Biso   1.000  F
  F66      1.0000 0.36800  0.47380  0.37970  Biso   1.000  F
  F67      1.0000 0.63200  0.97380  0.12030  Biso   1.000  F
  F68      1.0000 0.63200  0.52620  0.62030  Biso   1.000  F
  F69      1.0000 0.52500  0.91130  0.85260  Biso   1.000  F
  F70      1.0000 0.52500  0.58870  0.35260  Biso   1.000  F
  F71      1.0000 0.47500  0.08870  0.14740  Biso   1.000  F
  F72      1.0000 0.47500  0.41130  0.64740  Biso   1.000  F
