data_image0
_cell_length_a       8.847
_cell_length_b       8.985
_cell_length_c       10.3302
_cell_angle_alpha    67.817
_cell_angle_beta     82.839
_cell_angle_gamma    75.6

_symmetry_space_group_name_H-M    "P 1"
_symmetry_int_tables_number       1

loop_
  _symmetry_equiv_pos_as_xyz
  'x, y, z'

loop_
  _atom_site_label
  _atom_site_occupancy
  _atom_site_fract_x
  _atom_site_fract_y
  _atom_site_fract_z
  _atom_site_thermal_displace_type
  _atom_site_B_iso_or_equiv
  _atom_site_type_symbol
  Cu1      1.0000 0.00000  0.50000  0.00000  Biso   1.000  Cu
  Cu2      1.0000 0.50000  0.50000  0.50000  Biso   1.000  Cu
  O1       1.0000 0.17940  0.31350  0.05839  Biso   1.000  O
  O2       1.0000 0.82060  0.68650  0.94161  Biso   1.000  O
  O3       1.0000 0.14800  0.31120  0.84966  Biso   1.000  O
  O4       1.0000 0.85200  0.68880  0.15034  Biso   1.000  O
  O5       1.0000 0.45640  0.38590  0.70081  Biso   1.000  O
  O6       1.0000 0.54360  0.61410  0.29919  Biso   1.000  O
  O7       1.0000 0.43550  0.19230  0.62273  Biso   1.000  O
  O8       1.0000 0.56450  0.80770  0.37727  Biso   1.000  O
  N1       1.0000 0.14590  0.65160  0.91330  Biso   1.000  N
  N2       1.0000 0.85410  0.34840  0.08670  Biso   1.000  N
  N3       1.0000 0.35200  0.74170  0.80220  Biso   1.000  N
  N4       1.0000 0.64800  0.25830  0.19780  Biso   1.000  N
  N5       1.0000 0.27650  0.59970  0.46700  Biso   1.000  N
  N6       1.0000 0.72350  0.40030  0.53300  Biso   1.000  N
  N7       1.0000 0.02800  0.68620  0.50890  Biso   1.000  N
  N8       1.0000 0.97200  0.31380  0.49110  Biso   1.000  N
  C1       1.0000 0.29230  0.61110  0.87480  Biso   1.000  C
  C2       1.0000 0.70770  0.38890  0.12520  Biso   1.000  C
  H1       1.0000 0.34820  0.50290  0.89590  Biso   1.000  H
  H2       1.0000 0.65180  0.49710  0.10410  Biso   1.000  H
  C3       1.0000 0.50840  0.73960  0.73550  Biso   1.000  C
  C4       1.0000 0.49160  0.26040  0.26450  Biso   1.000  C
  H3       1.0000 0.55560  0.63060  0.73690  Biso   1.000  H
  H4       1.0000 0.44440  0.36940  0.26310  Biso   1.000  H
  H5       1.0000 0.57140  0.77150  0.78540  Biso   1.000  H
  H6       1.0000 0.42860  0.22850  0.21460  Biso   1.000  H
  H7       1.0000 0.50050  0.81540  0.64040  Biso   1.000  H
  H8       1.0000 0.49950  0.18460  0.35960  Biso   1.000  H
  C5       1.0000 0.23770  0.87570  0.79330  Biso   1.000  C
  C6       1.0000 0.76230  0.12430  0.20670  Biso   1.000  C
  H9       1.0000 0.24470  0.98520  0.74890  Biso   1.000  H
  H10      1.0000 0.75530  0.01480  0.25110  Biso   1.000  H
  C7       1.0000 0.11180  0.82030  0.86100  Biso   1.000  C
  C8       1.0000 0.88820  0.17970  0.13900  Biso   1.000  C
  H11      1.0000 0.01540  0.88670  0.87100  Biso   1.000  H
  H12      1.0000 0.98460  0.11330  0.12900  Biso   1.000  H
  C9       1.0000 0.22020  0.25960  0.95800  Biso   1.000  C
  C10      1.0000 0.77980  0.74040  0.04200  Biso   1.000  C
  C11      1.0000 0.36690  0.12740  0.97820  Biso   1.000  C
  C12      1.0000 0.63310  0.87260  0.02180  Biso   1.000  C
  C13      1.0000 0.46790  0.11630  0.86550  Biso   1.000  C
  C14      1.0000 0.53210  0.88370  0.13450  Biso   1.000  C
  C15      1.0000 0.40070  0.01090  0.11100  Biso   1.000  C
  C16      1.0000 0.59930  0.98910  0.88900  Biso   1.000  C
  H13      1.0000 0.33350  0.01850  0.18610  Biso   1.000  H
  H14      1.0000 0.66650  0.98150  0.81390  Biso   1.000  H
  C17      1.0000 0.44680  0.23970  0.71770  Biso   1.000  C
  C18      1.0000 0.55320  0.76030  0.28230  Biso   1.000  C
  C19      1.0000 0.16720  0.60960  0.56390  Biso   1.000  C
  C20      1.0000 0.83280  0.39040  0.43610  Biso   1.000  C
  H15      1.0000 0.18490  0.56810  0.65920  Biso   1.000  H
  H16      1.0000 0.81510  0.43190  0.34080  Biso   1.000  H
  C21      1.0000 0.88180  0.72250  0.58450  Biso   1.000  C
  C22      1.0000 0.11820  0.27750  0.41550  Biso   1.000  C
  H17      1.0000 0.89050  0.65200  0.68120  Biso   1.000  H
  H18      1.0000 0.10950  0.34800  0.31880  Biso   1.000  H
  H19      1.0000 0.79870  0.70410  0.54500  Biso   1.000  H
  H20      1.0000 0.20130  0.29590  0.45500  Biso   1.000  H
  H21      1.0000 0.85980  0.83550  0.57730  Biso   1.000  H
  H22      1.0000 0.14020  0.16450  0.42270  Biso   1.000  H
  C23      1.0000 0.04790  0.72730  0.36690  Biso   1.000  C
  C24      1.0000 0.95210  0.27270  0.63310  Biso   1.000  C
  H23      1.0000 0.97130  0.78080  0.30060  Biso   1.000  H
  H24      1.0000 0.02870  0.21920  0.69940  Biso   1.000  H
  C25      1.0000 0.20060  0.67450  0.34310  Biso   1.000  C
  C26      1.0000 0.79940  0.32550  0.65690  Biso   1.000  C
  H25      1.0000 0.24810  0.68680  0.25530  Biso   1.000  H
  H26      1.0000 0.75190  0.31320  0.74470  Biso   1.000  H
