data_image0
_cell_length_a       10.5475
_cell_length_b       18.295
_cell_length_c       12.9152
_cell_angle_alpha    90
_cell_angle_beta     90.402
_cell_angle_gamma    90

_symmetry_space_group_name_H-M    "P 1"
_symmetry_int_tables_number       1

loop_
  _symmetry_equiv_pos_as_xyz
  'x, y, z'

loop_
  _atom_site_label
  _atom_site_occupancy
  _atom_site_fract_x
  _atom_site_fract_y
  _atom_site_fract_z
  _atom_site_thermal_displace_type
  _atom_site_B_iso_or_equiv
  _atom_site_type_symbol
  Mo1      1.0000 0.54759  0.01886  0.21470  Biso   1.000  Mo
  Mo2      1.0000 0.45241  0.51886  0.28530  Biso   1.000  Mo
  Mo3      1.0000 0.45241  0.98114  0.78530  Biso   1.000  Mo
  Mo4      1.0000 0.54759  0.48114  0.71470  Biso   1.000  Mo
  Mo5      1.0000 0.74392  0.12579  0.09387  Biso   1.000  Mo
  Mo6      1.0000 0.25608  0.62579  0.40613  Biso   1.000  Mo
  Mo7      1.0000 0.25608  0.87421  0.90613  Biso   1.000  Mo
  Mo8      1.0000 0.74392  0.37421  0.59387  Biso   1.000  Mo
  Mo9      1.0000 0.25958  0.99218  0.09447  Biso   1.000  Mo
  Mo10     1.0000 0.74042  0.49218  0.40553  Biso   1.000  Mo
  Mo11     1.0000 0.74042  0.00782  0.90553  Biso   1.000  Mo
  Mo12     1.0000 0.25958  0.50782  0.59447  Biso   1.000  Mo
  Mo13     1.0000 0.54633  0.90551  0.02529  Biso   1.000  Mo
  Mo14     1.0000 0.45367  0.40551  0.47471  Biso   1.000  Mo
  Mo15     1.0000 0.45367  0.09449  0.97471  Biso   1.000  Mo
  Mo16     1.0000 0.54633  0.59449  0.52529  Biso   1.000  Mo
  Cu1      1.0000 0.50000  0.00000  0.50000  Biso   1.000  Cu
  Cu2      1.0000 0.50000  0.50000  0.00000  Biso   1.000  Cu
  Cu3      1.0000 0.22724  0.03996  0.36251  Biso   1.000  Cu
  Cu4      1.0000 0.77276  0.53996  0.13749  Biso   1.000  Cu
  Cu5      1.0000 0.77276  0.96004  0.63749  Biso   1.000  Cu
  Cu6      1.0000 0.22724  0.46004  0.86251  Biso   1.000  Cu
  O1       1.0000 0.45540  0.02780  0.32360  Biso   1.000  O
  O2       1.0000 0.54460  0.52780  0.17640  Biso   1.000  O
  O3       1.0000 0.54460  0.97220  0.67640  Biso   1.000  O
  O4       1.0000 0.45540  0.47220  0.82360  Biso   1.000  O
  O5       1.0000 0.67660  0.97040  0.25620  Biso   1.000  O
  O6       1.0000 0.32340  0.47040  0.24380  Biso   1.000  O
  O7       1.0000 0.32340  0.02960  0.74380  Biso   1.000  O
  O8       1.0000 0.67660  0.52960  0.75620  Biso   1.000  O
  O9       1.0000 0.61960  0.11270  0.20100  Biso   1.000  O
  O10      1.0000 0.38040  0.61270  0.29900  Biso   1.000  O
  O11      1.0000 0.38040  0.88730  0.79900  Biso   1.000  O
  O12      1.0000 0.61960  0.38730  0.70100  Biso   1.000  O
  O13      1.0000 0.79140  0.21410  0.10480  Biso   1.000  O
  O14      1.0000 0.20860  0.71410  0.39520  Biso   1.000  O
  O15      1.0000 0.20860  0.78590  0.89520  Biso   1.000  O
  O16      1.0000 0.79140  0.28590  0.60480  Biso   1.000  O
  O17      1.0000 0.86530  0.07680  0.14750  Biso   1.000  O
  O18      1.0000 0.13470  0.57680  0.35250  Biso   1.000  O
  O19      1.0000 0.13470  0.92320  0.85250  Biso   1.000  O
  O20      1.0000 0.86530  0.42320  0.64750  Biso   1.000  O
  O21      1.0000 0.77870  0.10240  0.95060  Biso   1.000  O
  O22      1.0000 0.22130  0.60240  0.54940  Biso   1.000  O
  O23      1.0000 0.22130  0.89760  0.04940  Biso   1.000  O
  O24      1.0000 0.77870  0.39760  0.45060  Biso   1.000  O
  O25      1.0000 0.45510  0.93790  0.14710  Biso   1.000  O
  O26      1.0000 0.54490  0.43790  0.35290  Biso   1.000  O
  O27      1.0000 0.54490  0.06210  0.85290  Biso   1.000  O
  O28      1.0000 0.45510  0.56210  0.64710  Biso   1.000  O
  O29      1.0000 0.21420  0.98930  0.22470  Biso   1.000  O
  O30      1.0000 0.78580  0.48930  0.27530  Biso   1.000  O
  O31      1.0000 0.78580  0.01070  0.77530  Biso   1.000  O
  O32      1.0000 0.21420  0.51070  0.72470  Biso   1.000  O
  O33      1.0000 0.14710  0.04250  0.03450  Biso   1.000  O
  O34      1.0000 0.85290  0.54250  0.46550  Biso   1.000  O
  O35      1.0000 0.85290  0.95750  0.96550  Biso   1.000  O
  O36      1.0000 0.14710  0.45750  0.53450  Biso   1.000  O
  O37      1.0000 0.39100  0.06960  0.11180  Biso   1.000  O
  O38      1.0000 0.60900  0.56960  0.38820  Biso   1.000  O
  O39      1.0000 0.60900  0.93040  0.88820  Biso   1.000  O
  O40      1.0000 0.39100  0.43040  0.61180  Biso   1.000  O
  O41      1.0000 0.67110  0.85910  0.07640  Biso   1.000  O
  O42      1.0000 0.32890  0.35910  0.42360  Biso   1.000  O
  O43      1.0000 0.32890  0.14090  0.92360  Biso   1.000  O
  O44      1.0000 0.67110  0.64090  0.57640  Biso   1.000  O
  O45      1.0000 0.56270  0.16080  0.01310  Biso   1.000  O
  O46      1.0000 0.43730  0.66080  0.48690  Biso   1.000  O
  O47      1.0000 0.43730  0.83920  0.98690  Biso   1.000  O
  O48      1.0000 0.56270  0.33920  0.51310  Biso   1.000  O
  O49      1.0000 0.61710  0.01590  0.04490  Biso   1.000  O
  O50      1.0000 0.38290  0.51590  0.45510  Biso   1.000  O
  O51      1.0000 0.38290  0.98410  0.95510  Biso   1.000  O
  O52      1.0000 0.61710  0.48410  0.54490  Biso   1.000  O
  O53      1.0000 0.02270  0.04150  0.38600  Biso   1.000  O
  O54      1.0000 0.97730  0.54150  0.11400  Biso   1.000  O
  O55      1.0000 0.97730  0.95850  0.61400  Biso   1.000  O
  O56      1.0000 0.02270  0.45850  0.88600  Biso   1.000  O
  O57      1.0000 0.92510  0.94560  0.24130  Biso   1.000  O
  O58      1.0000 0.07490  0.44560  0.25870  Biso   1.000  O
  O59      1.0000 0.07490  0.05440  0.75870  Biso   1.000  O
  O60      1.0000 0.92510  0.55440  0.74130  Biso   1.000  O
  N1       1.0000 0.64780  0.06650  0.50510  Biso   1.000  N
  N2       1.0000 0.35220  0.56650  0.99490  Biso   1.000  N
  N3       1.0000 0.35220  0.93350  0.49490  Biso   1.000  N
  N4       1.0000 0.64780  0.43350  0.00510  Biso   1.000  N
  N5       1.0000 0.65990  0.12490  0.44470  Biso   1.000  N
  N6       1.0000 0.34010  0.62490  0.05530  Biso   1.000  N
  N7       1.0000 0.34010  0.87510  0.55530  Biso   1.000  N
  N8       1.0000 0.65990  0.37510  0.94470  Biso   1.000  N
  N9       1.0000 0.75340  0.05480  0.55730  Biso   1.000  N
  N10      1.0000 0.24660  0.55480  0.94270  Biso   1.000  N
  N11      1.0000 0.24660  0.94520  0.44270  Biso   1.000  N
  N12      1.0000 0.75340  0.44520  0.05730  Biso   1.000  N
  N13      1.0000 0.84000  0.10490  0.53210  Biso   1.000  N
  N14      1.0000 0.16000  0.60490  0.96790  Biso   1.000  N
  N15      1.0000 0.16000  0.89510  0.46790  Biso   1.000  N
  N16      1.0000 0.84000  0.39510  0.03210  Biso   1.000  N
  N17      1.0000 0.94430  0.32280  0.30560  Biso   1.000  N
  N18      1.0000 0.05570  0.82280  0.19440  Biso   1.000  N
  N19      1.0000 0.05570  0.67720  0.69440  Biso   1.000  N
  N20      1.0000 0.94430  0.17720  0.80560  Biso   1.000  N
  H1       1.0000 0.97830  0.36060  0.27400  Biso   1.000  H
  H2       1.0000 0.02170  0.86060  0.22600  Biso   1.000  H
  H3       1.0000 0.02170  0.63940  0.72600  Biso   1.000  H
  H4       1.0000 0.97830  0.13940  0.77400  Biso   1.000  H
  N21      1.0000 0.38790  0.08510  0.53530  Biso   1.000  N
  N22      1.0000 0.61210  0.58510  0.96470  Biso   1.000  N
  N23      1.0000 0.61210  0.91490  0.46470  Biso   1.000  N
  N24      1.0000 0.38790  0.41490  0.03530  Biso   1.000  N
  N25      1.0000 0.41050  0.13750  0.60320  Biso   1.000  N
  N26      1.0000 0.58950  0.63750  0.89680  Biso   1.000  N
  N27      1.0000 0.58950  0.86250  0.39680  Biso   1.000  N
  N28      1.0000 0.41050  0.36250  0.10320  Biso   1.000  N
  N29      1.0000 0.27360  0.09160  0.49540  Biso   1.000  N
  N30      1.0000 0.72640  0.59160  0.00460  Biso   1.000  N
  N31      1.0000 0.72640  0.90840  0.50460  Biso   1.000  N
  N32      1.0000 0.27360  0.40840  0.99540  Biso   1.000  N
  N33      1.0000 0.21610  0.14950  0.53550  Biso   1.000  N
  N34      1.0000 0.78390  0.64950  0.96450  Biso   1.000  N
  N35      1.0000 0.78390  0.85050  0.46450  Biso   1.000  N
  N36      1.0000 0.21610  0.35050  0.03550  Biso   1.000  N
  N37      1.0000 0.24090  0.36390  0.78970  Biso   1.000  N
  N38      1.0000 0.75910  0.86390  0.71030  Biso   1.000  N
  N39      1.0000 0.75910  0.63610  0.21030  Biso   1.000  N
  N40      1.0000 0.24090  0.13610  0.28970  Biso   1.000  N
  C1       1.0000 0.77780  0.14670  0.46240  Biso   1.000  C
  C2       1.0000 0.22220  0.64670  0.03760  Biso   1.000  C
  C3       1.0000 0.22220  0.85330  0.53760  Biso   1.000  C
  C4       1.0000 0.77780  0.35330  0.96240  Biso   1.000  C
  C5       1.0000 0.83730  0.20800  0.40620  Biso   1.000  C
  C6       1.0000 0.16270  0.70800  0.09380  Biso   1.000  C
  C7       1.0000 0.16270  0.79200  0.59380  Biso   1.000  C
  C8       1.0000 0.83730  0.29200  0.90620  Biso   1.000  C
  C9       1.0000 0.76660  0.24770  0.33490  Biso   1.000  C
  C10      1.0000 0.23340  0.74770  0.16510  Biso   1.000  C
  C11      1.0000 0.23340  0.75230  0.66510  Biso   1.000  C
  C12      1.0000 0.76660  0.25230  0.83490  Biso   1.000  C
  H5       1.0000 0.68050  0.23570  0.32130  Biso   1.000  H
  H6       1.0000 0.31950  0.73570  0.17870  Biso   1.000  H
  H7       1.0000 0.31950  0.76430  0.67870  Biso   1.000  H
  H8       1.0000 0.68050  0.26430  0.82130  Biso   1.000  H
  C13      1.0000 0.82400  0.30520  0.28400  Biso   1.000  C
  C14      1.0000 0.17600  0.80520  0.21600  Biso   1.000  C
  C15      1.0000 0.17600  0.69480  0.71600  Biso   1.000  C
  C16      1.0000 0.82400  0.19480  0.78400  Biso   1.000  C
  H9       1.0000 0.77780  0.33230  0.23350  Biso   1.000  H
  H10      1.0000 0.22220  0.83230  0.26650  Biso   1.000  H
  H11      1.0000 0.22220  0.66770  0.76650  Biso   1.000  H
  H12      1.0000 0.77780  0.16770  0.73350  Biso   1.000  H
  C17      1.0000 0.01530  0.28480  0.37420  Biso   1.000  C
  C18      1.0000 0.98470  0.78480  0.12580  Biso   1.000  C
  C19      1.0000 0.98470  0.71520  0.62580  Biso   1.000  C
  C20      1.0000 0.01530  0.21520  0.87420  Biso   1.000  C
  H13      1.0000 0.10070  0.29870  0.38740  Biso   1.000  H
  H14      1.0000 0.89930  0.79870  0.11260  Biso   1.000  H
  H15      1.0000 0.89930  0.70130  0.61260  Biso   1.000  H
  H16      1.0000 0.10070  0.20130  0.88740  Biso   1.000  H
  C21      1.0000 0.96410  0.22610  0.42470  Biso   1.000  C
  C22      1.0000 0.03590  0.72610  0.07530  Biso   1.000  C
  C23      1.0000 0.03590  0.77390  0.57530  Biso   1.000  C
  C24      1.0000 0.96410  0.27390  0.92470  Biso   1.000  C
  H17      1.0000 0.01410  0.19810  0.47160  Biso   1.000  H
  H18      1.0000 0.98590  0.69810  0.02840  Biso   1.000  H
  H19      1.0000 0.98590  0.80190  0.52840  Biso   1.000  H
  H20      1.0000 0.01410  0.30190  0.97160  Biso   1.000  H
  C25      1.0000 0.30160  0.17630  0.60240  Biso   1.000  C
  C26      1.0000 0.69840  0.67630  0.89760  Biso   1.000  C
  C27      1.0000 0.69840  0.82370  0.39760  Biso   1.000  C
  C28      1.0000 0.30160  0.32370  0.10240  Biso   1.000  C
  C29      1.0000 0.27960  0.24050  0.66800  Biso   1.000  C
  C30      1.0000 0.72040  0.74050  0.83200  Biso   1.000  C
  C31      1.0000 0.72040  0.75950  0.33200  Biso   1.000  C
  C32      1.0000 0.27960  0.25950  0.16800  Biso   1.000  C
  C33      1.0000 0.36830  0.26060  0.74230  Biso   1.000  C
  C34      1.0000 0.63170  0.76060  0.75770  Biso   1.000  C
  C35      1.0000 0.63170  0.73940  0.25770  Biso   1.000  C
  C36      1.0000 0.36830  0.23940  0.24230  Biso   1.000  C
  H21      1.0000 0.44290  0.23230  0.75280  Biso   1.000  H
  H22      1.0000 0.55710  0.73230  0.74720  Biso   1.000  H
  H23      1.0000 0.55710  0.76770  0.24720  Biso   1.000  H
  H24      1.0000 0.44290  0.26770  0.25280  Biso   1.000  H
  C37      1.0000 0.34630  0.32280  0.80110  Biso   1.000  C
  C38      1.0000 0.65370  0.82280  0.69890  Biso   1.000  C
  C39      1.0000 0.65370  0.67720  0.19890  Biso   1.000  C
  C40      1.0000 0.34630  0.17720  0.30110  Biso   1.000  C
  H25      1.0000 0.40780  0.33700  0.85130  Biso   1.000  H
  H26      1.0000 0.59220  0.83700  0.64870  Biso   1.000  H
  H27      1.0000 0.59220  0.66300  0.14870  Biso   1.000  H
  H28      1.0000 0.40780  0.16300  0.35130  Biso   1.000  H
  C41      1.0000 0.15460  0.34300  0.71870  Biso   1.000  C
  C42      1.0000 0.84540  0.84300  0.78130  Biso   1.000  C
  C43      1.0000 0.84540  0.65700  0.28130  Biso   1.000  C
  C44      1.0000 0.15460  0.15700  0.21870  Biso   1.000  C
  H29      1.0000 0.07970  0.37130  0.71040  Biso   1.000  H
  H30      1.0000 0.92030  0.87130  0.78960  Biso   1.000  H
  H31      1.0000 0.92030  0.62870  0.28960  Biso   1.000  H
  H32      1.0000 0.07970  0.12870  0.21040  Biso   1.000  H
  C45      1.0000 0.17050  0.28220  0.65740  Biso   1.000  C
  C46      1.0000 0.82950  0.78220  0.84260  Biso   1.000  C
  C47      1.0000 0.82950  0.71780  0.34260  Biso   1.000  C
  C48      1.0000 0.17050  0.21780  0.15740  Biso   1.000  C
  H33      1.0000 0.10730  0.26890  0.60820  Biso   1.000  H
  H34      1.0000 0.89270  0.76890  0.89180  Biso   1.000  H
  H35      1.0000 0.89270  0.73110  0.39180  Biso   1.000  H
  H36      1.0000 0.10730  0.23110  0.10820  Biso   1.000  H
