data_image0
_cell_length_a       11.772
_cell_length_b       11.772
_cell_length_c       18.961
_cell_angle_alpha    90
_cell_angle_beta     90
_cell_angle_gamma    90

_symmetry_space_group_name_H-M    "P 1"
_symmetry_int_tables_number       1

loop_
  _symmetry_equiv_pos_as_xyz
  'x, y, z'

loop_
  _atom_site_label
  _atom_site_occupancy
  _atom_site_fract_x
  _atom_site_fract_y
  _atom_site_fract_z
  _atom_site_thermal_displace_type
  _atom_site_B_iso_or_equiv
  _atom_site_type_symbol
  Cu1      1.0000 0.50000  0.75000  0.12500  Biso   1.000  Cu
  Cu2      1.0000 0.00000  0.75000  0.37500  Biso   1.000  Cu
  Cu3      1.0000 0.00000  0.25000  0.62500  Biso   1.000  Cu
  Cu4      1.0000 0.50000  0.25000  0.87500  Biso   1.000  Cu
  Cu5      1.0000 0.75000  0.75000  0.25000  Biso   1.000  Cu
  Cu6      1.0000 0.00000  0.00000  0.50000  Biso   1.000  Cu
  Cu7      1.0000 0.25000  0.75000  0.25000  Biso   1.000  Cu
  Cu8      1.0000 0.00000  0.50000  0.50000  Biso   1.000  Cu
  Cu9      1.0000 0.25000  0.25000  0.75000  Biso   1.000  Cu
  Cu10     1.0000 0.50000  0.50000  0.00000  Biso   1.000  Cu
  Cu11     1.0000 0.75000  0.25000  0.75000  Biso   1.000  Cu
  Cu12     1.0000 0.50000  0.00000  0.00000  Biso   1.000  Cu
  N1       1.0000 0.38060  0.87630  0.12230  Biso   1.000  N
  N2       1.0000 0.87370  0.63060  0.37230  Biso   1.000  N
  N3       1.0000 0.61940  0.62370  0.12230  Biso   1.000  N
  N4       1.0000 0.12630  0.86940  0.37230  Biso   1.000  N
  N5       1.0000 0.88060  0.37630  0.62230  Biso   1.000  N
  N6       1.0000 0.37370  0.13060  0.87230  Biso   1.000  N
  N7       1.0000 0.11940  0.12370  0.62230  Biso   1.000  N
  N8       1.0000 0.62630  0.36940  0.87230  Biso   1.000  N
  N9       1.0000 0.61940  0.12370  0.87770  Biso   1.000  N
  N10      1.0000 0.62630  0.86940  0.12770  Biso   1.000  N
  N11      1.0000 0.38060  0.37630  0.87770  Biso   1.000  N
  N12      1.0000 0.37370  0.63060  0.12770  Biso   1.000  N
  N13      1.0000 0.11940  0.62370  0.37770  Biso   1.000  N
  N14      1.0000 0.12630  0.36940  0.62770  Biso   1.000  N
  N15      1.0000 0.88060  0.87630  0.37770  Biso   1.000  N
  N16      1.0000 0.87370  0.13060  0.62770  Biso   1.000  N
  C1       1.0000 0.23950  0.98020  0.14150  Biso   1.000  C
  C2       1.0000 0.76980  0.48950  0.39150  Biso   1.000  C
  C3       1.0000 0.76050  0.51980  0.14150  Biso   1.000  C
  C4       1.0000 0.23020  0.01050  0.39150  Biso   1.000  C
  C5       1.0000 0.73950  0.48020  0.64150  Biso   1.000  C
  C6       1.0000 0.26980  0.98950  0.89150  Biso   1.000  C
  C7       1.0000 0.26050  0.01980  0.64150  Biso   1.000  C
  C8       1.0000 0.73020  0.51050  0.89150  Biso   1.000  C
  C9       1.0000 0.76050  0.01980  0.85850  Biso   1.000  C
  C10      1.0000 0.73020  0.01050  0.10850  Biso   1.000  C
  C11      1.0000 0.23950  0.48020  0.85850  Biso   1.000  C
  C12      1.0000 0.26980  0.48950  0.10850  Biso   1.000  C
  C13      1.0000 0.26050  0.51980  0.35850  Biso   1.000  C
  C14      1.0000 0.23020  0.51050  0.60850  Biso   1.000  C
  C15      1.0000 0.73950  0.98020  0.35850  Biso   1.000  C
  C16      1.0000 0.76980  0.98950  0.60850  Biso   1.000  C
  N17      1.0000 0.59050  0.74900  0.29020  Biso   1.000  N
  N18      1.0000 0.00100  0.84050  0.54020  Biso   1.000  N
  N19      1.0000 0.40950  0.75100  0.29020  Biso   1.000  N
  N20      1.0000 0.99900  0.65950  0.54020  Biso   1.000  N
  N21      1.0000 0.09050  0.24900  0.79020  Biso   1.000  N
  N22      1.0000 0.50100  0.34050  0.04020  Biso   1.000  N
  N23      1.0000 0.90950  0.25100  0.79020  Biso   1.000  N
  N24      1.0000 0.49900  0.15950  0.04020  Biso   1.000  N
  N25      1.0000 0.40950  0.25100  0.70980  Biso   1.000  N
  N26      1.0000 0.49900  0.65950  0.95980  Biso   1.000  N
  N27      1.0000 0.59050  0.24900  0.70980  Biso   1.000  N
  N28      1.0000 0.50100  0.84050  0.95980  Biso   1.000  N
  N29      1.0000 0.90950  0.75100  0.20980  Biso   1.000  N
  N30      1.0000 0.99900  0.15950  0.45980  Biso   1.000  N
  N31      1.0000 0.09050  0.74900  0.20980  Biso   1.000  N
  N32      1.0000 0.00100  0.34050  0.45980  Biso   1.000  N
  N33      1.0000 0.37730  0.95760  0.07360  Biso   1.000  N
  N34      1.0000 0.79240  0.62730  0.32360  Biso   1.000  N
  N35      1.0000 0.62270  0.54240  0.07360  Biso   1.000  N
  N36      1.0000 0.20760  0.87270  0.32360  Biso   1.000  N
  N37      1.0000 0.87730  0.45760  0.57360  Biso   1.000  N
  N38      1.0000 0.29240  0.12730  0.82360  Biso   1.000  N
  N39      1.0000 0.12270  0.04240  0.57360  Biso   1.000  N
  N40      1.0000 0.70760  0.37270  0.82360  Biso   1.000  N
  N41      1.0000 0.62270  0.04240  0.92640  Biso   1.000  N
  N42      1.0000 0.70760  0.87270  0.17640  Biso   1.000  N
  N43      1.0000 0.37730  0.45760  0.92640  Biso   1.000  N
  N44      1.0000 0.29240  0.62730  0.17640  Biso   1.000  N
  N45      1.0000 0.12270  0.54240  0.42640  Biso   1.000  N
  N46      1.0000 0.20760  0.37270  0.67640  Biso   1.000  N
  N47      1.0000 0.87730  0.95760  0.42640  Biso   1.000  N
  N48      1.0000 0.79240  0.12730  0.67640  Biso   1.000  N
  N49      1.0000 0.29550  0.88630  0.16700  Biso   1.000  N
  N50      1.0000 0.86370  0.54550  0.41700  Biso   1.000  N
  N51      1.0000 0.70450  0.61370  0.16700  Biso   1.000  N
  N52      1.0000 0.13630  0.95450  0.41700  Biso   1.000  N
  N53      1.0000 0.79550  0.38630  0.66700  Biso   1.000  N
  N54      1.0000 0.36370  0.04550  0.91700  Biso   1.000  N
  N55      1.0000 0.20450  0.11370  0.66700  Biso   1.000  N
  N56      1.0000 0.63630  0.45450  0.91700  Biso   1.000  N
  N57      1.0000 0.70450  0.11370  0.83300  Biso   1.000  N
  N58      1.0000 0.63630  0.95450  0.08300  Biso   1.000  N
  N59      1.0000 0.29550  0.38630  0.83300  Biso   1.000  N
  N60      1.0000 0.36370  0.54550  0.08300  Biso   1.000  N
  N61      1.0000 0.20450  0.61370  0.33300  Biso   1.000  N
  N62      1.0000 0.13630  0.45450  0.58300  Biso   1.000  N
  N63      1.0000 0.79550  0.88630  0.33300  Biso   1.000  N
  N64      1.0000 0.86370  0.04550  0.58300  Biso   1.000  N
  N65      1.0000 0.50000  0.75000  0.24880  Biso   1.000  N
  N66      1.0000 0.00000  0.75000  0.49880  Biso   1.000  N
  N67      1.0000 0.00000  0.25000  0.74880  Biso   1.000  N
  N68      1.0000 0.50000  0.25000  0.99880  Biso   1.000  N
  N69      1.0000 0.50000  0.25000  0.75120  Biso   1.000  N
  N70      1.0000 0.50000  0.75000  0.00120  Biso   1.000  N
  N71      1.0000 0.00000  0.75000  0.25120  Biso   1.000  N
  N72      1.0000 0.00000  0.25000  0.50120  Biso   1.000  N
  N73      1.0000 0.28710  0.02430  0.08280  Biso   1.000  N
  N74      1.0000 0.72570  0.53710  0.33280  Biso   1.000  N
  N75      1.0000 0.71290  0.47570  0.08280  Biso   1.000  N
  N76      1.0000 0.27430  0.96290  0.33280  Biso   1.000  N
  N77      1.0000 0.78710  0.52430  0.58280  Biso   1.000  N
  N78      1.0000 0.22570  0.03710  0.83280  Biso   1.000  N
  N79      1.0000 0.21290  0.97570  0.58280  Biso   1.000  N
  N80      1.0000 0.77430  0.46290  0.83280  Biso   1.000  N
  N81      1.0000 0.71290  0.97570  0.91720  Biso   1.000  N
  N82      1.0000 0.77430  0.96290  0.16720  Biso   1.000  N
  N83      1.0000 0.28710  0.52430  0.91720  Biso   1.000  N
  N84      1.0000 0.22570  0.53710  0.16720  Biso   1.000  N
  N85      1.0000 0.21290  0.47570  0.41720  Biso   1.000  N
  N86      1.0000 0.27430  0.46290  0.66720  Biso   1.000  N
  N87      1.0000 0.78710  0.02430  0.41720  Biso   1.000  N
  N88      1.0000 0.72570  0.03710  0.66720  Biso   1.000  N
  C17      1.0000 0.55690  0.74900  0.35600  Biso   1.000  C
  C18      1.0000 0.00100  0.80690  0.60600  Biso   1.000  C
  C19      1.0000 0.44310  0.75100  0.35600  Biso   1.000  C
  C20      1.0000 0.99900  0.69310  0.60600  Biso   1.000  C
  C21      1.0000 0.05690  0.24900  0.85600  Biso   1.000  C
  C22      1.0000 0.50100  0.30690  0.10600  Biso   1.000  C
  C23      1.0000 0.94310  0.25100  0.85600  Biso   1.000  C
  C24      1.0000 0.49900  0.19310  0.10600  Biso   1.000  C
  C25      1.0000 0.44310  0.25100  0.64400  Biso   1.000  C
  C26      1.0000 0.49900  0.69310  0.89400  Biso   1.000  C
  C27      1.0000 0.55690  0.24900  0.64400  Biso   1.000  C
  C28      1.0000 0.50100  0.80690  0.89400  Biso   1.000  C
  C29      1.0000 0.94310  0.75100  0.14400  Biso   1.000  C
  C30      1.0000 0.99900  0.19310  0.39400  Biso   1.000  C
  C31      1.0000 0.05690  0.74900  0.14400  Biso   1.000  C
  C32      1.0000 0.00100  0.30690  0.39400  Biso   1.000  C
  C33      1.0000 0.13510  0.03170  0.17090  Biso   1.000  C
  C34      1.0000 0.71830  0.38510  0.42090  Biso   1.000  C
  C35      1.0000 0.86490  0.46830  0.17090  Biso   1.000  C
  C36      1.0000 0.28170  0.11490  0.42090  Biso   1.000  C
  C37      1.0000 0.63510  0.53170  0.67090  Biso   1.000  C
  C38      1.0000 0.21830  0.88510  0.92090  Biso   1.000  C
  C39      1.0000 0.36490  0.96830  0.67090  Biso   1.000  C
  C40      1.0000 0.78170  0.61490  0.92090  Biso   1.000  C
  C41      1.0000 0.86490  0.96830  0.82910  Biso   1.000  C
  C42      1.0000 0.78170  0.11490  0.07910  Biso   1.000  C
  C43      1.0000 0.13510  0.53170  0.82910  Biso   1.000  C
  C44      1.0000 0.21830  0.38510  0.07910  Biso   1.000  C
  C45      1.0000 0.36490  0.46830  0.32910  Biso   1.000  C
  C46      1.0000 0.28170  0.61490  0.57910  Biso   1.000  C
  C47      1.0000 0.63510  0.03170  0.32910  Biso   1.000  C
  C48      1.0000 0.71830  0.88510  0.57910  Biso   1.000  C
  H1       1.0000 0.14390  0.11440  0.17280  Biso   1.000  H
  H2       1.0000 0.63560  0.39390  0.42280  Biso   1.000  H
  H3       1.0000 0.85610  0.38560  0.17280  Biso   1.000  H
  H4       1.0000 0.36440  0.10610  0.42280  Biso   1.000  H
  H5       1.0000 0.64390  0.61440  0.67280  Biso   1.000  H
  H6       1.0000 0.13560  0.89390  0.92280  Biso   1.000  H
  H7       1.0000 0.35610  0.88560  0.67280  Biso   1.000  H
  H8       1.0000 0.86440  0.60610  0.92280  Biso   1.000  H
  H9       1.0000 0.85610  0.88560  0.82720  Biso   1.000  H
  H10      1.0000 0.86440  0.10610  0.07720  Biso   1.000  H
  H11      1.0000 0.14390  0.61440  0.82720  Biso   1.000  H
  H12      1.0000 0.13560  0.39390  0.07720  Biso   1.000  H
  H13      1.0000 0.35610  0.38560  0.32720  Biso   1.000  H
  H14      1.0000 0.36440  0.60610  0.57720  Biso   1.000  H
  H15      1.0000 0.64390  0.11440  0.32720  Biso   1.000  H
  H16      1.0000 0.63560  0.89390  0.57720  Biso   1.000  H
  H17      1.0000 0.12220  0.00230  0.21860  Biso   1.000  H
  H18      1.0000 0.74770  0.37220  0.46860  Biso   1.000  H
  H19      1.0000 0.87780  0.49770  0.21860  Biso   1.000  H
  H20      1.0000 0.25230  0.12780  0.46860  Biso   1.000  H
  H21      1.0000 0.62220  0.50230  0.71860  Biso   1.000  H
  H22      1.0000 0.24770  0.87220  0.96860  Biso   1.000  H
  H23      1.0000 0.37780  0.99770  0.71860  Biso   1.000  H
  H24      1.0000 0.75230  0.62780  0.96860  Biso   1.000  H
  H25      1.0000 0.87780  0.99770  0.78140  Biso   1.000  H
  H26      1.0000 0.75230  0.12780  0.03140  Biso   1.000  H
  H27      1.0000 0.12220  0.50230  0.78140  Biso   1.000  H
  H28      1.0000 0.24770  0.37220  0.03140  Biso   1.000  H
  H29      1.0000 0.37780  0.49770  0.28140  Biso   1.000  H
  H30      1.0000 0.25230  0.62780  0.53140  Biso   1.000  H
  H31      1.0000 0.62220  0.00230  0.28140  Biso   1.000  H
  H32      1.0000 0.74770  0.87220  0.53140  Biso   1.000  H
  H33      1.0000 0.07020  0.01240  0.14090  Biso   1.000  H
  H34      1.0000 0.73760  0.32020  0.39090  Biso   1.000  H
  H35      1.0000 0.92980  0.48760  0.14090  Biso   1.000  H
  H36      1.0000 0.26240  0.17980  0.39090  Biso   1.000  H
  H37      1.0000 0.57020  0.51240  0.64090  Biso   1.000  H
  H38      1.0000 0.23760  0.82020  0.89090  Biso   1.000  H
  H39      1.0000 0.42980  0.98760  0.64090  Biso   1.000  H
  H40      1.0000 0.76240  0.67980  0.89090  Biso   1.000  H
  H41      1.0000 0.92980  0.98760  0.85910  Biso   1.000  H
  H42      1.0000 0.76240  0.17980  0.10910  Biso   1.000  H
  H43      1.0000 0.07020  0.51240  0.85910  Biso   1.000  H
  H44      1.0000 0.23760  0.32020  0.10910  Biso   1.000  H
  H45      1.0000 0.42980  0.48760  0.35910  Biso   1.000  H
  H46      1.0000 0.26240  0.67980  0.60910  Biso   1.000  H
  H47      1.0000 0.57020  0.01240  0.35910  Biso   1.000  H
  H48      1.0000 0.73760  0.82020  0.60910  Biso   1.000  H
  C49      1.0000 0.60500  0.74200  0.42580  Biso   1.000  C
  C50      1.0000 0.00800  0.85500  0.67580  Biso   1.000  C
  C51      1.0000 0.39500  0.75800  0.42580  Biso   1.000  C
  C52      1.0000 0.99200  0.64500  0.67580  Biso   1.000  C
  C53      1.0000 0.10500  0.24200  0.92580  Biso   1.000  C
  C54      1.0000 0.50800  0.35500  0.17580  Biso   1.000  C
  C55      1.0000 0.89500  0.25800  0.92580  Biso   1.000  C
  C56      1.0000 0.49200  0.14500  0.17580  Biso   1.000  C
  C57      1.0000 0.39500  0.25800  0.57420  Biso   1.000  C
  C58      1.0000 0.49200  0.64500  0.82420  Biso   1.000  C
  C59      1.0000 0.60500  0.24200  0.57420  Biso   1.000  C
  C60      1.0000 0.50800  0.85500  0.82420  Biso   1.000  C
  C61      1.0000 0.89500  0.75800  0.07420  Biso   1.000  C
  C62      1.0000 0.99200  0.14500  0.32420  Biso   1.000  C
  C63      1.0000 0.10500  0.74200  0.07420  Biso   1.000  C
  C64      1.0000 0.00800  0.35500  0.32420  Biso   1.000  C
  H49      1.0000 0.68410  0.71390  0.42320  Biso   1.000  H
  H50      1.0000 0.03610  0.93410  0.67320  Biso   1.000  H
  H51      1.0000 0.31590  0.78610  0.42320  Biso   1.000  H
  H52      1.0000 0.96390  0.56590  0.67320  Biso   1.000  H
  H53      1.0000 0.18410  0.21390  0.92320  Biso   1.000  H
  H54      1.0000 0.53610  0.43410  0.17320  Biso   1.000  H
  H55      1.0000 0.81590  0.28610  0.92320  Biso   1.000  H
  H56      1.0000 0.46390  0.06590  0.17320  Biso   1.000  H
  H57      1.0000 0.31590  0.28610  0.57680  Biso   1.000  H
  H58      1.0000 0.46390  0.56590  0.82680  Biso   1.000  H
  H59      1.0000 0.68410  0.21390  0.57680  Biso   1.000  H
  H60      1.0000 0.53610  0.93410  0.82680  Biso   1.000  H
  H61      1.0000 0.81590  0.78610  0.07680  Biso   1.000  H
  H62      1.0000 0.96390  0.06590  0.32680  Biso   1.000  H
  H63      1.0000 0.18410  0.71390  0.07680  Biso   1.000  H
  H64      1.0000 0.03610  0.43410  0.32680  Biso   1.000  H
  H65      1.0000 0.56070  0.68810  0.45490  Biso   1.000  H
  H66      1.0000 0.06190  0.81070  0.70490  Biso   1.000  H
  H67      1.0000 0.43930  0.81190  0.45490  Biso   1.000  H
  H68      1.0000 0.93810  0.68930  0.70490  Biso   1.000  H
  H69      1.0000 0.06070  0.18810  0.95490  Biso   1.000  H
  H70      1.0000 0.56190  0.31070  0.20490  Biso   1.000  H
  H71      1.0000 0.93930  0.31190  0.95490  Biso   1.000  H
  H72      1.0000 0.43810  0.18930  0.20490  Biso   1.000  H
  H73      1.0000 0.43930  0.31190  0.54510  Biso   1.000  H
  H74      1.0000 0.43810  0.68930  0.79510  Biso   1.000  H
  H75      1.0000 0.56070  0.18810  0.54510  Biso   1.000  H
  H76      1.0000 0.56190  0.81070  0.79510  Biso   1.000  H
  H77      1.0000 0.93930  0.81190  0.04510  Biso   1.000  H
  H78      1.0000 0.93810  0.18930  0.29510  Biso   1.000  H
  H79      1.0000 0.06070  0.68810  0.04510  Biso   1.000  H
  H80      1.0000 0.06190  0.31070  0.29510  Biso   1.000  H
  H81      1.0000 0.60460  0.81640  0.44860  Biso   1.000  H
  H82      1.0000 0.93360  0.85460  0.69860  Biso   1.000  H
  H83      1.0000 0.39540  0.68360  0.44860  Biso   1.000  H
  H84      1.0000 0.06640  0.64540  0.69860  Biso   1.000  H
  H85      1.0000 0.10460  0.31640  0.94860  Biso   1.000  H
  H86      1.0000 0.43360  0.35460  0.19860  Biso   1.000  H
  H87      1.0000 0.89540  0.18360  0.94860  Biso   1.000  H
  H88      1.0000 0.56640  0.14540  0.19860  Biso   1.000  H
  H89      1.0000 0.39540  0.18360  0.55140  Biso   1.000  H
  H90      1.0000 0.56640  0.64540  0.80140  Biso   1.000  H
  H91      1.0000 0.60460  0.31640  0.55140  Biso   1.000  H
  H92      1.0000 0.43360  0.85460  0.80140  Biso   1.000  H
  H93      1.0000 0.89540  0.68360  0.05140  Biso   1.000  H
  H94      1.0000 0.06640  0.14540  0.30140  Biso   1.000  H
  H95      1.0000 0.10460  0.81640  0.05140  Biso   1.000  H
  H96      1.0000 0.93360  0.35460  0.30140  Biso   1.000  H
