data_image0
_cell_length_a       12.224
_cell_length_b       11.035
_cell_length_c       9.4864
_cell_angle_alpha    90
_cell_angle_beta     110.77
_cell_angle_gamma    90

_symmetry_space_group_name_H-M    "P 1"
_symmetry_int_tables_number       1

loop_
  _symmetry_equiv_pos_as_xyz
  'x, y, z'

loop_
  _atom_site_label
  _atom_site_occupancy
  _atom_site_fract_x
  _atom_site_fract_y
  _atom_site_fract_z
  _atom_site_thermal_displace_type
  _atom_site_B_iso_or_equiv
  _atom_site_type_symbol
  Cu1      1.0000 0.00000  0.00876  0.25000  Biso   1.000  Cu
  Cu2      1.0000 0.50000  0.50876  0.25000  Biso   1.000  Cu
  Cu3      1.0000 0.00000  0.99124  0.75000  Biso   1.000  Cu
  Cu4      1.0000 0.50000  0.49124  0.75000  Biso   1.000  Cu
  O1       1.0000 0.91150  0.00890  0.00560  Biso   1.000  O
  O2       1.0000 0.08850  0.00890  0.49440  Biso   1.000  O
  O3       1.0000 0.41150  0.50890  0.00560  Biso   1.000  O
  O4       1.0000 0.58850  0.50890  0.49440  Biso   1.000  O
  O5       1.0000 0.08850  0.99110  0.99440  Biso   1.000  O
  O6       1.0000 0.91150  0.99110  0.50560  Biso   1.000  O
  O7       1.0000 0.58850  0.49110  0.99440  Biso   1.000  O
  O8       1.0000 0.41150  0.49110  0.50560  Biso   1.000  O
  O9       1.0000 0.81600  0.01360  0.15080  Biso   1.000  O
  O10      1.0000 0.18400  0.01360  0.34920  Biso   1.000  O
  O11      1.0000 0.31600  0.51360  0.15080  Biso   1.000  O
  O12      1.0000 0.68400  0.51360  0.34920  Biso   1.000  O
  O13      1.0000 0.18400  0.98640  0.84920  Biso   1.000  O
  O14      1.0000 0.81600  0.98640  0.65080  Biso   1.000  O
  O15      1.0000 0.68400  0.48640  0.84920  Biso   1.000  O
  O16      1.0000 0.31600  0.48640  0.65080  Biso   1.000  O
  N1       1.0000 0.00000  0.82850  0.25000  Biso   1.000  N
  N2       1.0000 0.50000  0.32850  0.25000  Biso   1.000  N
  N3       1.0000 0.00000  0.17150  0.75000  Biso   1.000  N
  N4       1.0000 0.50000  0.67150  0.75000  Biso   1.000  N
  N5       1.0000 0.00000  0.18900  0.25000  Biso   1.000  N
  N6       1.0000 0.50000  0.68900  0.25000  Biso   1.000  N
  N7       1.0000 0.00000  0.81100  0.75000  Biso   1.000  N
  N8       1.0000 0.50000  0.31100  0.75000  Biso   1.000  N
  C1       1.0000 0.08800  0.76690  0.23140  Biso   1.000  C
  C2       1.0000 0.91200  0.76690  0.26860  Biso   1.000  C
  C3       1.0000 0.58800  0.26690  0.23140  Biso   1.000  C
  C4       1.0000 0.41200  0.26690  0.26860  Biso   1.000  C
  C5       1.0000 0.91200  0.23310  0.76860  Biso   1.000  C
  C6       1.0000 0.08800  0.23310  0.73140  Biso   1.000  C
  C7       1.0000 0.41200  0.73310  0.76860  Biso   1.000  C
  C8       1.0000 0.58800  0.73310  0.73140  Biso   1.000  C
  H1       1.0000 0.14920  0.80960  0.21800  Biso   1.000  H
  H2       1.0000 0.85080  0.80960  0.28200  Biso   1.000  H
  H3       1.0000 0.64920  0.30960  0.21800  Biso   1.000  H
  H4       1.0000 0.35080  0.30960  0.28200  Biso   1.000  H
  H5       1.0000 0.85080  0.19040  0.78200  Biso   1.000  H
  H6       1.0000 0.14920  0.19040  0.71800  Biso   1.000  H
  H7       1.0000 0.35080  0.69040  0.78200  Biso   1.000  H
  H8       1.0000 0.64920  0.69040  0.71800  Biso   1.000  H
  C9       1.0000 0.09070  0.64070  0.23140  Biso   1.000  C
  C10      1.0000 0.90930  0.64070  0.26860  Biso   1.000  C
  C11      1.0000 0.59070  0.14070  0.23140  Biso   1.000  C
  C12      1.0000 0.40930  0.14070  0.26860  Biso   1.000  C
  C13      1.0000 0.90930  0.35930  0.76860  Biso   1.000  C
  C14      1.0000 0.09070  0.35930  0.73140  Biso   1.000  C
  C15      1.0000 0.40930  0.85930  0.76860  Biso   1.000  C
  C16      1.0000 0.59070  0.85930  0.73140  Biso   1.000  C
  H9       1.0000 0.15330  0.60000  0.21890  Biso   1.000  H
  H10      1.0000 0.84670  0.60000  0.28110  Biso   1.000  H
  H11      1.0000 0.65330  0.10000  0.21890  Biso   1.000  H
  H12      1.0000 0.34670  0.10000  0.28110  Biso   1.000  H
  H13      1.0000 0.84670  0.40000  0.78110  Biso   1.000  H
  H14      1.0000 0.15330  0.40000  0.71890  Biso   1.000  H
  H15      1.0000 0.34670  0.90000  0.78110  Biso   1.000  H
  H16      1.0000 0.65330  0.90000  0.71890  Biso   1.000  H
  C17      1.0000 0.00000  0.44140  0.25000  Biso   1.000  C
  C18      1.0000 0.50000  0.94140  0.25000  Biso   1.000  C
  C19      1.0000 0.00000  0.55860  0.75000  Biso   1.000  C
  C20      1.0000 0.50000  0.05860  0.75000  Biso   1.000  C
  C21      1.0000 0.06340  0.37680  0.18040  Biso   1.000  C
  C22      1.0000 0.93660  0.37680  0.31960  Biso   1.000  C
  C23      1.0000 0.56340  0.87680  0.18040  Biso   1.000  C
  C24      1.0000 0.43660  0.87680  0.31960  Biso   1.000  C
  C25      1.0000 0.93660  0.62320  0.81960  Biso   1.000  C
  C26      1.0000 0.06340  0.62320  0.68040  Biso   1.000  C
  C27      1.0000 0.43660  0.12320  0.81960  Biso   1.000  C
  C28      1.0000 0.56340  0.12320  0.68040  Biso   1.000  C
  H17      1.0000 0.10710  0.41720  0.13250  Biso   1.000  H
  H18      1.0000 0.89290  0.41720  0.36750  Biso   1.000  H
  H19      1.0000 0.60710  0.91720  0.13250  Biso   1.000  H
  H20      1.0000 0.39290  0.91720  0.36750  Biso   1.000  H
  H21      1.0000 0.89290  0.58280  0.86750  Biso   1.000  H
  H22      1.0000 0.10710  0.58280  0.63250  Biso   1.000  H
  H23      1.0000 0.39290  0.08280  0.86750  Biso   1.000  H
  H24      1.0000 0.60710  0.08280  0.63250  Biso   1.000  H
  C29      1.0000 0.00000  0.57620  0.25000  Biso   1.000  C
  C30      1.0000 0.50000  0.07620  0.25000  Biso   1.000  C
  C31      1.0000 0.00000  0.42380  0.75000  Biso   1.000  C
  C32      1.0000 0.50000  0.92380  0.75000  Biso   1.000  C
  C33      1.0000 0.79960  0.01710  0.02030  Biso   1.000  C
  C34      1.0000 0.20040  0.01710  0.47970  Biso   1.000  C
  C35      1.0000 0.29960  0.51710  0.02030  Biso   1.000  C
  C36      1.0000 0.70040  0.51710  0.47970  Biso   1.000  C
  C37      1.0000 0.20040  0.98290  0.97970  Biso   1.000  C
  C38      1.0000 0.79960  0.98290  0.52030  Biso   1.000  C
  C39      1.0000 0.70040  0.48290  0.97970  Biso   1.000  C
  C40      1.0000 0.29960  0.48290  0.52030  Biso   1.000  C
  H25      1.0000 0.74000  0.07200  0.00700  Biso   1.000  H
  H26      1.0000 0.26000  0.07200  0.49300  Biso   1.000  H
  H27      1.0000 0.24000  0.57200  0.00700  Biso   1.000  H
  H28      1.0000 0.76000  0.57200  0.49300  Biso   1.000  H
  H29      1.0000 0.26000  0.92800  0.99300  Biso   1.000  H
  H30      1.0000 0.74000  0.92800  0.50700  Biso   1.000  H
  H31      1.0000 0.76000  0.42800  0.99300  Biso   1.000  H
  H32      1.0000 0.24000  0.42800  0.50700  Biso   1.000  H
  C41      1.0000 0.06120  0.25100  0.18260  Biso   1.000  C
  C42      1.0000 0.93880  0.25100  0.31740  Biso   1.000  C
  C43      1.0000 0.56120  0.75100  0.18260  Biso   1.000  C
  C44      1.0000 0.43880  0.75100  0.31740  Biso   1.000  C
  C45      1.0000 0.93880  0.74900  0.81740  Biso   1.000  C
  C46      1.0000 0.06120  0.74900  0.68260  Biso   1.000  C
  C47      1.0000 0.43880  0.24900  0.81740  Biso   1.000  C
  C48      1.0000 0.56120  0.24900  0.68260  Biso   1.000  C
  H33      1.0000 0.10410  0.20840  0.13520  Biso   1.000  H
  H34      1.0000 0.89590  0.20840  0.36480  Biso   1.000  H
  H35      1.0000 0.60410  0.70840  0.13520  Biso   1.000  H
  H36      1.0000 0.39590  0.70840  0.36480  Biso   1.000  H
  H37      1.0000 0.89590  0.79160  0.86480  Biso   1.000  H
  H38      1.0000 0.10410  0.79160  0.63520  Biso   1.000  H
  H39      1.0000 0.39590  0.29160  0.86480  Biso   1.000  H
  H40      1.0000 0.60410  0.29160  0.63520  Biso   1.000  H
  O17      1.0000 0.83500  0.01510  0.96220  Biso   1.000  O
  O18      1.0000 0.16500  0.01510  0.53780  Biso   1.000  O
  O19      1.0000 0.33500  0.51510  0.96220  Biso   1.000  O
  O20      1.0000 0.66500  0.51510  0.53780  Biso   1.000  O
  O21      1.0000 0.16500  0.98490  0.03780  Biso   1.000  O
  O22      1.0000 0.83500  0.98490  0.46220  Biso   1.000  O
  O23      1.0000 0.66500  0.48490  0.03780  Biso   1.000  O
  O24      1.0000 0.33500  0.48490  0.46220  Biso   1.000  O
