data_image0
_cell_length_a       13.1377
_cell_length_b       9.9365
_cell_length_c       15.2527
_cell_angle_alpha    90
_cell_angle_beta     105.825
_cell_angle_gamma    90

_symmetry_space_group_name_H-M    "P 1"
_symmetry_int_tables_number       1

loop_
  _symmetry_equiv_pos_as_xyz
  'x, y, z'

loop_
  _atom_site_label
  _atom_site_occupancy
  _atom_site_fract_x
  _atom_site_fract_y
  _atom_site_fract_z
  _atom_site_thermal_displace_type
  _atom_site_B_iso_or_equiv
  _atom_site_type_symbol
  Cu1      1.0000 0.50000  0.57209  0.75000  Biso   1.000  Cu
  Cu2      1.0000 0.00000  0.07209  0.75000  Biso   1.000  Cu
  Cu3      1.0000 0.50000  0.42791  0.25000  Biso   1.000  Cu
  Cu4      1.0000 0.00000  0.92791  0.25000  Biso   1.000  Cu
  N1       1.0000 0.41966  0.42063  0.78604  Biso   1.000  N
  N2       1.0000 0.58034  0.42063  0.71396  Biso   1.000  N
  N3       1.0000 0.91966  0.92063  0.78604  Biso   1.000  N
  N4       1.0000 0.08034  0.92063  0.71396  Biso   1.000  N
  N5       1.0000 0.58034  0.57937  0.21396  Biso   1.000  N
  N6       1.0000 0.41966  0.57937  0.28604  Biso   1.000  N
  N7       1.0000 0.08034  0.07937  0.21396  Biso   1.000  N
  N8       1.0000 0.91966  0.07937  0.28604  Biso   1.000  N
  O1       1.0000 0.56039  0.70843  0.68503  Biso   1.000  O
  O2       1.0000 0.43961  0.70843  0.81497  Biso   1.000  O
  O3       1.0000 0.06039  0.20843  0.68503  Biso   1.000  O
  O4       1.0000 0.93961  0.20843  0.81497  Biso   1.000  O
  O5       1.0000 0.43961  0.29157  0.31497  Biso   1.000  O
  O6       1.0000 0.56039  0.29157  0.18503  Biso   1.000  O
  O7       1.0000 0.93961  0.79157  0.31497  Biso   1.000  O
  O8       1.0000 0.06039  0.79157  0.18503  Biso   1.000  O
  O9       1.0000 0.59822  0.88697  0.55984  Biso   1.000  O
  O10      1.0000 0.40178  0.88697  0.94016  Biso   1.000  O
  O11      1.0000 0.09822  0.38697  0.55984  Biso   1.000  O
  O12      1.0000 0.90178  0.38697  0.94016  Biso   1.000  O
  O13      1.0000 0.40178  0.11303  0.44016  Biso   1.000  O
  O14      1.0000 0.59822  0.11303  0.05984  Biso   1.000  O
  O15      1.0000 0.90178  0.61303  0.44016  Biso   1.000  O
  O16      1.0000 0.09822  0.61303  0.05984  Biso   1.000  O
  O17      1.0000 0.40376  0.65567  0.59490  Biso   1.000  O
  O18      1.0000 0.59624  0.65567  0.90510  Biso   1.000  O
  O19      1.0000 0.90376  0.15567  0.59490  Biso   1.000  O
  O20      1.0000 0.09624  0.15567  0.90510  Biso   1.000  O
  O21      1.0000 0.59624  0.34433  0.40510  Biso   1.000  O
  O22      1.0000 0.40376  0.34433  0.09490  Biso   1.000  O
  O23      1.0000 0.09624  0.84433  0.40510  Biso   1.000  O
  O24      1.0000 0.90376  0.84433  0.09490  Biso   1.000  O
  C1       1.0000 0.48599  0.72210  0.61267  Biso   1.000  C
  C2       1.0000 0.51401  0.72210  0.88733  Biso   1.000  C
  C3       1.0000 0.98599  0.22210  0.61267  Biso   1.000  C
  C4       1.0000 0.01401  0.22210  0.88733  Biso   1.000  C
  C5       1.0000 0.51401  0.27790  0.38733  Biso   1.000  C
  C6       1.0000 0.48599  0.27790  0.11267  Biso   1.000  C
  C7       1.0000 0.01401  0.77790  0.38733  Biso   1.000  C
  C8       1.0000 0.98599  0.77790  0.11267  Biso   1.000  C
  C9       1.0000 0.33717  0.42500  0.82105  Biso   1.000  C
  C10      1.0000 0.66283  0.42500  0.67895  Biso   1.000  C
  C11      1.0000 0.83717  0.92500  0.82105  Biso   1.000  C
  C12      1.0000 0.16283  0.92500  0.67895  Biso   1.000  C
  C13      1.0000 0.66283  0.57500  0.17895  Biso   1.000  C
  C14      1.0000 0.33717  0.57500  0.32105  Biso   1.000  C
  C15      1.0000 0.16283  0.07500  0.17895  Biso   1.000  C
  C16      1.0000 0.83717  0.07500  0.32105  Biso   1.000  C
  H1       1.0000 0.31270  0.50810  0.83460  Biso   1.000  H
  H2       1.0000 0.68730  0.50810  0.66540  Biso   1.000  H
  H3       1.0000 0.81270  0.00810  0.83460  Biso   1.000  H
  H4       1.0000 0.18730  0.00810  0.66540  Biso   1.000  H
  H5       1.0000 0.68730  0.49190  0.16540  Biso   1.000  H
  H6       1.0000 0.31270  0.49190  0.33460  Biso   1.000  H
  H7       1.0000 0.18730  0.99190  0.16540  Biso   1.000  H
  H8       1.0000 0.81270  0.99190  0.33460  Biso   1.000  H
  C17      1.0000 0.67107  0.81410  0.52909  Biso   1.000  C
  C18      1.0000 0.32893  0.81410  0.97091  Biso   1.000  C
  C19      1.0000 0.17107  0.31410  0.52909  Biso   1.000  C
  C20      1.0000 0.82893  0.31410  0.97091  Biso   1.000  C
  C21      1.0000 0.32893  0.18590  0.47091  Biso   1.000  C
  C22      1.0000 0.67107  0.18590  0.02909  Biso   1.000  C
  C23      1.0000 0.82893  0.68590  0.47091  Biso   1.000  C
  C24      1.0000 0.17107  0.68590  0.02909  Biso   1.000  C
  C25      1.0000 0.49570  0.83040  0.54575  Biso   1.000  C
  C26      1.0000 0.50430  0.83040  0.95425  Biso   1.000  C
  C27      1.0000 0.99570  0.33040  0.54575  Biso   1.000  C
  C28      1.0000 0.00430  0.33040  0.95425  Biso   1.000  C
  C29      1.0000 0.50430  0.16960  0.45425  Biso   1.000  C
  C30      1.0000 0.49570  0.16960  0.04575  Biso   1.000  C
  C31      1.0000 0.00430  0.66960  0.45425  Biso   1.000  C
  C32      1.0000 0.99570  0.66960  0.04575  Biso   1.000  C
  H9       1.0000 0.47410  0.79270  0.48480  Biso   1.000  H
  H10      1.0000 0.52590  0.79270  0.01520  Biso   1.000  H
  H11      1.0000 0.97410  0.29270  0.48480  Biso   1.000  H
  H12      1.0000 0.02590  0.29270  0.01520  Biso   1.000  H
  H13      1.0000 0.52590  0.20730  0.51520  Biso   1.000  H
  H14      1.0000 0.47410  0.20730  0.98480  Biso   1.000  H
  H15      1.0000 0.02590  0.70730  0.51520  Biso   1.000  H
  H16      1.0000 0.97410  0.70730  0.98480  Biso   1.000  H
  H17      1.0000 0.44660  0.90220  0.54840  Biso   1.000  H
  H18      1.0000 0.55340  0.90220  0.95160  Biso   1.000  H
  H19      1.0000 0.94660  0.40220  0.54840  Biso   1.000  H
  H20      1.0000 0.05340  0.40220  0.95160  Biso   1.000  H
  H21      1.0000 0.55340  0.09780  0.45160  Biso   1.000  H
  H22      1.0000 0.44660  0.09780  0.04840  Biso   1.000  H
  H23      1.0000 0.05340  0.59780  0.45160  Biso   1.000  H
  H24      1.0000 0.94660  0.59780  0.04840  Biso   1.000  H
  C33      1.0000 0.65630  0.68330  0.49623  Biso   1.000  C
  C34      1.0000 0.34370  0.68330  0.00377  Biso   1.000  C
  C35      1.0000 0.15630  0.18330  0.49623  Biso   1.000  C
  C36      1.0000 0.84370  0.18330  0.00377  Biso   1.000  C
  C37      1.0000 0.34370  0.31670  0.50377  Biso   1.000  C
  C38      1.0000 0.65630  0.31670  0.99623  Biso   1.000  C
  C39      1.0000 0.84370  0.81670  0.50377  Biso   1.000  C
  C40      1.0000 0.15630  0.81670  0.99623  Biso   1.000  C
  H25      1.0000 0.59340  0.63820  0.49340  Biso   1.000  H
  H26      1.0000 0.40660  0.63820  0.00660  Biso   1.000  H
  H27      1.0000 0.09340  0.13820  0.49340  Biso   1.000  H
  H28      1.0000 0.90660  0.13820  0.00660  Biso   1.000  H
  H29      1.0000 0.40660  0.36180  0.50660  Biso   1.000  H
  H30      1.0000 0.59340  0.36180  0.99340  Biso   1.000  H
  H31      1.0000 0.90660  0.86180  0.50660  Biso   1.000  H
  H32      1.0000 0.09340  0.86180  0.99340  Biso   1.000  H
  C41      1.0000 0.76490  0.87950  0.53221  Biso   1.000  C
  C42      1.0000 0.23510  0.87950  0.96779  Biso   1.000  C
  C43      1.0000 0.26490  0.37950  0.53221  Biso   1.000  C
  C44      1.0000 0.73510  0.37950  0.96779  Biso   1.000  C
  C45      1.0000 0.23510  0.12050  0.46779  Biso   1.000  C
  C46      1.0000 0.76490  0.12050  0.03221  Biso   1.000  C
  C47      1.0000 0.73510  0.62050  0.46779  Biso   1.000  C
  C48      1.0000 0.26490  0.62050  0.03221  Biso   1.000  C
  H33      1.0000 0.77500  0.96730  0.55390  Biso   1.000  H
  H34      1.0000 0.22500  0.96730  0.94610  Biso   1.000  H
  H35      1.0000 0.27500  0.46730  0.55390  Biso   1.000  H
  H36      1.0000 0.72500  0.46730  0.94610  Biso   1.000  H
  H37      1.0000 0.22500  0.03270  0.44610  Biso   1.000  H
  H38      1.0000 0.77500  0.03270  0.05390  Biso   1.000  H
  H39      1.0000 0.72500  0.53270  0.44610  Biso   1.000  H
  H40      1.0000 0.27500  0.53270  0.05390  Biso   1.000  H
  C49      1.0000 0.45530  0.29820  0.76821  Biso   1.000  C
  C50      1.0000 0.54470  0.29820  0.73179  Biso   1.000  C
  C51      1.0000 0.95530  0.79820  0.76821  Biso   1.000  C
  C52      1.0000 0.04470  0.79820  0.73179  Biso   1.000  C
  C53      1.0000 0.54470  0.70180  0.23179  Biso   1.000  C
  C54      1.0000 0.45530  0.70180  0.26821  Biso   1.000  C
  C55      1.0000 0.04470  0.20180  0.23179  Biso   1.000  C
  C56      1.0000 0.95530  0.20180  0.26821  Biso   1.000  C
  C57      1.0000 0.40970  0.17650  0.78418  Biso   1.000  C
  C58      1.0000 0.59030  0.17650  0.71582  Biso   1.000  C
  C59      1.0000 0.90970  0.67650  0.78418  Biso   1.000  C
  C60      1.0000 0.09030  0.67650  0.71582  Biso   1.000  C
  C61      1.0000 0.59030  0.82350  0.21582  Biso   1.000  C
  C62      1.0000 0.40970  0.82350  0.28418  Biso   1.000  C
  C63      1.0000 0.09030  0.32350  0.21582  Biso   1.000  C
  C64      1.0000 0.90970  0.32350  0.28418  Biso   1.000  C
  C65      1.0000 0.28670  0.30860  0.83794  Biso   1.000  C
  C66      1.0000 0.71330  0.30860  0.66206  Biso   1.000  C
  C67      1.0000 0.78670  0.80860  0.83794  Biso   1.000  C
  C68      1.0000 0.21330  0.80860  0.66206  Biso   1.000  C
  C69      1.0000 0.71330  0.69140  0.16206  Biso   1.000  C
  C70      1.0000 0.28670  0.69140  0.33794  Biso   1.000  C
  C71      1.0000 0.21330  0.19140  0.16206  Biso   1.000  C
  C72      1.0000 0.78670  0.19140  0.33794  Biso   1.000  C
  H41      1.0000 0.22910  0.31470  0.86210  Biso   1.000  H
  H42      1.0000 0.77090  0.31470  0.63790  Biso   1.000  H
  H43      1.0000 0.72910  0.81470  0.86210  Biso   1.000  H
  H44      1.0000 0.27090  0.81470  0.63790  Biso   1.000  H
  H45      1.0000 0.77090  0.68530  0.13790  Biso   1.000  H
  H46      1.0000 0.22910  0.68530  0.36210  Biso   1.000  H
  H47      1.0000 0.27090  0.18530  0.13790  Biso   1.000  H
  H48      1.0000 0.72910  0.18530  0.36210  Biso   1.000  H
  C73      1.0000 0.32150  0.18640  0.81925  Biso   1.000  C
  C74      1.0000 0.67850  0.18640  0.68075  Biso   1.000  C
  C75      1.0000 0.82150  0.68640  0.81925  Biso   1.000  C
  C76      1.0000 0.17850  0.68640  0.68075  Biso   1.000  C
  C77      1.0000 0.67850  0.81360  0.18075  Biso   1.000  C
  C78      1.0000 0.32150  0.81360  0.31925  Biso   1.000  C
  C79      1.0000 0.17850  0.31360  0.18075  Biso   1.000  C
  C80      1.0000 0.82150  0.31360  0.31925  Biso   1.000  C
  H49      1.0000 0.28690  0.10880  0.82960  Biso   1.000  H
  H50      1.0000 0.71310  0.10880  0.67040  Biso   1.000  H
  H51      1.0000 0.78690  0.60880  0.82960  Biso   1.000  H
  H52      1.0000 0.21310  0.60880  0.67040  Biso   1.000  H
  H53      1.0000 0.71310  0.89120  0.17040  Biso   1.000  H
  H54      1.0000 0.28690  0.89120  0.32960  Biso   1.000  H
  H55      1.0000 0.21310  0.39120  0.17040  Biso   1.000  H
  H56      1.0000 0.78690  0.39120  0.32960  Biso   1.000  H
  C81      1.0000 0.45630  0.05340  0.76582  Biso   1.000  C
  C82      1.0000 0.54370  0.05340  0.73418  Biso   1.000  C
  C83      1.0000 0.95630  0.55340  0.76582  Biso   1.000  C
  C84      1.0000 0.04370  0.55340  0.73418  Biso   1.000  C
  C85      1.0000 0.54370  0.94660  0.23418  Biso   1.000  C
  C86      1.0000 0.45630  0.94660  0.26582  Biso   1.000  C
  C87      1.0000 0.04370  0.44660  0.23418  Biso   1.000  C
  C88      1.0000 0.95630  0.44660  0.26582  Biso   1.000  C
  H57      1.0000 0.42650  0.97190  0.77570  Biso   1.000  H
  H58      1.0000 0.57350  0.97190  0.72430  Biso   1.000  H
  H59      1.0000 0.92650  0.47190  0.77570  Biso   1.000  H
  H60      1.0000 0.07350  0.47190  0.72430  Biso   1.000  H
  H61      1.0000 0.57350  0.02810  0.22430  Biso   1.000  H
  H62      1.0000 0.42650  0.02810  0.27570  Biso   1.000  H
  H63      1.0000 0.07350  0.52810  0.22430  Biso   1.000  H
  H64      1.0000 0.92650  0.52810  0.27570  Biso   1.000  H
