data_image0
_cell_length_a       6.5854
_cell_length_b       7.2613
_cell_length_c       9.6894
_cell_angle_alpha    74.731
_cell_angle_beta     82.729
_cell_angle_gamma    79.178

_symmetry_space_group_name_H-M    "P 1"
_symmetry_int_tables_number       1

loop_
  _symmetry_equiv_pos_as_xyz
  'x, y, z'

loop_
  _atom_site_label
  _atom_site_occupancy
  _atom_site_fract_x
  _atom_site_fract_y
  _atom_site_fract_z
  _atom_site_thermal_displace_type
  _atom_site_B_iso_or_equiv
  _atom_site_type_symbol
  Cu1      1.0000 0.50000  0.00000  0.50000  Biso   1.000  Cu
  N1       1.0000 0.32074  0.23102  0.38146  Biso   1.000  N
  N2       1.0000 0.67926  0.76898  0.61854  Biso   1.000  N
  N3       1.0000 0.11194  0.23902  0.38482  Biso   1.000  N
  N4       1.0000 0.88806  0.76098  0.61518  Biso   1.000  N
  N5       1.0000 0.18816  0.49704  0.23513  Biso   1.000  N
  N6       1.0000 0.81184  0.50296  0.76487  Biso   1.000  N
  N7       1.0000 0.03274  0.39517  0.29825  Biso   1.000  N
  N8       1.0000 0.96726  0.60483  0.70175  Biso   1.000  N
  N9       1.0000 0.55396  0.44520  0.25225  Biso   1.000  N
  N10      1.0000 0.44604  0.55480  0.74775  Biso   1.000  N
  H1       1.0000 0.65970  0.37270  0.29280  Biso   1.000  H
  H2       1.0000 0.34030  0.62730  0.70720  Biso   1.000  H
  H3       1.0000 0.56880  0.55160  0.18980  Biso   1.000  H
  H4       1.0000 0.43120  0.44840  0.81020  Biso   1.000  H
  C1       1.0000 0.36432  0.39199  0.28660  Biso   1.000  C
  C2       1.0000 0.63568  0.60801  0.71340  Biso   1.000  C
  N11      1.0000 0.33549  0.82933  0.44088  Biso   1.000  N
  N12      1.0000 0.66451  0.17067  0.55912  Biso   1.000  N
  H5       1.0000 0.35830  0.84140  0.34660  Biso   1.000  H
  H6       1.0000 0.64170  0.15860  0.65340  Biso   1.000  H
  H7       1.0000 0.20100  0.86470  0.46300  Biso   1.000  H
  H8       1.0000 0.79900  0.13530  0.53700  Biso   1.000  H
  H9       1.0000 0.37470  0.70670  0.48690  Biso   1.000  H
  H10      1.0000 0.62530  0.29330  0.51310  Biso   1.000  H
  B1       1.0000 0.15853  0.69204  0.11723  Biso   1.000  B
  B2       1.0000 0.84147  0.30796  0.88277  Biso   1.000  B
  N13      1.0000 0.95321  0.81615  0.15592  Biso   1.000  N
  N14      1.0000 0.04679  0.18385  0.84408  Biso   1.000  N
  N15      1.0000 0.92895  0.90701  0.26424  Biso   1.000  N
  N16      1.0000 0.07105  0.09299  0.73576  Biso   1.000  N
  N17      1.0000 0.63277  0.96544  0.16820  Biso   1.000  N
  N18      1.0000 0.36723  0.03456  0.83180  Biso   1.000  N
  N19      1.0000 0.72666  0.78167  0.99258  Biso   1.000  N
  N20      1.0000 0.27334  0.21833  0.00742  Biso   1.000  N
  H11      1.0000 0.60320  0.80660  0.96500  Biso   1.000  H
  H12      1.0000 0.39680  0.19340  0.03500  Biso   1.000  H
  H13      1.0000 0.82310  0.71060  0.95260  Biso   1.000  H
  H14      1.0000 0.17690  0.28940  0.04740  Biso   1.000  H
  N21      1.0000 0.73924  0.99360  0.27037  Biso   1.000  N
  N22      1.0000 0.26076  0.00640  0.72963  Biso   1.000  N
  C3       1.0000 0.76936  0.85448  0.09926  Biso   1.000  C
  C4       1.0000 0.23064  0.14552  0.90074  Biso   1.000  C
  H15      1.0000 0.14800  0.66200  0.01300  Biso   1.000  H
  H16      1.0000 0.85200  0.33800  0.98700  Biso   1.000  H
  H17      1.0000 0.29100  0.77700  0.12400  Biso   1.000  H
  H18      1.0000 0.70900  0.22300  0.87600  Biso   1.000  H
