data_image0
_cell_length_a       8.9178
_cell_length_b       10.4394
_cell_length_c       11.3321
_cell_angle_alpha    68.173
_cell_angle_beta     71.994
_cell_angle_gamma    76.598

_symmetry_space_group_name_H-M    "P 1"
_symmetry_int_tables_number       1

loop_
  _symmetry_equiv_pos_as_xyz
  'x, y, z'

loop_
  _atom_site_label
  _atom_site_occupancy
  _atom_site_fract_x
  _atom_site_fract_y
  _atom_site_fract_z
  _atom_site_thermal_displace_type
  _atom_site_B_iso_or_equiv
  _atom_site_type_symbol
  V1       1.0000 0.54907  0.21797  0.01877  Biso   1.000  V
  V2       1.0000 0.45093  0.78203  0.98123  Biso   1.000  V
  V3       1.0000 0.13677  0.25712  0.15998  Biso   1.000  V
  V4       1.0000 0.86323  0.74288  0.84002  Biso   1.000  V
  V5       1.0000 0.77832  0.42156  0.06458  Biso   1.000  V
  V6       1.0000 0.22168  0.57844  0.93542  Biso   1.000  V
  V7       1.0000 0.82906  0.93482  0.01058  Biso   1.000  V
  V8       1.0000 0.17094  0.06518  0.98942  Biso   1.000  V
  Cu1      1.0000 0.39704  0.35883  0.74598  Biso   1.000  Cu
  Cu2      1.0000 0.60296  0.64117  0.25402  Biso   1.000  Cu
  O1       1.0000 0.80890  0.78170  0.11700  Biso   1.000  O
  O2       1.0000 0.19110  0.21830  0.88300  Biso   1.000  O
  O3       1.0000 0.00000  0.00000  0.00000  Biso   1.000  O
  O4       1.0000 0.93250  0.30940  0.11590  Biso   1.000  O
  O5       1.0000 0.06750  0.69060  0.88410  Biso   1.000  O
  O6       1.0000 0.53160  0.26880  0.86670  Biso   1.000  O
  O7       1.0000 0.46840  0.73120  0.13330  Biso   1.000  O
  O8       1.0000 0.65430  0.04760  0.05420  Biso   1.000  O
  O9       1.0000 0.34570  0.95240  0.94580  Biso   1.000  O
  O10      1.0000 0.65370  0.32530  0.03980  Biso   1.000  O
  O11      1.0000 0.34630  0.67470  0.96020  Biso   1.000  O
  O12      1.0000 0.37170  0.21760  0.12150  Biso   1.000  O
  O13      1.0000 0.62830  0.78240  0.87850  Biso   1.000  O
  O14      1.0000 0.09190  0.22790  0.31370  Biso   1.000  O
  O15      1.0000 0.90810  0.77210  0.68630  Biso   1.000  O
  O16      1.0000 0.16040  0.45370  0.07710  Biso   1.000  O
  O17      1.0000 0.83960  0.54630  0.92290  Biso   1.000  O
  O18      1.0000 0.15140  0.07780  0.13820  Biso   1.000  O
  O19      1.0000 0.84860  0.92220  0.86180  Biso   1.000  O
  O20      1.0000 0.67750  0.49350  0.17860  Biso   1.000  O
  O21      1.0000 0.32250  0.50650  0.82140  Biso   1.000  O
  C1       1.0000 0.19180  0.57600  0.59050  Biso   1.000  C
  C2       1.0000 0.80820  0.42400  0.40950  Biso   1.000  C
  H1       1.0000 0.16140  0.61220  0.65930  Biso   1.000  H
  H2       1.0000 0.83860  0.38780  0.34070  Biso   1.000  H
  C3       1.0000 0.12550  0.64110  0.48620  Biso   1.000  C
  C4       1.0000 0.87450  0.35890  0.51380  Biso   1.000  C
  H3       1.0000 0.05240  0.72100  0.48450  Biso   1.000  H
  H4       1.0000 0.94760  0.27900  0.51550  Biso   1.000  H
  C5       1.0000 0.16600  0.58920  0.38270  Biso   1.000  C
  C6       1.0000 0.83400  0.41080  0.61730  Biso   1.000  C
  C7       1.0000 0.27780  0.47090  0.38970  Biso   1.000  C
  C8       1.0000 0.72220  0.52910  0.61030  Biso   1.000  C
  H5       1.0000 0.30910  0.43320  0.32190  Biso   1.000  H
  H6       1.0000 0.69090  0.56680  0.67810  Biso   1.000  H
  C9       1.0000 0.34320  0.40870  0.49770  Biso   1.000  C
  C10      1.0000 0.65680  0.59130  0.50230  Biso   1.000  C
  C11      1.0000 0.46400  0.28450  0.51610  Biso   1.000  C
  C12      1.0000 0.53600  0.71550  0.48390  Biso   1.000  C
  C13      1.0000 0.53580  0.21690  0.42350  Biso   1.000  C
  C14      1.0000 0.46420  0.78310  0.57650  Biso   1.000  C
  H7       1.0000 0.50650  0.24760  0.34450  Biso   1.000  H
  H8       1.0000 0.49350  0.75240  0.65550  Biso   1.000  H
  C15      1.0000 0.65210  0.10290  0.45040  Biso   1.000  C
  C16      1.0000 0.34790  0.89710  0.54960  Biso   1.000  C
  C17      1.0000 0.68660  0.05840  0.57120  Biso   1.000  C
  C18      1.0000 0.31340  0.94160  0.42880  Biso   1.000  C
  H9       1.0000 0.76220  0.98130  0.59250  Biso   1.000  H
  H10      1.0000 0.23780  0.01870  0.40750  Biso   1.000  H
  C19      1.0000 0.60940  0.12790  0.66060  Biso   1.000  C
  C20      1.0000 0.39060  0.87210  0.33940  Biso   1.000  C
  H11      1.0000 0.63320  0.09580  0.74190  Biso   1.000  H
  H12      1.0000 0.36680  0.90420  0.25810  Biso   1.000  H
  C21      1.0000 0.09090  0.65950  0.26930  Biso   1.000  C
  C22      1.0000 0.90910  0.34050  0.73070  Biso   1.000  C
  H13      1.0000 0.97960  0.68730  0.30120  Biso   1.000  H
  H14      1.0000 0.02040  0.31270  0.69880  Biso   1.000  H
  H15      1.0000 0.10360  0.59610  0.22250  Biso   1.000  H
  H16      1.0000 0.89640  0.40390  0.77750  Biso   1.000  H
  H17      1.0000 0.14120  0.74010  0.21170  Biso   1.000  H
  H18      1.0000 0.85880  0.25990  0.78830  Biso   1.000  H
  C23      1.0000 0.73980  0.03220  0.34860  Biso   1.000  C
  C24      1.0000 0.26020  0.96780  0.65140  Biso   1.000  C
  H19      1.0000 0.81080  0.09190  0.27890  Biso   1.000  H
  H20      1.0000 0.18920  0.90810  0.72110  Biso   1.000  H
  H21      1.0000 0.66450  0.01380  0.31390  Biso   1.000  H
  H22      1.0000 0.33550  0.98620  0.68610  Biso   1.000  H
  H23      1.0000 0.79970  0.94620  0.38860  Biso   1.000  H
  H24      1.0000 0.20030  0.05380  0.61140  Biso   1.000  H
  N1       1.0000 0.29900  0.46200  0.59740  Biso   1.000  N
  N2       1.0000 0.70100  0.53800  0.40260  Biso   1.000  N
  N3       1.0000 0.50110  0.24040  0.63310  Biso   1.000  N
  N4       1.0000 0.49890  0.75960  0.36690  Biso   1.000  N
