data_image0
_cell_length_a       7.8533
_cell_length_b       9.8667
_cell_length_c       17.8567
_cell_angle_alpha    102.002
_cell_angle_beta     93.833
_cell_angle_gamma    105.407

_symmetry_space_group_name_H-M    "P 1"
_symmetry_int_tables_number       1

loop_
  _symmetry_equiv_pos_as_xyz
  'x, y, z'

loop_
  _atom_site_label
  _atom_site_occupancy
  _atom_site_fract_x
  _atom_site_fract_y
  _atom_site_fract_z
  _atom_site_thermal_displace_type
  _atom_site_B_iso_or_equiv
  _atom_site_type_symbol
  Cu1      1.0000 0.41666  0.67853  0.33121  Biso   1.000  Cu
  Cu2      1.0000 0.58334  0.32147  0.66879  Biso   1.000  Cu
  Cu3      1.0000 0.86973  0.06221  0.98978  Biso   1.000  Cu
  Cu4      1.0000 0.13027  0.93779  0.01022  Biso   1.000  Cu
  O1       1.0000 0.58730  0.86790  0.34210  Biso   1.000  O
  O2       1.0000 0.41270  0.13210  0.65790  Biso   1.000  O
  O3       1.0000 0.81100  0.76950  0.35490  Biso   1.000  O
  O4       1.0000 0.18900  0.23050  0.64510  Biso   1.000  O
  O5       1.0000 0.84690  0.05930  0.49460  Biso   1.000  O
  O6       1.0000 0.15310  0.94070  0.50540  Biso   1.000  O
  O7       1.0000 0.08140  0.25610  0.51090  Biso   1.000  O
  O8       1.0000 0.91860  0.74390  0.48910  Biso   1.000  O
  O9       1.0000 0.28030  0.47750  0.31890  Biso   1.000  O
  O10      1.0000 0.71970  0.52250  0.68110  Biso   1.000  O
  O11      1.0000 0.23640  0.36710  0.19450  Biso   1.000  O
  O12      1.0000 0.76360  0.63290  0.80550  Biso   1.000  O
  O13      1.0000 0.91240  0.11900  0.10270  Biso   1.000  O
  O14      1.0000 0.08760  0.88100  0.89730  Biso   1.000  O
  O15      1.0000 0.13250  0.01710  0.12000  Biso   1.000  O
  O16      1.0000 0.86750  0.98290  0.88000  Biso   1.000  O
  O17      1.0000 0.69660  0.20040  0.00130  Biso   1.000  O
  O18      1.0000 0.30340  0.79960  0.99870  Biso   1.000  O
  O19      1.0000 0.59730  0.19130  0.88050  Biso   1.000  O
  O20      1.0000 0.40270  0.80870  0.11950  Biso   1.000  O
  O21      1.0000 0.29790  0.12170  0.00360  Biso   1.000  O
  O22      1.0000 0.70210  0.87830  0.99640  Biso   1.000  O
  O23      1.0000 0.07950  0.22310  0.98540  Biso   1.000  O
  O24      1.0000 0.92050  0.77690  0.01460  Biso   1.000  O
  O25      1.0000 0.19080  0.78020  0.32180  Biso   1.000  O
  O26      1.0000 0.80920  0.21980  0.67820  Biso   1.000  O
  O27      1.0000 0.44380  0.63880  0.21940  Biso   1.000  O
  O28      1.0000 0.55620  0.36120  0.78060  Biso   1.000  O
  O29      1.0000 0.02670  0.71630  0.17400  Biso   1.000  O
  O30      1.0000 0.97330  0.28370  0.82600  Biso   1.000  O
  O31      1.0000 0.97240  0.44370  0.10550  Biso   1.000  O
  O32      1.0000 0.02760  0.55630  0.89450  Biso   1.000  O
  N1       1.0000 0.42310  0.69890  0.44720  Biso   1.000  N
  N2       1.0000 0.57690  0.30110  0.55280  Biso   1.000  N
  N3       1.0000 0.37740  0.74200  0.84400  Biso   1.000  N
  N4       1.0000 0.62260  0.25800  0.15600  Biso   1.000  N
  C1       1.0000 0.87480  0.00380  0.32900  Biso   1.000  C
  C2       1.0000 0.12520  0.99620  0.67100  Biso   1.000  C
  C3       1.0000 0.96810  0.13020  0.38400  Biso   1.000  C
  C4       1.0000 0.03190  0.86980  0.61600  Biso   1.000  C
  C5       1.0000 0.07590  0.24390  0.36010  Biso   1.000  C
  C6       1.0000 0.92410  0.75610  0.63990  Biso   1.000  C
  C7       1.0000 0.09690  0.24040  0.28360  Biso   1.000  C
  C8       1.0000 0.90310  0.75960  0.71640  Biso   1.000  C
  C9       1.0000 0.00870  0.11120  0.22880  Biso   1.000  C
  C10      1.0000 0.99130  0.88880  0.77120  Biso   1.000  C
  C11      1.0000 0.89980  0.99620  0.25160  Biso   1.000  C
  C12      1.0000 0.10020  0.00380  0.74840  Biso   1.000  C
  C13      1.0000 0.74910  0.87020  0.34570  Biso   1.000  C
  C14      1.0000 0.25090  0.12980  0.65430  Biso   1.000  C
  C15      1.0000 0.95520  0.14230  0.46830  Biso   1.000  C
  C16      1.0000 0.04480  0.85770  0.53170  Biso   1.000  C
  C17      1.0000 0.21350  0.37100  0.26180  Biso   1.000  C
  C18      1.0000 0.78650  0.62900  0.73820  Biso   1.000  C
  C19      1.0000 0.02320  0.08500  0.14400  Biso   1.000  C
  C20      1.0000 0.97680  0.91500  0.85600  Biso   1.000  C
  C21      1.0000 0.55060  0.37240  0.97900  Biso   1.000  C
  C22      1.0000 0.44940  0.62760  0.02100  Biso   1.000  C
  C23      1.0000 0.37640  0.36520  0.99540  Biso   1.000  C
  C24      1.0000 0.62360  0.63480  0.00460  Biso   1.000  C
  C25      1.0000 0.67140  0.50730  0.98370  Biso   1.000  C
  C26      1.0000 0.32860  0.49270  0.01630  Biso   1.000  C
  C27      1.0000 0.61560  0.24170  0.95070  Biso   1.000  C
  C28      1.0000 0.38440  0.75830  0.04930  Biso   1.000  C
  C29      1.0000 0.24120  0.22620  0.99430  Biso   1.000  C
  C30      1.0000 0.75880  0.77380  0.00570  Biso   1.000  C
  C31      1.0000 0.41480  0.71770  0.60680  Biso   1.000  C
  C32      1.0000 0.58520  0.28230  0.39320  Biso   1.000  C
  C33      1.0000 0.50990  0.82620  0.57830  Biso   1.000  C
  C34      1.0000 0.49010  0.17380  0.42170  Biso   1.000  C
  C35      1.0000 0.51090  0.81120  0.50010  Biso   1.000  C
  C36      1.0000 0.48910  0.18880  0.49990  Biso   1.000  C
  C37      1.0000 0.40390  0.72700  0.69040  Biso   1.000  C
  C38      1.0000 0.59610  0.27300  0.30960  Biso   1.000  C
  C39      1.0000 0.32610  0.60340  0.71680  Biso   1.000  C
  C40      1.0000 0.67390  0.39660  0.28320  Biso   1.000  C
  C41      1.0000 0.31510  0.61380  0.79260  Biso   1.000  C
  C42      1.0000 0.68490  0.38620  0.20740  Biso   1.000  C
  C43      1.0000 0.45710  0.86100  0.82180  Biso   1.000  C
  C44      1.0000 0.54290  0.13900  0.17820  Biso   1.000  C
  C45      1.0000 0.47180  0.85710  0.74550  Biso   1.000  C
  C46      1.0000 0.52820  0.14290  0.25450  Biso   1.000  C
  H1       1.0000 0.35400  0.74400  0.89600  Biso   1.000  H
  H2       1.0000 0.64600  0.25600  0.10400  Biso   1.000  H
  H3       1.0000 0.09200  0.22900  0.55900  Biso   1.000  H
  H4       1.0000 0.90800  0.77100  0.44100  Biso   1.000  H
  H5       1.0000 0.78500  0.50500  0.96900  Biso   1.000  H
  H6       1.0000 0.21500  0.49500  0.03100  Biso   1.000  H
  H7       1.0000 0.83200  0.91100  0.21500  Biso   1.000  H
  H8       1.0000 0.16800  0.08900  0.78500  Biso   1.000  H
  H9       1.0000 0.28000  0.51300  0.67800  Biso   1.000  H
  H10      1.0000 0.72000  0.48700  0.32200  Biso   1.000  H
  H11      1.0000 0.13400  0.32900  0.40000  Biso   1.000  H
  H12      1.0000 0.86600  0.67100  0.60000  Biso   1.000  H
  H13      1.0000 0.60000  0.88200  0.48300  Biso   1.000  H
  H14      1.0000 0.40000  0.11800  0.51700  Biso   1.000  H
  H15      1.0000 0.53100  0.94300  0.73100  Biso   1.000  H
  H16      1.0000 0.46900  0.05700  0.26900  Biso   1.000  H
  H17      1.0000 0.49300  0.95200  0.85900  Biso   1.000  H
  H18      1.0000 0.50700  0.04800  0.14100  Biso   1.000  H
  H19      1.0000 0.26100  0.52400  0.80500  Biso   1.000  H
  H20      1.0000 0.73900  0.47600  0.19500  Biso   1.000  H
  C47      1.0000 0.24900  0.62200  0.55070  Biso   1.000  C
  C48      1.0000 0.75100  0.37800  0.44930  Biso   1.000  C
  C49      1.0000 0.26650  0.61960  0.47560  Biso   1.000  C
  C50      1.0000 0.73350  0.38040  0.52440  Biso   1.000  C
  C51      1.0000 0.40200  0.57570  0.55650  Biso   1.000  C
  C52      1.0000 0.59800  0.42430  0.44350  Biso   1.000  C
  C53      1.0000 0.41200  0.57140  0.47600  Biso   1.000  C
  C54      1.0000 0.58800  0.42860  0.52400  Biso   1.000  C
  H21      1.0000 0.57300  0.92600  0.59800  Biso   1.000  H
  H22      1.0000 0.42700  0.07400  0.40200  Biso   1.000  H
  H23      1.0000 0.16600  0.56200  0.43900  Biso   1.000  H
  H24      1.0000 0.83400  0.43800  0.56100  Biso   1.000  H
  H25      1.0000 0.16100  0.53600  0.55600  Biso   1.000  H
  H26      1.0000 0.83900  0.46400  0.44400  Biso   1.000  H
  H27      1.0000 0.39700  0.48500  0.43600  Biso   1.000  H
  H28      1.0000 0.60300  0.51500  0.56400  Biso   1.000  H
  H29      1.0000 0.31100  0.62400  0.55500  Biso   1.000  H
  H30      1.0000 0.68900  0.37600  0.44500  Biso   1.000  H
