data_image0
_cell_length_a       6.5156
_cell_length_b       6.9194
_cell_length_c       9.3157
_cell_angle_alpha    95.319
_cell_angle_beta     108.664
_cell_angle_gamma    108.164

_symmetry_space_group_name_H-M    "P 1"
_symmetry_int_tables_number       1

loop_
  _symmetry_equiv_pos_as_xyz
  'x, y, z'

loop_
  _atom_site_label
  _atom_site_occupancy
  _atom_site_fract_x
  _atom_site_fract_y
  _atom_site_fract_z
  _atom_site_thermal_displace_type
  _atom_site_B_iso_or_equiv
  _atom_site_type_symbol
  Cu1      1.0000 0.50570  0.26509  0.13386  Biso   1.000  Cu
  Cu2      1.0000 0.49430  0.73491  0.86614  Biso   1.000  Cu
  O1       1.0000 0.27430  0.21070  0.23160  Biso   1.000  O
  O2       1.0000 0.72570  0.78930  0.76840  Biso   1.000  O
  O3       1.0000 0.24460  0.87950  0.21760  Biso   1.000  O
  O4       1.0000 0.75540  0.12050  0.78240  Biso   1.000  O
  O5       1.0000 0.72640  0.85150  0.07620  Biso   1.000  O
  O6       1.0000 0.27360  0.14850  0.92380  Biso   1.000  O
  O7       1.0000 0.53830  0.60020  0.17080  Biso   1.000  O
  O8       1.0000 0.46170  0.39980  0.82920  Biso   1.000  O
  O9       1.0000 0.76680  0.28310  0.06470  Biso   1.000  O
  O10      1.0000 0.23320  0.71690  0.93530  Biso   1.000  O
  O11      1.0000 0.75010  0.31750  0.33940  Biso   1.000  O
  O12      1.0000 0.24990  0.68250  0.66060  Biso   1.000  O
  C1       1.0000 0.20670  0.03230  0.26490  Biso   1.000  C
  C2       1.0000 0.79330  0.96770  0.73510  Biso   1.000  C
  C3       1.0000 0.69650  0.76490  0.18660  Biso   1.000  C
  C4       1.0000 0.30350  0.23510  0.81340  Biso   1.000  C
  C5       1.0000 0.22390  0.13530  0.53090  Biso   1.000  C
  C6       1.0000 0.77610  0.86470  0.46910  Biso   1.000  C
  H1       1.0000 0.37390  0.22720  0.55190  Biso   1.000  H
  H2       1.0000 0.62610  0.77280  0.44810  Biso   1.000  H
  C7       1.0000 0.09060  0.01800  0.38090  Biso   1.000  C
  C8       1.0000 0.90940  0.98200  0.61910  Biso   1.000  C
  C9       1.0000 0.86210  0.88160  0.34880  Biso   1.000  C
  C10      1.0000 0.13790  0.11840  0.65120  Biso   1.000  C
  O13      1.0000 0.80600  0.45470  0.63580  Biso   1.000  O
  O14      1.0000 0.19400  0.54530  0.36420  Biso   1.000  O
