data_image0
_cell_length_a       5.0155
_cell_length_b       5.8109
_cell_length_c       9.6258
_cell_angle_alpha    98.85
_cell_angle_beta     92.06
_cell_angle_gamma    94.27

_symmetry_space_group_name_H-M    "P 1"
_symmetry_int_tables_number       1

loop_
  _symmetry_equiv_pos_as_xyz
  'x, y, z'

loop_
  _atom_site_label
  _atom_site_occupancy
  _atom_site_fract_x
  _atom_site_fract_y
  _atom_site_fract_z
  _atom_site_thermal_displace_type
  _atom_site_B_iso_or_equiv
  _atom_site_type_symbol
  Cu1      1.0000 0.00000  0.50000  0.00000  Biso   1.000  Cu
  Cu2      1.0000 0.18782  0.04247  0.12446  Biso   1.000  Cu
  Cu3      1.0000 0.81218  0.95753  0.87554  Biso   1.000  Cu
  O1       1.0000 0.21380  0.92740  0.30411  Biso   1.000  O
  O2       1.0000 0.78620  0.07260  0.69589  Biso   1.000  O
  O3       1.0000 0.41540  0.67630  0.15360  Biso   1.000  O
  O4       1.0000 0.58460  0.32370  0.84640  Biso   1.000  O
  O5       1.0000 0.90500  0.43990  0.19088  Biso   1.000  O
  O6       1.0000 0.09500  0.56010  0.80912  Biso   1.000  O
  O7       1.0000 0.54920  0.18970  0.13737  Biso   1.000  O
  O8       1.0000 0.45080  0.81030  0.86263  Biso   1.000  O
  O9       1.0000 0.88800  0.81590  0.04290  Biso   1.000  O
  O10      1.0000 0.11200  0.18410  0.95710  Biso   1.000  O
  C1       1.0000 0.34500  0.74750  0.27580  Biso   1.000  C
  C2       1.0000 0.65500  0.25250  0.72420  Biso   1.000  C
  C3       1.0000 0.67960  0.35110  0.21880  Biso   1.000  C
  C4       1.0000 0.32040  0.64890  0.78120  Biso   1.000  C
  C5       1.0000 0.42340  0.62000  0.39180  Biso   1.000  C
  C6       1.0000 0.57660  0.38000  0.60820  Biso   1.000  C
  C7       1.0000 0.58350  0.43110  0.36440  Biso   1.000  C
  C8       1.0000 0.41650  0.56890  0.63560  Biso   1.000  C
  C9       1.0000 0.33980  0.68670  0.52780  Biso   1.000  C
  C10      1.0000 0.66020  0.31330  0.47220  Biso   1.000  C
  H1       1.0000 0.23230  0.81050  0.54610  Biso   1.000  H
  H2       1.0000 0.76770  0.18950  0.45390  Biso   1.000  H
  H3       1.0000 0.72900  0.79000  0.08600  Biso   1.000  H
  H4       1.0000 0.27100  0.21000  0.91400  Biso   1.000  H
