data_image0
_cell_length_a       14.7908
_cell_length_b       13.9157
_cell_length_c       15.5121
_cell_angle_alpha    90
_cell_angle_beta     114.987
_cell_angle_gamma    90

_symmetry_space_group_name_H-M    "P 1"
_symmetry_int_tables_number       1

loop_
  _symmetry_equiv_pos_as_xyz
  'x, y, z'

loop_
  _atom_site_label
  _atom_site_occupancy
  _atom_site_fract_x
  _atom_site_fract_y
  _atom_site_fract_z
  _atom_site_thermal_displace_type
  _atom_site_B_iso_or_equiv
  _atom_site_type_symbol
  Cu1      1.0000 0.21900  0.77299  0.31352  Biso   1.000  Cu
  Cu2      1.0000 0.71900  0.27299  0.31352  Biso   1.000  Cu
  Cu3      1.0000 0.78100  0.77299  0.18648  Biso   1.000  Cu
  Cu4      1.0000 0.28100  0.27299  0.18648  Biso   1.000  Cu
  Cu5      1.0000 0.78100  0.22701  0.68648  Biso   1.000  Cu
  Cu6      1.0000 0.28100  0.72701  0.68648  Biso   1.000  Cu
  Cu7      1.0000 0.21900  0.22701  0.81352  Biso   1.000  Cu
  Cu8      1.0000 0.71900  0.72701  0.81352  Biso   1.000  Cu
  N1       1.0000 0.09180  0.68890  0.27860  Biso   1.000  N
  N2       1.0000 0.59180  0.18890  0.27860  Biso   1.000  N
  N3       1.0000 0.90820  0.68890  0.22140  Biso   1.000  N
  N4       1.0000 0.40820  0.18890  0.22140  Biso   1.000  N
  N5       1.0000 0.90820  0.31110  0.72140  Biso   1.000  N
  N6       1.0000 0.40820  0.81110  0.72140  Biso   1.000  N
  N7       1.0000 0.09180  0.31110  0.77860  Biso   1.000  N
  N8       1.0000 0.59180  0.81110  0.77860  Biso   1.000  N
  N9       1.0000 0.00900  0.56600  0.33130  Biso   1.000  N
  N10      1.0000 0.50900  0.06600  0.33130  Biso   1.000  N
  N11      1.0000 0.99100  0.56600  0.16870  Biso   1.000  N
  N12      1.0000 0.49100  0.06600  0.16870  Biso   1.000  N
  N13      1.0000 0.99100  0.43400  0.66870  Biso   1.000  N
  N14      1.0000 0.49100  0.93400  0.66870  Biso   1.000  N
  N15      1.0000 0.00900  0.43400  0.83130  Biso   1.000  N
  N16      1.0000 0.50900  0.93400  0.83130  Biso   1.000  N
  O1       1.0000 0.14230  0.84610  0.19910  Biso   1.000  O
  O2       1.0000 0.64230  0.34610  0.19910  Biso   1.000  O
  O3       1.0000 0.85770  0.84610  0.30090  Biso   1.000  O
  O4       1.0000 0.35770  0.34610  0.30090  Biso   1.000  O
  O5       1.0000 0.85770  0.15390  0.80090  Biso   1.000  O
  O6       1.0000 0.35770  0.65390  0.80090  Biso   1.000  O
  O7       1.0000 0.14230  0.15390  0.69910  Biso   1.000  O
  O8       1.0000 0.64230  0.65390  0.69910  Biso   1.000  O
  O9       1.0000 0.25130  0.93770  0.17310  Biso   1.000  O
  O10      1.0000 0.75130  0.43770  0.17310  Biso   1.000  O
  O11      1.0000 0.74870  0.93770  0.32690  Biso   1.000  O
  O12      1.0000 0.24870  0.43770  0.32690  Biso   1.000  O
  O13      1.0000 0.74870  0.06230  0.82690  Biso   1.000  O
  O14      1.0000 0.24870  0.56230  0.82690  Biso   1.000  O
  O15      1.0000 0.25130  0.06230  0.67310  Biso   1.000  O
  O16      1.0000 0.75130  0.56230  0.67310  Biso   1.000  O
  O17      1.0000 0.19510  0.18140  0.08920  Biso   1.000  O
  O18      1.0000 0.69510  0.68140  0.08920  Biso   1.000  O
  O19      1.0000 0.80490  0.18140  0.41080  Biso   1.000  O
  O20      1.0000 0.30490  0.68140  0.41080  Biso   1.000  O
  O21      1.0000 0.80490  0.81860  0.91080  Biso   1.000  O
  O22      1.0000 0.30490  0.31860  0.91080  Biso   1.000  O
  O23      1.0000 0.19510  0.81860  0.58920  Biso   1.000  O
  O24      1.0000 0.69510  0.31860  0.58920  Biso   1.000  O
  O25      1.0000 0.17670  0.12290  0.21310  Biso   1.000  O
  O26      1.0000 0.67670  0.62290  0.21310  Biso   1.000  O
  O27      1.0000 0.82330  0.12290  0.28690  Biso   1.000  O
  O28      1.0000 0.32330  0.62290  0.28690  Biso   1.000  O
  O29      1.0000 0.82330  0.87710  0.78690  Biso   1.000  O
  O30      1.0000 0.32330  0.37710  0.78690  Biso   1.000  O
  O31      1.0000 0.17670  0.87710  0.71310  Biso   1.000  O
  O32      1.0000 0.67670  0.37710  0.71310  Biso   1.000  O
  O33      1.0000 0.18310  0.86420  0.41090  Biso   1.000  O
  O34      1.0000 0.68310  0.36420  0.41090  Biso   1.000  O
  O35      1.0000 0.81690  0.86420  0.08910  Biso   1.000  O
  O36      1.0000 0.31690  0.36420  0.08910  Biso   1.000  O
  O37      1.0000 0.81690  0.13580  0.58910  Biso   1.000  O
  O38      1.0000 0.31690  0.63580  0.58910  Biso   1.000  O
  O39      1.0000 0.18310  0.13580  0.91090  Biso   1.000  O
  O40      1.0000 0.68310  0.63580  0.91090  Biso   1.000  O
  O41      1.0000 0.34090  0.84860  0.33410  Biso   1.000  O
  O42      1.0000 0.84090  0.34860  0.33410  Biso   1.000  O
  O43      1.0000 0.65910  0.84860  0.16590  Biso   1.000  O
  O44      1.0000 0.15910  0.34860  0.16590  Biso   1.000  O
  O45      1.0000 0.65910  0.15140  0.66590  Biso   1.000  O
  O46      1.0000 0.15910  0.65140  0.66590  Biso   1.000  O
  O47      1.0000 0.34090  0.15140  0.83410  Biso   1.000  O
  O48      1.0000 0.84090  0.65140  0.83410  Biso   1.000  O
  C1       1.0000 0.07930  0.95890  0.07670  Biso   1.000  C
  C2       1.0000 0.57930  0.45890  0.07670  Biso   1.000  C
  C3       1.0000 0.92070  0.95890  0.42330  Biso   1.000  C
  C4       1.0000 0.42070  0.45890  0.42330  Biso   1.000  C
  C5       1.0000 0.92070  0.04110  0.92330  Biso   1.000  C
  C6       1.0000 0.42070  0.54110  0.92330  Biso   1.000  C
  C7       1.0000 0.07930  0.04110  0.57670  Biso   1.000  C
  C8       1.0000 0.57930  0.54110  0.57670  Biso   1.000  C
  C9       1.0000 0.07710  0.05790  0.06110  Biso   1.000  C
  C10      1.0000 0.57710  0.55790  0.06110  Biso   1.000  C
  C11      1.0000 0.92290  0.05790  0.43890  Biso   1.000  C
  C12      1.0000 0.42290  0.55790  0.43890  Biso   1.000  C
  C13      1.0000 0.92290  0.94210  0.93890  Biso   1.000  C
  C14      1.0000 0.42290  0.44210  0.93890  Biso   1.000  C
  C15      1.0000 0.07710  0.94210  0.56110  Biso   1.000  C
  C16      1.0000 0.57710  0.44210  0.56110  Biso   1.000  C
  C17      1.0000 0.00180  0.90370  0.01590  Biso   1.000  C
  C18      1.0000 0.50180  0.40370  0.01590  Biso   1.000  C
  C19      1.0000 0.99820  0.90370  0.48410  Biso   1.000  C
  C20      1.0000 0.49820  0.40370  0.48410  Biso   1.000  C
  C21      1.0000 0.99820  0.09630  0.98410  Biso   1.000  C
  C22      1.0000 0.49820  0.59630  0.98410  Biso   1.000  C
  C23      1.0000 0.00180  0.09630  0.51590  Biso   1.000  C
  C24      1.0000 0.50180  0.59630  0.51590  Biso   1.000  C
  H1       1.0000 0.00400  0.84200  0.02600  Biso   1.000  H
  H2       1.0000 0.50400  0.34200  0.02600  Biso   1.000  H
  H3       1.0000 0.99600  0.84200  0.47400  Biso   1.000  H
  H4       1.0000 0.49600  0.34200  0.47400  Biso   1.000  H
  H5       1.0000 0.99600  0.15800  0.97400  Biso   1.000  H
  H6       1.0000 0.49600  0.65800  0.97400  Biso   1.000  H
  H7       1.0000 0.00400  0.15800  0.52600  Biso   1.000  H
  H8       1.0000 0.50400  0.65800  0.52600  Biso   1.000  H
  C25      1.0000 0.16520  0.91230  0.15630  Biso   1.000  C
  C26      1.0000 0.66520  0.41230  0.15630  Biso   1.000  C
  C27      1.0000 0.83480  0.91230  0.34370  Biso   1.000  C
  C28      1.0000 0.33480  0.41230  0.34370  Biso   1.000  C
  C29      1.0000 0.83480  0.08770  0.84370  Biso   1.000  C
  C30      1.0000 0.33480  0.58770  0.84370  Biso   1.000  C
  C31      1.0000 0.16520  0.08770  0.65630  Biso   1.000  C
  C32      1.0000 0.66520  0.58770  0.65630  Biso   1.000  C
  C33      1.0000 0.15560  0.12390  0.12850  Biso   1.000  C
  C34      1.0000 0.65560  0.62390  0.12850  Biso   1.000  C
  C35      1.0000 0.84440  0.12390  0.37150  Biso   1.000  C
  C36      1.0000 0.34440  0.62390  0.37150  Biso   1.000  C
  C37      1.0000 0.84440  0.87610  0.87150  Biso   1.000  C
  C38      1.0000 0.34440  0.37610  0.87150  Biso   1.000  C
  C39      1.0000 0.15560  0.87610  0.62850  Biso   1.000  C
  C40      1.0000 0.65560  0.37610  0.62850  Biso   1.000  C
  C41      1.0000 0.00000  0.74910  0.25000  Biso   1.000  C
  C42      1.0000 0.50000  0.24910  0.25000  Biso   1.000  C
  C43      1.0000 0.00000  0.25090  0.75000  Biso   1.000  C
  C44      1.0000 0.50000  0.75090  0.75000  Biso   1.000  C
  H9       1.0000 0.01200  0.78800  0.31100  Biso   1.000  H
  H10      1.0000 0.51200  0.28800  0.31100  Biso   1.000  H
  H11      1.0000 0.98800  0.78800  0.18900  Biso   1.000  H
  H12      1.0000 0.48800  0.28800  0.18900  Biso   1.000  H
  H13      1.0000 0.98800  0.21200  0.68900  Biso   1.000  H
  H14      1.0000 0.48800  0.71200  0.68900  Biso   1.000  H
  H15      1.0000 0.01200  0.21200  0.81100  Biso   1.000  H
  H16      1.0000 0.51200  0.71200  0.81100  Biso   1.000  H
  C45      1.0000 0.09760  0.62610  0.35880  Biso   1.000  C
  C46      1.0000 0.59760  0.12610  0.35880  Biso   1.000  C
  C47      1.0000 0.90240  0.62610  0.14120  Biso   1.000  C
  C48      1.0000 0.40240  0.12610  0.14120  Biso   1.000  C
  C49      1.0000 0.90240  0.37390  0.64120  Biso   1.000  C
  C50      1.0000 0.40240  0.87390  0.64120  Biso   1.000  C
  C51      1.0000 0.09760  0.37390  0.85880  Biso   1.000  C
  C52      1.0000 0.59760  0.87390  0.85880  Biso   1.000  C
  H17      1.0000 0.15700  0.58600  0.37400  Biso   1.000  H
  H18      1.0000 0.65700  0.08600  0.37400  Biso   1.000  H
  H19      1.0000 0.84300  0.58600  0.12600  Biso   1.000  H
  H20      1.0000 0.34300  0.08600  0.12600  Biso   1.000  H
  H21      1.0000 0.84300  0.41400  0.62600  Biso   1.000  H
  H22      1.0000 0.34300  0.91400  0.62600  Biso   1.000  H
  H23      1.0000 0.15700  0.41400  0.87400  Biso   1.000  H
  H24      1.0000 0.65700  0.91400  0.87400  Biso   1.000  H
  H25      1.0000 0.09800  0.67000  0.40600  Biso   1.000  H
  H26      1.0000 0.59800  0.17000  0.40600  Biso   1.000  H
  H27      1.0000 0.90200  0.67000  0.09400  Biso   1.000  H
  H28      1.0000 0.40200  0.17000  0.09400  Biso   1.000  H
  H29      1.0000 0.90200  0.33000  0.59400  Biso   1.000  H
  H30      1.0000 0.40200  0.83000  0.59400  Biso   1.000  H
  H31      1.0000 0.09800  0.33000  0.90600  Biso   1.000  H
  H32      1.0000 0.59800  0.83000  0.90600  Biso   1.000  H
  C53      1.0000 0.07880  0.62580  0.19640  Biso   1.000  C
  C54      1.0000 0.57880  0.12580  0.19640  Biso   1.000  C
  C55      1.0000 0.92120  0.62580  0.30360  Biso   1.000  C
  C56      1.0000 0.42120  0.12580  0.30360  Biso   1.000  C
  C57      1.0000 0.92120  0.37420  0.80360  Biso   1.000  C
  C58      1.0000 0.42120  0.87420  0.80360  Biso   1.000  C
  C59      1.0000 0.07880  0.37420  0.69640  Biso   1.000  C
  C60      1.0000 0.57880  0.87420  0.69640  Biso   1.000  C
  H33      1.0000 0.14200  0.58000  0.21700  Biso   1.000  H
  H34      1.0000 0.64200  0.08000  0.21700  Biso   1.000  H
  H35      1.0000 0.85800  0.58000  0.28300  Biso   1.000  H
  H36      1.0000 0.35800  0.08000  0.28300  Biso   1.000  H
  H37      1.0000 0.85800  0.42000  0.78300  Biso   1.000  H
  H38      1.0000 0.35800  0.92000  0.78300  Biso   1.000  H
  H39      1.0000 0.14200  0.42000  0.71700  Biso   1.000  H
  H40      1.0000 0.64200  0.92000  0.71700  Biso   1.000  H
  H41      1.0000 0.07700  0.67400  0.15400  Biso   1.000  H
  H42      1.0000 0.57700  0.17400  0.15400  Biso   1.000  H
  H43      1.0000 0.92300  0.67400  0.34600  Biso   1.000  H
  H44      1.0000 0.42300  0.17400  0.34600  Biso   1.000  H
  H45      1.0000 0.92300  0.32600  0.84600  Biso   1.000  H
  H46      1.0000 0.42300  0.82600  0.84600  Biso   1.000  H
  H47      1.0000 0.07700  0.32600  0.65400  Biso   1.000  H
  H48      1.0000 0.57700  0.82600  0.65400  Biso   1.000  H
  C61      1.0000 0.00000  0.50580  0.25000  Biso   1.000  C
  C62      1.0000 0.50000  0.00580  0.25000  Biso   1.000  C
  C63      1.0000 0.00000  0.49420  0.75000  Biso   1.000  C
  C64      1.0000 0.50000  0.99420  0.75000  Biso   1.000  C
  H49      1.0000 0.05700  0.45900  0.27300  Biso   1.000  H
  H50      1.0000 0.55700  0.95900  0.27300  Biso   1.000  H
  H51      1.0000 0.94300  0.45900  0.22700  Biso   1.000  H
  H52      1.0000 0.44300  0.95900  0.22700  Biso   1.000  H
  H53      1.0000 0.94300  0.54100  0.72700  Biso   1.000  H
  H54      1.0000 0.44300  0.04100  0.72700  Biso   1.000  H
  H55      1.0000 0.05700  0.54100  0.77300  Biso   1.000  H
  H56      1.0000 0.55700  0.04100  0.77300  Biso   1.000  H
  O49      1.0000 0.19550  0.34100  0.47080  Biso   1.000  O
  O50      1.0000 0.69550  0.84100  0.47080  Biso   1.000  O
  O51      1.0000 0.80450  0.34100  0.02920  Biso   1.000  O
  O52      1.0000 0.30450  0.84100  0.02920  Biso   1.000  O
  O53      1.0000 0.80450  0.65900  0.52920  Biso   1.000  O
  O54      1.0000 0.30450  0.15900  0.52920  Biso   1.000  O
  O55      1.0000 0.19550  0.65900  0.97080  Biso   1.000  O
  O56      1.0000 0.69550  0.15900  0.97080  Biso   1.000  O
  O57      1.0000 0.52210  0.76330  0.36150  Biso   1.000  O
  O58      1.0000 0.02210  0.26330  0.36150  Biso   1.000  O
  O59      1.0000 0.47790  0.76330  0.13850  Biso   1.000  O
  O60      1.0000 0.97790  0.26330  0.13850  Biso   1.000  O
  O61      1.0000 0.47790  0.23670  0.63850  Biso   1.000  O
  O62      1.0000 0.97790  0.73670  0.63850  Biso   1.000  O
  O63      1.0000 0.52210  0.23670  0.86150  Biso   1.000  O
  O64      1.0000 0.02210  0.73670  0.86150  Biso   1.000  O
  O65      1.0000 0.38650  0.54340  0.16140  Biso   1.000  O
  O66      1.0000 0.88650  0.04340  0.16140  Biso   1.000  O
  O67      1.0000 0.61350  0.54340  0.33860  Biso   1.000  O
  O68      1.0000 0.11350  0.04340  0.33860  Biso   1.000  O
  O69      1.0000 0.61350  0.45660  0.83860  Biso   1.000  O
  O70      1.0000 0.11350  0.95660  0.83860  Biso   1.000  O
  O71      1.0000 0.38650  0.45660  0.66140  Biso   1.000  O
  O72      1.0000 0.88650  0.95660  0.66140  Biso   1.000  O
  O73      1.0000 0.06100  0.52800  0.52990  Biso   1.000  O
  O74      1.0000 0.56100  0.02800  0.52990  Biso   1.000  O
  O75      1.0000 0.93900  0.52800  0.97010  Biso   1.000  O
  O76      1.0000 0.43900  0.02800  0.97010  Biso   1.000  O
  O77      1.0000 0.93900  0.47200  0.47010  Biso   1.000  O
  O78      1.0000 0.43900  0.97200  0.47010  Biso   1.000  O
  O79      1.0000 0.06100  0.47200  0.02990  Biso   1.000  O
  O80      1.0000 0.56100  0.97200  0.02990  Biso   1.000  O
