data_image0
_cell_length_a       14.3683
_cell_length_b       14.3683
_cell_length_c       15.393
_cell_angle_alpha    90
_cell_angle_beta     90
_cell_angle_gamma    120

_symmetry_space_group_name_H-M    "P 1"
_symmetry_int_tables_number       1

loop_
  _symmetry_equiv_pos_as_xyz
  'x, y, z'

loop_
  _atom_site_label
  _atom_site_occupancy
  _atom_site_fract_x
  _atom_site_fract_y
  _atom_site_fract_z
  _atom_site_thermal_displace_type
  _atom_site_B_iso_or_equiv
  _atom_site_type_symbol
  O1       1.0000 0.07600  0.82500  0.00000  Biso   1.000  O
  O2       1.0000 0.17500  0.25100  0.00000  Biso   1.000  O
  O3       1.0000 0.74900  0.92400  0.00000  Biso   1.000  O
  O4       1.0000 0.82500  0.74900  0.00000  Biso   1.000  O
  O5       1.0000 0.25100  0.07600  0.00000  Biso   1.000  O
  O6       1.0000 0.82500  0.07600  0.50000  Biso   1.000  O
  O7       1.0000 0.74900  0.82500  0.50000  Biso   1.000  O
  O8       1.0000 0.07600  0.25100  0.50000  Biso   1.000  O
  O9       1.0000 0.92400  0.17500  0.00000  Biso   1.000  O
  O10      1.0000 0.25100  0.17500  0.50000  Biso   1.000  O
  O11      1.0000 0.92400  0.74900  0.50000  Biso   1.000  O
  O12      1.0000 0.17500  0.92400  0.50000  Biso   1.000  O
  Ho1      1.0000 0.33330  0.66670  0.25000  Biso   1.000  Ho
  Ho2      1.0000 0.66670  0.33340  0.25000  Biso   1.000  Ho
  Ho3      1.0000 0.66670  0.33330  0.75000  Biso   1.000  Ho
  Ho4      1.0000 0.33330  0.66660  0.75000  Biso   1.000  Ho
  Cu1      1.0000 0.00000  0.50000  0.00000  Biso   1.000  Cu
  Cu2      1.0000 0.50000  0.50000  0.00000  Biso   1.000  Cu
  Cu3      1.0000 0.50000  0.00000  0.00000  Biso   1.000  Cu
  Cu4      1.0000 0.50000  0.00000  0.50000  Biso   1.000  Cu
  Cu5      1.0000 0.50000  0.50000  0.50000  Biso   1.000  Cu
  Cu6      1.0000 0.00000  0.50000  0.50000  Biso   1.000  Cu
  O13      1.0000 0.19480  0.58230  0.14510  Biso   1.000  O
  O14      1.0000 0.41770  0.61250  0.14510  Biso   1.000  O
  O15      1.0000 0.38750  0.80520  0.14510  Biso   1.000  O
  O16      1.0000 0.58230  0.38750  0.14510  Biso   1.000  O
  O17      1.0000 0.61250  0.19480  0.14510  Biso   1.000  O
  O18      1.0000 0.58230  0.19480  0.35490  Biso   1.000  O
  O19      1.0000 0.38750  0.58230  0.35490  Biso   1.000  O
  O20      1.0000 0.19480  0.61250  0.35490  Biso   1.000  O
  O21      1.0000 0.80520  0.41770  0.14510  Biso   1.000  O
  O22      1.0000 0.61250  0.41770  0.35490  Biso   1.000  O
  O23      1.0000 0.80520  0.38750  0.35490  Biso   1.000  O
  O24      1.0000 0.41770  0.80520  0.35490  Biso   1.000  O
  O25      1.0000 0.80520  0.41770  0.85490  Biso   1.000  O
  O26      1.0000 0.58230  0.38750  0.85490  Biso   1.000  O
  O27      1.0000 0.61250  0.19480  0.85490  Biso   1.000  O
  O28      1.0000 0.41770  0.61250  0.85490  Biso   1.000  O
  O29      1.0000 0.38750  0.80520  0.85490  Biso   1.000  O
  O30      1.0000 0.41770  0.80520  0.64510  Biso   1.000  O
  O31      1.0000 0.61250  0.41770  0.64510  Biso   1.000  O
  O32      1.0000 0.80520  0.38750  0.64510  Biso   1.000  O
  O33      1.0000 0.19480  0.58230  0.85490  Biso   1.000  O
  O34      1.0000 0.38750  0.58230  0.64510  Biso   1.000  O
  O35      1.0000 0.19480  0.61250  0.64510  Biso   1.000  O
  O36      1.0000 0.58230  0.19480  0.64510  Biso   1.000  O
  O37      1.0000 0.05210  0.44010  0.08800  Biso   1.000  O
  O38      1.0000 0.55990  0.61200  0.08800  Biso   1.000  O
  O39      1.0000 0.38800  0.94790  0.08800  Biso   1.000  O
  O40      1.0000 0.44010  0.38800  0.08800  Biso   1.000  O
  O41      1.0000 0.61200  0.05210  0.08800  Biso   1.000  O
  O42      1.0000 0.44010  0.05210  0.41200  Biso   1.000  O
  O43      1.0000 0.38800  0.44010  0.41200  Biso   1.000  O
  O44      1.0000 0.05210  0.61200  0.41200  Biso   1.000  O
  O45      1.0000 0.94790  0.55990  0.08800  Biso   1.000  O
  O46      1.0000 0.61200  0.55990  0.41200  Biso   1.000  O
  O47      1.0000 0.94790  0.38800  0.41200  Biso   1.000  O
  O48      1.0000 0.55990  0.94790  0.41200  Biso   1.000  O
  O49      1.0000 0.94790  0.55990  0.91200  Biso   1.000  O
  O50      1.0000 0.44010  0.38800  0.91200  Biso   1.000  O
  O51      1.0000 0.61200  0.05210  0.91200  Biso   1.000  O
  O52      1.0000 0.55990  0.61200  0.91200  Biso   1.000  O
  O53      1.0000 0.38800  0.94790  0.91200  Biso   1.000  O
  O54      1.0000 0.55990  0.94790  0.58800  Biso   1.000  O
  O55      1.0000 0.61200  0.55990  0.58800  Biso   1.000  O
  O56      1.0000 0.94790  0.38800  0.58800  Biso   1.000  O
  O57      1.0000 0.05210  0.44010  0.91200  Biso   1.000  O
  O58      1.0000 0.38800  0.44010  0.58800  Biso   1.000  O
  O59      1.0000 0.05210  0.61200  0.58800  Biso   1.000  O
  O60      1.0000 0.44010  0.05210  0.58800  Biso   1.000  O
  O61      1.0000 0.23490  0.46970  0.25000  Biso   1.000  O
  O62      1.0000 0.53030  0.76520  0.25000  Biso   1.000  O
  O63      1.0000 0.23480  0.76510  0.25000  Biso   1.000  O
  O64      1.0000 0.46970  0.23480  0.25000  Biso   1.000  O
  O65      1.0000 0.76520  0.23490  0.25000  Biso   1.000  O
  O66      1.0000 0.76510  0.53030  0.25000  Biso   1.000  O
  O67      1.0000 0.76510  0.53030  0.75000  Biso   1.000  O
  O68      1.0000 0.46970  0.23480  0.75000  Biso   1.000  O
  O69      1.0000 0.76520  0.23490  0.75000  Biso   1.000  O
  O70      1.0000 0.53030  0.76520  0.75000  Biso   1.000  O
  O71      1.0000 0.23480  0.76510  0.75000  Biso   1.000  O
  O72      1.0000 0.23490  0.46970  0.75000  Biso   1.000  O
  C1       1.0000 0.13070  0.48400  0.13860  Biso   1.000  C
  C2       1.0000 0.51600  0.64670  0.13860  Biso   1.000  C
  C3       1.0000 0.35330  0.86930  0.13860  Biso   1.000  C
  C4       1.0000 0.48400  0.35330  0.13860  Biso   1.000  C
  C5       1.0000 0.64670  0.13070  0.13860  Biso   1.000  C
  C6       1.0000 0.48400  0.13070  0.36140  Biso   1.000  C
  C7       1.0000 0.35330  0.48400  0.36140  Biso   1.000  C
  C8       1.0000 0.13070  0.64670  0.36140  Biso   1.000  C
  C9       1.0000 0.86930  0.51600  0.13860  Biso   1.000  C
  C10      1.0000 0.64670  0.51600  0.36140  Biso   1.000  C
  C11      1.0000 0.86930  0.35330  0.36140  Biso   1.000  C
  C12      1.0000 0.51600  0.86930  0.36140  Biso   1.000  C
  C13      1.0000 0.86930  0.51600  0.86140  Biso   1.000  C
  C14      1.0000 0.48400  0.35330  0.86140  Biso   1.000  C
  C15      1.0000 0.64670  0.13070  0.86140  Biso   1.000  C
  C16      1.0000 0.51600  0.64670  0.86140  Biso   1.000  C
  C17      1.0000 0.35330  0.86930  0.86140  Biso   1.000  C
  C18      1.0000 0.51600  0.86930  0.63860  Biso   1.000  C
  C19      1.0000 0.64670  0.51600  0.63860  Biso   1.000  C
  C20      1.0000 0.86930  0.35330  0.63860  Biso   1.000  C
  C21      1.0000 0.13070  0.48400  0.86140  Biso   1.000  C
  C22      1.0000 0.35330  0.48400  0.63860  Biso   1.000  C
  C23      1.0000 0.13070  0.64670  0.63860  Biso   1.000  C
  C24      1.0000 0.48400  0.13070  0.63860  Biso   1.000  C
  C25      1.0000 0.14910  0.40900  0.19430  Biso   1.000  C
  C26      1.0000 0.59100  0.74010  0.19430  Biso   1.000  C
  C27      1.0000 0.25990  0.85090  0.19430  Biso   1.000  C
  C28      1.0000 0.40900  0.25990  0.19430  Biso   1.000  C
  C29      1.0000 0.74010  0.14910  0.19430  Biso   1.000  C
  C30      1.0000 0.40900  0.14910  0.30570  Biso   1.000  C
  C31      1.0000 0.25990  0.40900  0.30570  Biso   1.000  C
  C32      1.0000 0.14910  0.74010  0.30570  Biso   1.000  C
  C33      1.0000 0.85090  0.59100  0.19430  Biso   1.000  C
  C34      1.0000 0.74010  0.59100  0.30570  Biso   1.000  C
  C35      1.0000 0.85090  0.25990  0.30570  Biso   1.000  C
  C36      1.0000 0.59100  0.85090  0.30570  Biso   1.000  C
  C37      1.0000 0.85090  0.59100  0.80570  Biso   1.000  C
  C38      1.0000 0.40900  0.25990  0.80570  Biso   1.000  C
  C39      1.0000 0.74010  0.14910  0.80570  Biso   1.000  C
  C40      1.0000 0.59100  0.74010  0.80570  Biso   1.000  C
  C41      1.0000 0.25990  0.85090  0.80570  Biso   1.000  C
  C42      1.0000 0.59100  0.85090  0.69430  Biso   1.000  C
  C43      1.0000 0.74010  0.59100  0.69430  Biso   1.000  C
  C44      1.0000 0.85090  0.25990  0.69430  Biso   1.000  C
  C45      1.0000 0.14910  0.40900  0.80570  Biso   1.000  C
  C46      1.0000 0.25990  0.40900  0.69430  Biso   1.000  C
  C47      1.0000 0.14910  0.74010  0.69430  Biso   1.000  C
  C48      1.0000 0.40900  0.14910  0.69430  Biso   1.000  C
  H1       1.0000 0.08500  0.36330  0.22780  Biso   1.000  H
  H2       1.0000 0.63670  0.72170  0.22780  Biso   1.000  H
  H3       1.0000 0.27830  0.91500  0.22780  Biso   1.000  H
  H4       1.0000 0.36330  0.27830  0.22780  Biso   1.000  H
  H5       1.0000 0.72170  0.08500  0.22780  Biso   1.000  H
  H6       1.0000 0.36330  0.08500  0.27220  Biso   1.000  H
  H7       1.0000 0.27830  0.36330  0.27220  Biso   1.000  H
  H8       1.0000 0.08500  0.72170  0.27220  Biso   1.000  H
  H9       1.0000 0.91500  0.63670  0.22780  Biso   1.000  H
  H10      1.0000 0.72170  0.63670  0.27220  Biso   1.000  H
  H11      1.0000 0.91500  0.27830  0.27220  Biso   1.000  H
  H12      1.0000 0.63670  0.91500  0.27220  Biso   1.000  H
  H13      1.0000 0.91500  0.63670  0.77220  Biso   1.000  H
  H14      1.0000 0.36330  0.27830  0.77220  Biso   1.000  H
  H15      1.0000 0.72170  0.08500  0.77220  Biso   1.000  H
  H16      1.0000 0.63670  0.72170  0.77220  Biso   1.000  H
  H17      1.0000 0.27830  0.91500  0.77220  Biso   1.000  H
  H18      1.0000 0.63670  0.91500  0.72780  Biso   1.000  H
  H19      1.0000 0.72170  0.63670  0.72780  Biso   1.000  H
  H20      1.0000 0.91500  0.27830  0.72780  Biso   1.000  H
  H21      1.0000 0.08500  0.36330  0.77220  Biso   1.000  H
  H22      1.0000 0.27830  0.36330  0.72780  Biso   1.000  H
  H23      1.0000 0.08500  0.72170  0.72780  Biso   1.000  H
  H24      1.0000 0.36330  0.08500  0.72780  Biso   1.000  H
  H25      1.0000 0.16520  0.36360  0.15810  Biso   1.000  H
  H26      1.0000 0.63640  0.80160  0.15810  Biso   1.000  H
  H27      1.0000 0.19840  0.83480  0.15810  Biso   1.000  H
  H28      1.0000 0.36360  0.19840  0.15810  Biso   1.000  H
  H29      1.0000 0.80160  0.16520  0.15810  Biso   1.000  H
  H30      1.0000 0.36360  0.16520  0.34190  Biso   1.000  H
  H31      1.0000 0.19840  0.36360  0.34190  Biso   1.000  H
  H32      1.0000 0.16520  0.80160  0.34190  Biso   1.000  H
  H33      1.0000 0.83480  0.63640  0.15810  Biso   1.000  H
  H34      1.0000 0.80160  0.63640  0.34190  Biso   1.000  H
  H35      1.0000 0.83480  0.19840  0.34190  Biso   1.000  H
  H36      1.0000 0.63640  0.83480  0.34190  Biso   1.000  H
  H37      1.0000 0.83480  0.63640  0.84190  Biso   1.000  H
  H38      1.0000 0.36360  0.19840  0.84190  Biso   1.000  H
  H39      1.0000 0.80160  0.16520  0.84190  Biso   1.000  H
  H40      1.0000 0.63640  0.80160  0.84190  Biso   1.000  H
  H41      1.0000 0.19840  0.83480  0.84190  Biso   1.000  H
  H42      1.0000 0.63640  0.83480  0.65810  Biso   1.000  H
  H43      1.0000 0.80160  0.63640  0.65810  Biso   1.000  H
  H44      1.0000 0.83480  0.19840  0.65810  Biso   1.000  H
  H45      1.0000 0.16520  0.36360  0.84190  Biso   1.000  H
  H46      1.0000 0.19840  0.36360  0.65810  Biso   1.000  H
  H47      1.0000 0.16520  0.80160  0.65810  Biso   1.000  H
  H48      1.0000 0.36360  0.16520  0.65810  Biso   1.000  H
  O73      1.0000 0.16390  0.67940  0.00000  Biso   1.000  O
  O74      1.0000 0.32060  0.48450  0.00000  Biso   1.000  O
  O75      1.0000 0.51550  0.83610  0.00000  Biso   1.000  O
  O76      1.0000 0.67940  0.51550  0.00000  Biso   1.000  O
  O77      1.0000 0.48450  0.16390  0.00000  Biso   1.000  O
  O78      1.0000 0.67940  0.16390  0.50000  Biso   1.000  O
  O79      1.0000 0.51550  0.67940  0.50000  Biso   1.000  O
  O80      1.0000 0.16390  0.48450  0.50000  Biso   1.000  O
  O81      1.0000 0.83610  0.32060  0.00000  Biso   1.000  O
  O82      1.0000 0.48450  0.32060  0.50000  Biso   1.000  O
  O83      1.0000 0.83610  0.51550  0.50000  Biso   1.000  O
  O84      1.0000 0.32060  0.83610  0.50000  Biso   1.000  O
  O85      1.0000 0.99300  0.78500  0.00000  Biso   1.000  O
  O86      1.0000 0.21500  0.20800  0.00000  Biso   1.000  O
  O87      1.0000 0.79200  0.00700  0.00000  Biso   1.000  O
  O88      1.0000 0.78500  0.79200  0.00000  Biso   1.000  O
  O89      1.0000 0.20800  0.99300  0.00000  Biso   1.000  O
  O90      1.0000 0.78500  0.99300  0.50000  Biso   1.000  O
  O91      1.0000 0.79200  0.78500  0.50000  Biso   1.000  O
  O92      1.0000 0.99300  0.20800  0.50000  Biso   1.000  O
  O93      1.0000 0.00700  0.21500  0.00000  Biso   1.000  O
  O94      1.0000 0.20800  0.21500  0.50000  Biso   1.000  O
  O95      1.0000 0.00700  0.79200  0.50000  Biso   1.000  O
  O96      1.0000 0.21500  0.00700  0.50000  Biso   1.000  O
  O97      1.0000 0.01700  0.86800  0.19300  Biso   1.000  O
  O98      1.0000 0.13200  0.14900  0.19300  Biso   1.000  O
  O99      1.0000 0.85100  0.98300  0.19300  Biso   1.000  O
  O100     1.0000 0.86800  0.85100  0.19300  Biso   1.000  O
  O101     1.0000 0.14900  0.01700  0.19300  Biso   1.000  O
  O102     1.0000 0.86800  0.01700  0.30700  Biso   1.000  O
  O103     1.0000 0.85100  0.86800  0.30700  Biso   1.000  O
  O104     1.0000 0.01700  0.14900  0.30700  Biso   1.000  O
  O105     1.0000 0.98300  0.13200  0.19300  Biso   1.000  O
  O106     1.0000 0.14900  0.13200  0.30700  Biso   1.000  O
  O107     1.0000 0.98300  0.85100  0.30700  Biso   1.000  O
  O108     1.0000 0.13200  0.98300  0.30700  Biso   1.000  O
  O109     1.0000 0.98300  0.13200  0.80700  Biso   1.000  O
  O110     1.0000 0.86800  0.85100  0.80700  Biso   1.000  O
  O111     1.0000 0.14900  0.01700  0.80700  Biso   1.000  O
  O112     1.0000 0.13200  0.14900  0.80700  Biso   1.000  O
  O113     1.0000 0.85100  0.98300  0.80700  Biso   1.000  O
  O114     1.0000 0.13200  0.98300  0.69300  Biso   1.000  O
  O115     1.0000 0.14900  0.13200  0.69300  Biso   1.000  O
  O116     1.0000 0.98300  0.85100  0.69300  Biso   1.000  O
  O117     1.0000 0.01700  0.86800  0.80700  Biso   1.000  O
  O118     1.0000 0.85100  0.86800  0.69300  Biso   1.000  O
  O119     1.0000 0.01700  0.14900  0.69300  Biso   1.000  O
  O120     1.0000 0.86800  0.01700  0.69300  Biso   1.000  O
