data_image0
_cell_length_a       13.507
_cell_length_b       8.5726
_cell_length_c       17.6663
_cell_angle_alpha    90
_cell_angle_beta     109.405
_cell_angle_gamma    90

_symmetry_space_group_name_H-M    "P 1"
_symmetry_int_tables_number       1

loop_
  _symmetry_equiv_pos_as_xyz
  'x, y, z'

loop_
  _atom_site_label
  _atom_site_occupancy
  _atom_site_fract_x
  _atom_site_fract_y
  _atom_site_fract_z
  _atom_site_thermal_displace_type
  _atom_site_B_iso_or_equiv
  _atom_site_type_symbol
  C1       1.0000 0.85950  0.17200  0.95600  Biso   1.000  C
  C2       1.0000 0.14050  0.67200  0.54400  Biso   1.000  C
  C3       1.0000 0.14050  0.82800  0.04400  Biso   1.000  C
  C4       1.0000 0.85950  0.32800  0.45600  Biso   1.000  C
  C5       1.0000 0.89550  0.07780  0.90550  Biso   1.000  C
  C6       1.0000 0.10450  0.57780  0.59450  Biso   1.000  C
  C7       1.0000 0.10450  0.92220  0.09450  Biso   1.000  C
  C8       1.0000 0.89550  0.42220  0.40550  Biso   1.000  C
  C9       1.0000 0.82590  0.97550  0.85340  Biso   1.000  C
  C10      1.0000 0.17410  0.47550  0.64660  Biso   1.000  C
  C11      1.0000 0.17410  0.02450  0.14660  Biso   1.000  C
  C12      1.0000 0.82590  0.52450  0.35340  Biso   1.000  C
  H1       1.0000 0.84870  0.91260  0.81950  Biso   1.000  H
  H2       1.0000 0.15130  0.41260  0.68050  Biso   1.000  H
  H3       1.0000 0.15130  0.08740  0.18050  Biso   1.000  H
  H4       1.0000 0.84870  0.58740  0.31950  Biso   1.000  H
  C13      1.0000 0.72360  0.96660  0.85150  Biso   1.000  C
  C14      1.0000 0.27640  0.46660  0.64850  Biso   1.000  C
  C15      1.0000 0.27640  0.03340  0.14850  Biso   1.000  C
  C16      1.0000 0.72360  0.53340  0.35150  Biso   1.000  C
  H5       1.0000 0.67830  0.89610  0.81690  Biso   1.000  H
  H6       1.0000 0.32170  0.39610  0.68310  Biso   1.000  H
  H7       1.0000 0.32170  0.10390  0.18310  Biso   1.000  H
  H8       1.0000 0.67830  0.60390  0.31690  Biso   1.000  H
  C17      1.0000 0.68660  0.05960  0.89970  Biso   1.000  C
  C18      1.0000 0.31340  0.55960  0.60030  Biso   1.000  C
  C19      1.0000 0.31340  0.94040  0.10030  Biso   1.000  C
  C20      1.0000 0.68660  0.44040  0.39970  Biso   1.000  C
  H9       1.0000 0.61680  0.05440  0.89700  Biso   1.000  H
  H10      1.0000 0.38320  0.55440  0.60300  Biso   1.000  H
  H11      1.0000 0.38320  0.94560  0.10300  Biso   1.000  H
  H12      1.0000 0.61680  0.44560  0.39700  Biso   1.000  H
  C21      1.0000 0.75590  0.16140  0.95220  Biso   1.000  C
  C22      1.0000 0.24410  0.66140  0.54780  Biso   1.000  C
  C23      1.0000 0.24410  0.83860  0.04780  Biso   1.000  C
  C24      1.0000 0.75590  0.33860  0.45220  Biso   1.000  C
  H13      1.0000 0.73210  0.22380  0.98570  Biso   1.000  H
  H14      1.0000 0.26790  0.72380  0.51430  Biso   1.000  H
  H15      1.0000 0.26790  0.77620  0.01430  Biso   1.000  H
  H16      1.0000 0.73210  0.27620  0.48570  Biso   1.000  H
  C25      1.0000 0.93010  0.28060  0.01490  Biso   1.000  C
  C26      1.0000 0.06990  0.78060  0.48510  Biso   1.000  C
  C27      1.0000 0.06990  0.71940  0.98510  Biso   1.000  C
  C28      1.0000 0.93010  0.21940  0.51490  Biso   1.000  C
  C29      1.0000 0.18260  0.40610  0.09110  Biso   1.000  C
  C30      1.0000 0.81740  0.90610  0.40890  Biso   1.000  C
  C31      1.0000 0.81740  0.59390  0.90890  Biso   1.000  C
  C32      1.0000 0.18260  0.09390  0.59110  Biso   1.000  C
  H17      1.0000 0.21100  0.35690  0.05620  Biso   1.000  H
  H18      1.0000 0.78900  0.85690  0.44380  Biso   1.000  H
  H19      1.0000 0.78900  0.64310  0.94380  Biso   1.000  H
  H20      1.0000 0.21100  0.14310  0.55620  Biso   1.000  H
  C33      1.0000 0.25430  0.49550  0.15790  Biso   1.000  C
  C34      1.0000 0.74570  0.99550  0.34210  Biso   1.000  C
  C35      1.0000 0.74570  0.50450  0.84210  Biso   1.000  C
  C36      1.0000 0.25430  0.00450  0.65790  Biso   1.000  C
  C37      1.0000 0.36120  0.47650  0.16930  Biso   1.000  C
  C38      1.0000 0.63880  0.97650  0.33070  Biso   1.000  C
  C39      1.0000 0.63880  0.52350  0.83070  Biso   1.000  C
  C40      1.0000 0.36120  0.02350  0.66930  Biso   1.000  C
  H21      1.0000 0.38140  0.41370  0.13400  Biso   1.000  H
  H22      1.0000 0.61860  0.91370  0.36600  Biso   1.000  H
  H23      1.0000 0.61860  0.58630  0.86600  Biso   1.000  H
  H24      1.0000 0.38140  0.08630  0.63400  Biso   1.000  H
  C41      1.0000 0.43730  0.54870  0.23170  Biso   1.000  C
  C42      1.0000 0.56270  0.04870  0.26830  Biso   1.000  C
  C43      1.0000 0.56270  0.45130  0.76830  Biso   1.000  C
  C44      1.0000 0.43730  0.95130  0.73170  Biso   1.000  C
  H25      1.0000 0.50800  0.53380  0.23850  Biso   1.000  H
  H26      1.0000 0.49200  0.03380  0.26150  Biso   1.000  H
  H27      1.0000 0.49200  0.46620  0.76150  Biso   1.000  H
  H28      1.0000 0.50800  0.96620  0.73850  Biso   1.000  H
  C45      1.0000 0.40850  0.64270  0.28380  Biso   1.000  C
  C46      1.0000 0.59150  0.14270  0.21620  Biso   1.000  C
  C47      1.0000 0.59150  0.35730  0.71620  Biso   1.000  C
  C48      1.0000 0.40850  0.85730  0.78380  Biso   1.000  C
  H29      1.0000 0.45980  0.69080  0.32610  Biso   1.000  H
  H30      1.0000 0.54020  0.19080  0.17390  Biso   1.000  H
  H31      1.0000 0.54020  0.30920  0.67390  Biso   1.000  H
  H32      1.0000 0.45980  0.80920  0.82610  Biso   1.000  H
  C49      1.0000 0.30340  0.66640  0.27360  Biso   1.000  C
  C50      1.0000 0.69660  0.16640  0.22640  Biso   1.000  C
  C51      1.0000 0.69660  0.33360  0.72640  Biso   1.000  C
  C52      1.0000 0.30340  0.83360  0.77360  Biso   1.000  C
  H33      1.0000 0.28450  0.73180  0.30850  Biso   1.000  H
  H34      1.0000 0.71550  0.23180  0.19150  Biso   1.000  H
  H35      1.0000 0.71550  0.26820  0.69150  Biso   1.000  H
  H36      1.0000 0.28450  0.76820  0.80850  Biso   1.000  H
  C53      1.0000 0.22680  0.59340  0.21190  Biso   1.000  C
  C54      1.0000 0.77320  0.09340  0.28810  Biso   1.000  C
  C55      1.0000 0.77320  0.40660  0.78810  Biso   1.000  C
  C56      1.0000 0.22680  0.90660  0.71190  Biso   1.000  C
  C57      1.0000 0.09090  0.71080  0.25620  Biso   1.000  C
  C58      1.0000 0.90910  0.21080  0.24380  Biso   1.000  C
  C59      1.0000 0.90910  0.28920  0.74380  Biso   1.000  C
  C60      1.0000 0.09090  0.78920  0.75620  Biso   1.000  C
  H37      1.0000 0.11650  0.81670  0.25680  Biso   1.000  H
  H38      1.0000 0.88350  0.31670  0.24320  Biso   1.000  H
  H39      1.0000 0.88350  0.18330  0.74320  Biso   1.000  H
  H40      1.0000 0.11650  0.68330  0.75680  Biso   1.000  H
  H41      1.0000 0.12050  0.66770  0.30980  Biso   1.000  H
  H42      1.0000 0.87950  0.16770  0.19020  Biso   1.000  H
  H43      1.0000 0.87950  0.33230  0.69020  Biso   1.000  H
  H44      1.0000 0.12050  0.83230  0.80980  Biso   1.000  H
  C61      1.0000 0.97190  0.71030  0.23040  Biso   1.000  C
  C62      1.0000 0.02810  0.21030  0.26960  Biso   1.000  C
  C63      1.0000 0.02810  0.28970  0.76960  Biso   1.000  C
  C64      1.0000 0.97190  0.78970  0.73040  Biso   1.000  C
  Cu1      1.0000 0.00236  0.47785  0.13646  Biso   1.000  Cu
  Cu2      1.0000 0.99764  0.97785  0.36354  Biso   1.000  Cu
  Cu3      1.0000 0.99764  0.52215  0.86354  Biso   1.000  Cu
  Cu4      1.0000 0.00236  0.02215  0.63646  Biso   1.000  Cu
  N1       1.0000 0.02800  0.29440  0.01536  Biso   1.000  N
  N2       1.0000 0.97200  0.79440  0.48464  Biso   1.000  N
  N3       1.0000 0.97200  0.70560  0.98464  Biso   1.000  N
  N4       1.0000 0.02800  0.20560  0.51536  Biso   1.000  N
  N5       1.0000 0.08480  0.39100  0.07763  Biso   1.000  N
  N6       1.0000 0.91520  0.89100  0.42237  Biso   1.000  N
  N7       1.0000 0.91520  0.60900  0.92237  Biso   1.000  N
  N8       1.0000 0.08480  0.10900  0.57763  Biso   1.000  N
  O1       1.0000 0.99450  0.08080  0.90412  Biso   1.000  O
  O2       1.0000 0.00550  0.58080  0.59588  Biso   1.000  O
  O3       1.0000 0.00550  0.91920  0.09588  Biso   1.000  O
  O4       1.0000 0.99450  0.41920  0.40412  Biso   1.000  O
  O5       1.0000 0.89300  0.35510  0.06295  Biso   1.000  O
  O6       1.0000 0.10700  0.85510  0.43705  Biso   1.000  O
  O7       1.0000 0.10700  0.64490  0.93705  Biso   1.000  O
  O8       1.0000 0.89300  0.14490  0.56295  Biso   1.000  O
  O9       1.0000 0.12142  0.61700  0.19939  Biso   1.000  O
  O10      1.0000 0.87858  0.11700  0.30061  Biso   1.000  O
  O11      1.0000 0.87858  0.38300  0.80061  Biso   1.000  O
  O12      1.0000 0.12142  0.88300  0.69939  Biso   1.000  O
  O13      1.0000 0.92140  0.60730  0.18116  Biso   1.000  O
  O14      1.0000 0.07860  0.10730  0.31884  Biso   1.000  O
  O15      1.0000 0.07860  0.39270  0.81884  Biso   1.000  O
  O16      1.0000 0.92140  0.89270  0.68116  Biso   1.000  O
  O17      1.0000 0.93050  0.80840  0.26183  Biso   1.000  O
  O18      1.0000 0.06950  0.30840  0.23817  Biso   1.000  O
  O19      1.0000 0.06950  0.19160  0.73817  Biso   1.000  O
  O20      1.0000 0.93050  0.69160  0.76183  Biso   1.000  O
  S1       1.0000 0.40970  0.22820  0.44590  Biso   1.000  S
  S2       1.0000 0.59030  0.72820  0.05410  Biso   1.000  S
  S3       1.0000 0.59030  0.77180  0.55410  Biso   1.000  S
  S4       1.0000 0.40970  0.27180  0.94590  Biso   1.000  S
  O21      1.0000 0.42960  0.20970  0.52970  Biso   1.000  O
  O22      1.0000 0.57040  0.70970  0.97030  Biso   1.000  O
  O23      1.0000 0.57040  0.79030  0.47030  Biso   1.000  O
  O24      1.0000 0.42960  0.29030  0.02970  Biso   1.000  O
  C65      1.0000 0.35600  0.05200  0.39510  Biso   1.000  C
  C66      1.0000 0.64400  0.55200  0.10490  Biso   1.000  C
  C67      1.0000 0.64400  0.94800  0.60490  Biso   1.000  C
  C68      1.0000 0.35600  0.44800  0.89510  Biso   1.000  C
  H45      1.0000 0.37200  0.96720  0.43260  Biso   1.000  H
  H46      1.0000 0.62800  0.46720  0.06740  Biso   1.000  H
  H47      1.0000 0.62800  0.03280  0.56740  Biso   1.000  H
  H48      1.0000 0.37200  0.53280  0.93260  Biso   1.000  H
  H49      1.0000 0.38560  0.03210  0.35360  Biso   1.000  H
  H50      1.0000 0.61440  0.53210  0.14640  Biso   1.000  H
  H51      1.0000 0.61440  0.96790  0.64640  Biso   1.000  H
  H52      1.0000 0.38560  0.46790  0.85360  Biso   1.000  H
  H53      1.0000 0.28110  0.06270  0.37160  Biso   1.000  H
  H54      1.0000 0.71890  0.56270  0.12840  Biso   1.000  H
  H55      1.0000 0.71890  0.93730  0.62840  Biso   1.000  H
  H56      1.0000 0.28110  0.43730  0.87160  Biso   1.000  H
  C69      1.0000 0.29230  0.34200  0.41170  Biso   1.000  C
  C70      1.0000 0.70770  0.84200  0.08830  Biso   1.000  C
  C71      1.0000 0.70770  0.65800  0.58830  Biso   1.000  C
  C72      1.0000 0.29230  0.15800  0.91170  Biso   1.000  C
  H57      1.0000 0.24050  0.29840  0.43180  Biso   1.000  H
  H58      1.0000 0.75950  0.79840  0.06820  Biso   1.000  H
  H59      1.0000 0.75950  0.70160  0.56820  Biso   1.000  H
  H60      1.0000 0.24050  0.20160  0.93180  Biso   1.000  H
  H61      1.0000 0.26600  0.34240  0.35410  Biso   1.000  H
  H62      1.0000 0.73400  0.84240  0.14590  Biso   1.000  H
  H63      1.0000 0.73400  0.65760  0.64590  Biso   1.000  H
  H64      1.0000 0.26600  0.15760  0.85410  Biso   1.000  H
  H65      1.0000 0.30740  0.44740  0.43080  Biso   1.000  H
  H66      1.0000 0.69260  0.94740  0.06920  Biso   1.000  H
  H67      1.0000 0.69260  0.55260  0.56920  Biso   1.000  H
  H68      1.0000 0.30740  0.05260  0.93080  Biso   1.000  H
  H69      1.0000 0.02000  0.12800  0.93900  Biso   1.000  H
  H70      1.0000 0.98000  0.62800  0.56100  Biso   1.000  H
  H71      1.0000 0.98000  0.87200  0.06100  Biso   1.000  H
  H72      1.0000 0.02000  0.37200  0.43900  Biso   1.000  H
  C73      1.0000 0.34500  0.33200  0.39000  Biso   1.000  C
  C74      1.0000 0.65500  0.83200  0.11000  Biso   1.000  C
  C75      1.0000 0.65500  0.66800  0.61000  Biso   1.000  C
  C76      1.0000 0.34500  0.16800  0.89000  Biso   1.000  C
  C77      1.0000 0.46700  0.23600  0.51900  Biso   1.000  C
  C78      1.0000 0.53300  0.73600  0.98100  Biso   1.000  C
  C79      1.0000 0.53300  0.76400  0.48100  Biso   1.000  C
  C80      1.0000 0.46700  0.26400  0.01900  Biso   1.000  C
  H73      1.0000 0.27550  0.35360  0.35510  Biso   1.000  H
  H74      1.0000 0.72450  0.85360  0.14490  Biso   1.000  H
  H75      1.0000 0.72450  0.64640  0.64490  Biso   1.000  H
  H76      1.0000 0.27550  0.14640  0.85510  Biso   1.000  H
  H77      1.0000 0.38580  0.28880  0.35940  Biso   1.000  H
  H78      1.0000 0.61420  0.78880  0.14060  Biso   1.000  H
  H79      1.0000 0.61420  0.71120  0.64060  Biso   1.000  H
  H80      1.0000 0.38580  0.21120  0.85940  Biso   1.000  H
  H81      1.0000 0.37780  0.42640  0.41560  Biso   1.000  H
  H82      1.0000 0.62220  0.92640  0.08440  Biso   1.000  H
  H83      1.0000 0.62220  0.57360  0.58440  Biso   1.000  H
  H84      1.0000 0.37780  0.07360  0.91560  Biso   1.000  H
  H85      1.0000 0.48650  0.16880  0.56500  Biso   1.000  H
  H86      1.0000 0.51350  0.66880  0.93500  Biso   1.000  H
  H87      1.0000 0.51350  0.83120  0.43500  Biso   1.000  H
  H88      1.0000 0.48650  0.33120  0.06500  Biso   1.000  H
  H89      1.0000 0.47390  0.34270  0.53590  Biso   1.000  H
  H90      1.0000 0.52610  0.84270  0.96410  Biso   1.000  H
  H91      1.0000 0.52610  0.65730  0.46410  Biso   1.000  H
  H92      1.0000 0.47390  0.15730  0.03590  Biso   1.000  H
  H93      1.0000 0.51200  0.21590  0.48780  Biso   1.000  H
  H94      1.0000 0.48800  0.71590  0.01220  Biso   1.000  H
  H95      1.0000 0.48800  0.78410  0.51220  Biso   1.000  H
  H96      1.0000 0.51200  0.28410  0.98780  Biso   1.000  H
  O25      1.0000 0.34000  0.04300  0.41600  Biso   1.000  O
  O26      1.0000 0.66000  0.54300  0.08400  Biso   1.000  O
  O27      1.0000 0.66000  0.95700  0.58400  Biso   1.000  O
  O28      1.0000 0.34000  0.45700  0.91600  Biso   1.000  O
  S5       1.0000 0.34070  0.19990  0.46200  Biso   1.000  S
  S6       1.0000 0.65930  0.69990  0.03800  Biso   1.000  S
  S7       1.0000 0.65930  0.80010  0.53800  Biso   1.000  S
  S8       1.0000 0.34070  0.30010  0.96200  Biso   1.000  S
