data_image0
_cell_length_a       21.382
_cell_length_b       9.906
_cell_length_c       6.084
_cell_angle_alpha    90
_cell_angle_beta     90
_cell_angle_gamma    90

_symmetry_space_group_name_H-M    "P 1"
_symmetry_int_tables_number       1

loop_
  _symmetry_equiv_pos_as_xyz
  'x, y, z'

loop_
  _atom_site_label
  _atom_site_occupancy
  _atom_site_fract_x
  _atom_site_fract_y
  _atom_site_fract_z
  _atom_site_thermal_displace_type
  _atom_site_B_iso_or_equiv
  _atom_site_type_symbol
  Cu1      1.0000 0.09592  0.94215  0.04173  Biso   1.000  Cu
  Cu2      1.0000 0.90408  0.05785  0.54173  Biso   1.000  Cu
  Cu3      1.0000 0.40408  0.44215  0.54173  Biso   1.000  Cu
  Cu4      1.0000 0.59592  0.55785  0.04173  Biso   1.000  Cu
  O1       1.0000 0.03016  0.94832  0.82030  Biso   1.000  O
  O2       1.0000 0.96984  0.05168  0.32030  Biso   1.000  O
  O3       1.0000 0.46984  0.44832  0.32030  Biso   1.000  O
  O4       1.0000 0.53016  0.55168  0.82030  Biso   1.000  O
  O5       1.0000 0.92970  0.89236  0.77680  Biso   1.000  O
  O6       1.0000 0.07030  0.10764  0.27680  Biso   1.000  O
  O7       1.0000 0.57030  0.39236  0.27680  Biso   1.000  O
  O8       1.0000 0.42970  0.60764  0.77680  Biso   1.000  O
  O9       1.0000 0.86946  0.47270  0.25180  Biso   1.000  O
  O10      1.0000 0.13054  0.52730  0.75180  Biso   1.000  O
  O11      1.0000 0.63054  0.97270  0.75180  Biso   1.000  O
  O12      1.0000 0.36946  0.02730  0.25180  Biso   1.000  O
  H1       1.0000 0.84700  0.41200  0.32200  Biso   1.000  H
  H2       1.0000 0.15300  0.58800  0.82200  Biso   1.000  H
  H3       1.0000 0.65300  0.91200  0.82200  Biso   1.000  H
  H4       1.0000 0.34700  0.08800  0.32200  Biso   1.000  H
  O13      1.0000 0.89618  0.50610  0.60090  Biso   1.000  O
  O14      1.0000 0.10382  0.49390  0.10090  Biso   1.000  O
  O15      1.0000 0.60382  0.00610  0.10090  Biso   1.000  O
  O16      1.0000 0.39618  0.99390  0.60090  Biso   1.000  O
  N1       1.0000 0.03919  0.80670  0.18080  Biso   1.000  N
  N2       1.0000 0.96081  0.19330  0.68080  Biso   1.000  N
  N3       1.0000 0.46081  0.30670  0.68080  Biso   1.000  N
  N4       1.0000 0.53919  0.69330  0.18080  Biso   1.000  N
  C1       1.0000 0.98084  0.88375  0.87140  Biso   1.000  C
  C2       1.0000 0.01916  0.11625  0.37140  Biso   1.000  C
  C3       1.0000 0.51916  0.38375  0.37140  Biso   1.000  C
  C4       1.0000 0.48084  0.61625  0.87140  Biso   1.000  C
  C5       1.0000 0.90202  0.53000  0.41010  Biso   1.000  C
  C6       1.0000 0.09798  0.47000  0.91010  Biso   1.000  C
  C7       1.0000 0.59798  0.03000  0.91010  Biso   1.000  C
  C8       1.0000 0.40202  0.97000  0.41010  Biso   1.000  C
  C9       1.0000 0.98608  0.79167  0.06740  Biso   1.000  C
  C10      1.0000 0.01392  0.20833  0.56740  Biso   1.000  C
  C11      1.0000 0.51392  0.29167  0.56740  Biso   1.000  C
  C12      1.0000 0.48608  0.70833  0.06740  Biso   1.000  C
  C13      1.0000 0.94034  0.70000  0.12740  Biso   1.000  C
  C14      1.0000 0.05966  0.30000  0.62740  Biso   1.000  C
  C15      1.0000 0.55966  0.20000  0.62740  Biso   1.000  C
  C16      1.0000 0.44034  0.80000  0.12740  Biso   1.000  C
  H5       1.0000 0.90500  0.68800  0.03200  Biso   1.000  H
  H6       1.0000 0.09500  0.31200  0.53200  Biso   1.000  H
  H7       1.0000 0.59500  0.18800  0.53200  Biso   1.000  H
  H8       1.0000 0.40500  0.81200  0.03200  Biso   1.000  H
  C17      1.0000 0.94837  0.63069  0.32440  Biso   1.000  C
  C18      1.0000 0.05163  0.36931  0.82440  Biso   1.000  C
  C19      1.0000 0.55163  0.13069  0.82440  Biso   1.000  C
  C20      1.0000 0.44837  0.86931  0.32440  Biso   1.000  C
  C21      1.0000 0.00147  0.65330  0.44830  Biso   1.000  C
  C22      1.0000 0.99853  0.34670  0.94830  Biso   1.000  C
  C23      1.0000 0.49853  0.15330  0.94830  Biso   1.000  C
  C24      1.0000 0.50147  0.84670  0.44830  Biso   1.000  C
  H9       1.0000 0.00520  0.60400  0.59500  Biso   1.000  H
  H10      1.0000 0.99480  0.39600  0.09500  Biso   1.000  H
  H11      1.0000 0.49480  0.10400  0.09500  Biso   1.000  H
  H12      1.0000 0.50520  0.89600  0.59500  Biso   1.000  H
  C25      1.0000 0.04702  0.73990  0.36860  Biso   1.000  C
  C26      1.0000 0.95298  0.26010  0.86860  Biso   1.000  C
  C27      1.0000 0.45298  0.23990  0.86860  Biso   1.000  C
  C28      1.0000 0.54702  0.76010  0.36860  Biso   1.000  C
  H13      1.0000 0.08670  0.75300  0.44200  Biso   1.000  H
  H14      1.0000 0.91330  0.24700  0.94200  Biso   1.000  H
  H15      1.0000 0.41330  0.25300  0.94200  Biso   1.000  H
  H16      1.0000 0.58670  0.74700  0.44200  Biso   1.000  H
  O17      1.0000 0.16959  0.87045  0.21080  Biso   1.000  O
  O18      1.0000 0.83041  0.12955  0.71080  Biso   1.000  O
  O19      1.0000 0.33041  0.37045  0.71080  Biso   1.000  O
  O20      1.0000 0.66959  0.62955  0.21080  Biso   1.000  O
  O21      1.0000 0.17876  0.75100  0.90370  Biso   1.000  O
  O22      1.0000 0.82124  0.24900  0.40370  Biso   1.000  O
  O23      1.0000 0.32124  0.25100  0.40370  Biso   1.000  O
  O24      1.0000 0.67876  0.74900  0.90370  Biso   1.000  O
  N5       1.0000 0.34708  0.56663  0.38680  Biso   1.000  N
  N6       1.0000 0.65292  0.43337  0.88680  Biso   1.000  N
  N7       1.0000 0.15292  0.06663  0.88680  Biso   1.000  N
  N8       1.0000 0.84708  0.93337  0.38680  Biso   1.000  N
  C29      1.0000 0.19541  0.78063  0.09390  Biso   1.000  C
  C30      1.0000 0.80459  0.21937  0.59390  Biso   1.000  C
  C31      1.0000 0.30459  0.28063  0.59390  Biso   1.000  C
  C32      1.0000 0.69541  0.71937  0.09390  Biso   1.000  C
  C33      1.0000 0.32878  0.53790  0.18260  Biso   1.000  C
  C34      1.0000 0.67122  0.46210  0.68260  Biso   1.000  C
  C35      1.0000 0.17122  0.03790  0.68260  Biso   1.000  C
  C36      1.0000 0.82878  0.96210  0.18260  Biso   1.000  C
  H17      1.0000 0.34590  0.46500  0.13900  Biso   1.000  H
  H18      1.0000 0.65410  0.53500  0.63900  Biso   1.000  H
  H19      1.0000 0.15410  0.96500  0.63900  Biso   1.000  H
  H20      1.0000 0.84590  0.03500  0.13900  Biso   1.000  H
  C37      1.0000 0.28011  0.60570  0.08170  Biso   1.000  C
  C38      1.0000 0.71989  0.39430  0.58170  Biso   1.000  C
  C39      1.0000 0.21989  0.10570  0.58170  Biso   1.000  C
  C40      1.0000 0.78011  0.89430  0.08170  Biso   1.000  C
  H21      1.0000 0.26870  0.60400  0.92500  Biso   1.000  H
  H22      1.0000 0.73130  0.39600  0.42500  Biso   1.000  H
  H23      1.0000 0.23130  0.10400  0.42500  Biso   1.000  H
  H24      1.0000 0.76870  0.89600  0.92500  Biso   1.000  H
  C41      1.0000 0.24961  0.70749  0.19630  Biso   1.000  C
  C42      1.0000 0.75039  0.29251  0.69630  Biso   1.000  C
  C43      1.0000 0.25039  0.20749  0.69630  Biso   1.000  C
  C44      1.0000 0.74961  0.79251  0.19630  Biso   1.000  C
  C45      1.0000 0.26994  0.73900  0.40630  Biso   1.000  C
  C46      1.0000 0.73006  0.26100  0.90630  Biso   1.000  C
  C47      1.0000 0.23006  0.23900  0.90630  Biso   1.000  C
  C48      1.0000 0.76994  0.76100  0.40630  Biso   1.000  C
  H25      1.0000 0.25380  0.79800  0.50900  Biso   1.000  H
  H26      1.0000 0.74620  0.20200  0.00900  Biso   1.000  H
  H27      1.0000 0.24620  0.29800  0.00900  Biso   1.000  H
  H28      1.0000 0.75380  0.70200  0.50900  Biso   1.000  H
  C49      1.0000 0.31873  0.66640  0.49540  Biso   1.000  C
  C50      1.0000 0.68127  0.33360  0.99540  Biso   1.000  C
  C51      1.0000 0.18127  0.16640  0.99540  Biso   1.000  C
  C52      1.0000 0.81873  0.83360  0.49540  Biso   1.000  C
  H29      1.0000 0.33020  0.67500  0.64800  Biso   1.000  H
  H30      1.0000 0.66980  0.32500  0.14800  Biso   1.000  H
  H31      1.0000 0.16980  0.17500  0.14800  Biso   1.000  H
  H32      1.0000 0.83020  0.82500  0.64800  Biso   1.000  H
