data_image0
_cell_length_a       8.071
_cell_length_b       9.114
_cell_length_c       17.051
_cell_angle_alpha    87.75
_cell_angle_beta     83.63
_cell_angle_gamma    75.91

_symmetry_space_group_name_H-M    "P 1"
_symmetry_int_tables_number       1

loop_
  _symmetry_equiv_pos_as_xyz
  'x, y, z'

loop_
  _atom_site_label
  _atom_site_occupancy
  _atom_site_fract_x
  _atom_site_fract_y
  _atom_site_fract_z
  _atom_site_thermal_displace_type
  _atom_site_B_iso_or_equiv
  _atom_site_type_symbol
  Cu1      1.0000 0.95549  0.53038  0.73631  Biso   1.000  Cu
  Cu2      1.0000 0.04451  0.46962  0.26369  Biso   1.000  Cu
  O1       1.0000 0.68260  0.54720  0.68680  Biso   1.000  O
  O2       1.0000 0.31740  0.45280  0.31320  Biso   1.000  O
  N1       1.0000 0.06280  0.41500  0.63940  Biso   1.000  N
  N2       1.0000 0.93720  0.58500  0.36060  Biso   1.000  N
  N3       1.0000 0.08050  0.68040  0.68300  Biso   1.000  N
  N4       1.0000 0.91950  0.31960  0.31700  Biso   1.000  N
  N5       1.0000 0.81740  0.67600  0.81780  Biso   1.000  N
  N6       1.0000 0.18260  0.32400  0.18220  Biso   1.000  N
  N7       1.0000 0.49400  0.01770  0.96750  Biso   1.000  N
  N8       1.0000 0.50600  0.98230  0.03250  Biso   1.000  N
  N9       1.0000 0.94210  0.34540  0.80430  Biso   1.000  N
  N10      1.0000 0.05790  0.65460  0.19570  Biso   1.000  N
  N11      1.0000 0.93190  0.02200  0.98440  Biso   1.000  N
  N12      1.0000 0.06810  0.97800  0.01560  Biso   1.000  N
  C1       1.0000 0.03270  0.28380  0.61840  Biso   1.000  C
  C2       1.0000 0.96730  0.71620  0.38160  Biso   1.000  C
  H1       1.0000 0.96600  0.23510  0.65330  Biso   1.000  H
  H2       1.0000 0.03400  0.76490  0.34670  Biso   1.000  H
  C3       1.0000 0.09860  0.22050  0.54640  Biso   1.000  C
  C4       1.0000 0.90140  0.77950  0.45360  Biso   1.000  C
  H3       1.0000 0.07450  0.13060  0.53290  Biso   1.000  H
  H4       1.0000 0.92550  0.86940  0.46710  Biso   1.000  H
  C5       1.0000 0.19940  0.28820  0.49440  Biso   1.000  C
  C6       1.0000 0.80060  0.71180  0.50560  Biso   1.000  C
  H5       1.0000 0.24720  0.24410  0.44620  Biso   1.000  H
  H6       1.0000 0.75280  0.75590  0.55380  Biso   1.000  H
  C7       1.0000 0.22800  0.42370  0.51530  Biso   1.000  C
  C8       1.0000 0.77200  0.57630  0.48470  Biso   1.000  C
  H7       1.0000 0.29270  0.47450  0.48060  Biso   1.000  H
  H8       1.0000 0.70730  0.52550  0.51940  Biso   1.000  H
  C9       1.0000 0.15960  0.48370  0.58880  Biso   1.000  C
  C10      1.0000 0.84040  0.51630  0.41120  Biso   1.000  C
  C11      1.0000 0.18030  0.62900  0.61670  Biso   1.000  C
  C12      1.0000 0.81970  0.37100  0.38330  Biso   1.000  C
  C13      1.0000 0.29320  0.70740  0.57880  Biso   1.000  C
  C14      1.0000 0.70680  0.29260  0.42120  Biso   1.000  C
  H9       1.0000 0.35890  0.67120  0.53210  Biso   1.000  H
  H10      1.0000 0.64110  0.32880  0.46790  Biso   1.000  H
  C15      1.0000 0.30730  0.84010  0.61090  Biso   1.000  C
  C16      1.0000 0.69270  0.15990  0.38910  Biso   1.000  C
  H11      1.0000 0.38360  0.89370  0.58650  Biso   1.000  H
  H12      1.0000 0.61640  0.10630  0.41350  Biso   1.000  H
  C17      1.0000 0.20850  0.89120  0.67840  Biso   1.000  C
  C18      1.0000 0.79150  0.10880  0.32160  Biso   1.000  C
  H13      1.0000 0.21600  0.98060  0.70070  Biso   1.000  H
  H14      1.0000 0.78400  0.01940  0.29930  Biso   1.000  H
  C19      1.0000 0.09640  0.80930  0.71380  Biso   1.000  C
  C20      1.0000 0.90360  0.19070  0.28620  Biso   1.000  C
  H15      1.0000 0.02980  0.84450  0.76050  Biso   1.000  H
  H16      1.0000 0.97020  0.15550  0.23950  Biso   1.000  H
  C21      1.0000 0.71280  0.80370  0.79210  Biso   1.000  C
  C22      1.0000 0.28720  0.19630  0.20790  Biso   1.000  C
  H17      1.0000 0.70960  0.81910  0.73800  Biso   1.000  H
  H18      1.0000 0.29040  0.18090  0.26200  Biso   1.000  H
  C23      1.0000 0.61160  0.91110  0.84150  Biso   1.000  C
  C24      1.0000 0.38840  0.08890  0.15850  Biso   1.000  C
  H19      1.0000 0.54330  0.99860  0.82130  Biso   1.000  H
  H20      1.0000 0.45670  0.00140  0.17870  Biso   1.000  H
  C25      1.0000 0.61210  0.88840  0.92060  Biso   1.000  C
  C26      1.0000 0.38790  0.11160  0.07940  Biso   1.000  C
  C27      1.0000 0.71600  0.75760  0.94930  Biso   1.000  C
  C28      1.0000 0.28400  0.24240  0.05070  Biso   1.000  C
  H21      1.0000 0.71700  0.73900  0.00320  Biso   1.000  H
  H22      1.0000 0.28300  0.26100  0.99680  Biso   1.000  H
  C29      1.0000 0.81840  0.65510  0.89520  Biso   1.000  C
  C30      1.0000 0.18160  0.34490  0.10480  Biso   1.000  C
  H23      1.0000 0.89070  0.56840  0.91400  Biso   1.000  H
  H24      1.0000 0.10930  0.43160  0.08600  Biso   1.000  H
  C31      1.0000 0.79600  0.33360  0.84610  Biso   1.000  C
  C32      1.0000 0.20400  0.66640  0.15390  Biso   1.000  C
  H25      1.0000 0.69390  0.40010  0.83490  Biso   1.000  H
  H26      1.0000 0.30610  0.59990  0.16510  Biso   1.000  H
  C33      1.0000 0.79050  0.22690  0.90500  Biso   1.000  C
  C34      1.0000 0.20950  0.77310  0.09500  Biso   1.000  C
  H27      1.0000 0.68670  0.22160  0.93330  Biso   1.000  H
  H28      1.0000 0.31330  0.77840  0.06670  Biso   1.000  H
  C35      1.0000 0.94220  0.12760  0.92140  Biso   1.000  C
  C36      1.0000 0.05780  0.87240  0.07860  Biso   1.000  C
  C37      1.0000 0.09240  0.13440  0.87580  Biso   1.000  C
  C38      1.0000 0.90760  0.86560  0.12420  Biso   1.000  C
  H29      1.0000 0.19500  0.06540  0.88390  Biso   1.000  H
  H30      1.0000 0.80500  0.93460  0.11610  Biso   1.000  H
  C39      1.0000 0.08840  0.24440  0.81830  Biso   1.000  C
  C40      1.0000 0.91160  0.75560  0.18170  Biso   1.000  C
  H31      1.0000 0.19010  0.24940  0.78800  Biso   1.000  H
  H32      1.0000 0.80990  0.75060  0.21200  Biso   1.000  H
  Cl1      1.0000 0.30980  0.59350  0.86997  Biso   1.000  Cl
  Cl2      1.0000 0.69020  0.40650  0.13003  Biso   1.000  Cl
  O3       1.0000 0.42720  0.62450  0.81150  Biso   1.000  O
  O4       1.0000 0.57280  0.37550  0.18850  Biso   1.000  O
  O5       1.0000 0.41130  0.52890  0.92630  Biso   1.000  O
  O6       1.0000 0.58870  0.47110  0.07370  Biso   1.000  O
  O7       1.0000 0.21700  0.51240  0.83530  Biso   1.000  O
  O8       1.0000 0.78300  0.48760  0.16470  Biso   1.000  O
  O9       1.0000 0.19600  0.73640  0.89170  Biso   1.000  O
  O10      1.0000 0.80400  0.26360  0.10830  Biso   1.000  O
  Cl3      1.0000 0.59890  0.15930  0.64406  Biso   1.000  Cl
  Cl4      1.0000 0.40110  0.84070  0.35594  Biso   1.000  Cl
  O11      1.0000 0.63520  0.06190  0.58180  Biso   1.000  O
  O12      1.0000 0.36480  0.93810  0.41820  Biso   1.000  O
  O13      1.0000 0.59250  0.30770  0.61250  Biso   1.000  O
  O14      1.0000 0.40750  0.69230  0.38750  Biso   1.000  O
  O15      1.0000 0.44290  0.14750  0.68340  Biso   1.000  O
  O16      1.0000 0.55710  0.85250  0.31660  Biso   1.000  O
  O17      1.0000 0.72580  0.12310  0.69550  Biso   1.000  O
  O18      1.0000 0.27420  0.87690  0.30450  Biso   1.000  O
