data_image0
_cell_length_a       18.993
_cell_length_b       15.8109
_cell_length_c       7.7635
_cell_angle_alpha    90
_cell_angle_beta     107.791
_cell_angle_gamma    90

_symmetry_space_group_name_H-M    "P 1"
_symmetry_int_tables_number       1

loop_
  _symmetry_equiv_pos_as_xyz
  'x, y, z'

loop_
  _atom_site_label
  _atom_site_occupancy
  _atom_site_fract_x
  _atom_site_fract_y
  _atom_site_fract_z
  _atom_site_thermal_displace_type
  _atom_site_B_iso_or_equiv
  _atom_site_type_symbol
  Cu1      1.0000 0.21938  0.12198  0.31759  Biso   1.000  Cu
  Cu2      1.0000 0.21938  0.87802  0.81759  Biso   1.000  Cu
  Cu3      1.0000 0.71938  0.62198  0.31759  Biso   1.000  Cu
  Cu4      1.0000 0.71938  0.37802  0.81759  Biso   1.000  Cu
  O1       1.0000 0.11406  0.12909  0.23480  Biso   1.000  O
  O2       1.0000 0.11406  0.87091  0.73480  Biso   1.000  O
  O3       1.0000 0.61406  0.62909  0.23480  Biso   1.000  O
  O4       1.0000 0.61406  0.37091  0.73480  Biso   1.000  O
  O5       1.0000 0.21953  0.20020  0.10780  Biso   1.000  O
  O6       1.0000 0.21953  0.79980  0.60780  Biso   1.000  O
  O7       1.0000 0.71953  0.70020  0.10780  Biso   1.000  O
  O8       1.0000 0.71953  0.29980  0.60780  Biso   1.000  O
  N1       1.0000 0.28672  0.21540  0.08670  Biso   1.000  N
  N2       1.0000 0.28672  0.78460  0.58670  Biso   1.000  N
  N3       1.0000 0.78672  0.71540  0.08670  Biso   1.000  N
  N4       1.0000 0.78672  0.28460  0.58670  Biso   1.000  N
  C1       1.0000 0.38380  0.17310  0.97930  Biso   1.000  C
  C2       1.0000 0.38380  0.82690  0.47930  Biso   1.000  C
  C3       1.0000 0.88380  0.67310  0.97930  Biso   1.000  C
  C4       1.0000 0.88380  0.32690  0.47930  Biso   1.000  C
  H1       1.0000 0.40230  0.13590  0.91100  Biso   1.000  H
  H2       1.0000 0.40230  0.86410  0.41100  Biso   1.000  H
  H3       1.0000 0.90230  0.63590  0.91100  Biso   1.000  H
  H4       1.0000 0.90230  0.36410  0.41100  Biso   1.000  H
  C5       1.0000 0.42840  0.23840  0.07280  Biso   1.000  C
  C6       1.0000 0.42840  0.76160  0.57280  Biso   1.000  C
  C7       1.0000 0.92840  0.73840  0.07280  Biso   1.000  C
  C8       1.0000 0.92840  0.26160  0.57280  Biso   1.000  C
  C9       1.0000 0.31300  0.16280  0.98630  Biso   1.000  C
  C10      1.0000 0.31300  0.83720  0.48630  Biso   1.000  C
  C11      1.0000 0.81300  0.66280  0.98630  Biso   1.000  C
  C12      1.0000 0.81300  0.33720  0.48630  Biso   1.000  C
  H5       1.0000 0.28340  0.11940  0.92170  Biso   1.000  H
  H6       1.0000 0.28340  0.88060  0.42170  Biso   1.000  H
  H7       1.0000 0.78340  0.61940  0.92170  Biso   1.000  H
  H8       1.0000 0.78340  0.38060  0.42170  Biso   1.000  H
  C13      1.0000 0.39660  0.29450  0.16720  Biso   1.000  C
  C14      1.0000 0.39660  0.70550  0.66720  Biso   1.000  C
  C15      1.0000 0.89660  0.79450  0.16720  Biso   1.000  C
  C16      1.0000 0.89660  0.20550  0.66720  Biso   1.000  C
  H9       1.0000 0.42370  0.34030  0.22810  Biso   1.000  H
  H10      1.0000 0.42370  0.65970  0.72810  Biso   1.000  H
  H11      1.0000 0.92370  0.84030  0.22810  Biso   1.000  H
  H12      1.0000 0.92370  0.15970  0.72810  Biso   1.000  H
  C17      1.0000 0.32590  0.28210  0.17030  Biso   1.000  C
  C18      1.0000 0.32590  0.71790  0.67030  Biso   1.000  C
  C19      1.0000 0.82590  0.78210  0.17030  Biso   1.000  C
  C20      1.0000 0.82590  0.21790  0.67030  Biso   1.000  C
  H13      1.0000 0.30470  0.32030  0.23100  Biso   1.000  H
  H14      1.0000 0.30470  0.67970  0.73100  Biso   1.000  H
  H15      1.0000 0.80470  0.82030  0.23100  Biso   1.000  H
  H16      1.0000 0.80470  0.17970  0.73100  Biso   1.000  H
  C21      1.0000 0.50630  0.24590  0.07700  Biso   1.000  C
  C22      1.0000 0.50630  0.75410  0.57700  Biso   1.000  C
  C23      1.0000 0.00630  0.74590  0.07700  Biso   1.000  C
  C24      1.0000 0.00630  0.25410  0.57700  Biso   1.000  C
  C25      1.0000 0.55050  0.31510  0.14980  Biso   1.000  C
  C26      1.0000 0.55050  0.68490  0.64980  Biso   1.000  C
  C27      1.0000 0.05050  0.81510  0.14980  Biso   1.000  C
  C28      1.0000 0.05050  0.18490  0.64980  Biso   1.000  C
  H17      1.0000 0.53170  0.35810  0.20490  Biso   1.000  H
  H18      1.0000 0.53170  0.64190  0.70490  Biso   1.000  H
  H19      1.0000 0.03170  0.85810  0.20490  Biso   1.000  H
  H20      1.0000 0.03170  0.14190  0.70490  Biso   1.000  H
  C29      1.0000 0.62170  0.32080  0.14130  Biso   1.000  C
  C30      1.0000 0.62170  0.67920  0.64130  Biso   1.000  C
  C31      1.0000 0.12170  0.82080  0.14130  Biso   1.000  C
  C32      1.0000 0.12170  0.17920  0.64130  Biso   1.000  C
  H21      1.0000 0.65000  0.36830  0.18850  Biso   1.000  H
  H22      1.0000 0.65000  0.63170  0.68850  Biso   1.000  H
  H23      1.0000 0.15000  0.86830  0.18850  Biso   1.000  H
  H24      1.0000 0.15000  0.13170  0.68850  Biso   1.000  H
  C33      1.0000 0.54050  0.18180  0.00670  Biso   1.000  C
  C34      1.0000 0.54050  0.81820  0.50670  Biso   1.000  C
  C35      1.0000 0.04050  0.68180  0.00670  Biso   1.000  C
  C36      1.0000 0.04050  0.31820  0.50670  Biso   1.000  C
  H25      1.0000 0.51410  0.13280  0.96190  Biso   1.000  H
  H26      1.0000 0.51410  0.86720  0.46190  Biso   1.000  H
  H27      1.0000 0.01410  0.63280  0.96190  Biso   1.000  H
  H28      1.0000 0.01410  0.36720  0.46190  Biso   1.000  H
  C37      1.0000 0.61120  0.18930  0.00230  Biso   1.000  C
  C38      1.0000 0.61120  0.81070  0.50230  Biso   1.000  C
  C39      1.0000 0.11120  0.68930  0.00230  Biso   1.000  C
  C40      1.0000 0.11120  0.31070  0.50230  Biso   1.000  C
  H29      1.0000 0.63230  0.14570  0.95450  Biso   1.000  H
  H30      1.0000 0.63230  0.85430  0.45450  Biso   1.000  H
  H31      1.0000 0.13230  0.64570  0.95450  Biso   1.000  H
  H32      1.0000 0.13230  0.35430  0.45450  Biso   1.000  H
  N5       1.0000 0.65101  0.25950  0.06650  Biso   1.000  N
  N6       1.0000 0.65101  0.74050  0.56650  Biso   1.000  N
  N7       1.0000 0.15101  0.75950  0.06650  Biso   1.000  N
  N8       1.0000 0.15101  0.24050  0.56650  Biso   1.000  N
  O9       1.0000 0.71838  0.26760  0.05210  Biso   1.000  O
  O10      1.0000 0.71838  0.73240  0.55210  Biso   1.000  O
  O11      1.0000 0.21838  0.76760  0.05210  Biso   1.000  O
  O12      1.0000 0.21838  0.23240  0.55210  Biso   1.000  O
  O13      1.0000 0.32490  0.12321  0.40400  Biso   1.000  O
  O14      1.0000 0.32490  0.87679  0.90400  Biso   1.000  O
  O15      1.0000 0.82490  0.62321  0.40400  Biso   1.000  O
  O16      1.0000 0.82490  0.37679  0.90400  Biso   1.000  O
  C41      1.0000 0.47560  0.15200  0.50340  Biso   1.000  C
  C42      1.0000 0.47560  0.84800  0.00340  Biso   1.000  C
  C43      1.0000 0.97560  0.65200  0.50340  Biso   1.000  C
  C44      1.0000 0.97560  0.34800  0.00340  Biso   1.000  C
  H33      1.0000 0.44680  0.18580  0.55330  Biso   1.000  H
  H34      1.0000 0.44680  0.81420  0.05330  Biso   1.000  H
  H35      1.0000 0.94680  0.68580  0.55330  Biso   1.000  H
  H36      1.0000 0.94680  0.31420  0.05330  Biso   1.000  H
  C45      1.0000 0.54930  0.17260  0.53310  Biso   1.000  C
  C46      1.0000 0.54930  0.82740  0.03310  Biso   1.000  C
  C47      1.0000 0.04930  0.67260  0.53310  Biso   1.000  C
  C48      1.0000 0.04930  0.32740  0.03310  Biso   1.000  C
  H37      1.0000 0.56980  0.21940  0.60300  Biso   1.000  H
  H38      1.0000 0.56980  0.78060  0.10300  Biso   1.000  H
  H39      1.0000 0.06980  0.71940  0.60300  Biso   1.000  H
  H40      1.0000 0.06980  0.28060  0.10300  Biso   1.000  H
  C49      1.0000 0.44430  0.08270  0.40160  Biso   1.000  C
  C50      1.0000 0.44430  0.91730  0.90160  Biso   1.000  C
  C51      1.0000 0.94430  0.58270  0.40160  Biso   1.000  C
  C52      1.0000 0.94430  0.41730  0.90160  Biso   1.000  C
  C53      1.0000 0.59190  0.12270  0.45770  Biso   1.000  C
  C54      1.0000 0.59190  0.87730  0.95770  Biso   1.000  C
  C55      1.0000 0.09190  0.62270  0.45770  Biso   1.000  C
  C56      1.0000 0.09190  0.37730  0.95770  Biso   1.000  C
  C57      1.0000 0.56230  0.05160  0.35920  Biso   1.000  C
  C58      1.0000 0.56230  0.94840  0.85920  Biso   1.000  C
  C59      1.0000 0.06230  0.55160  0.35920  Biso   1.000  C
  C60      1.0000 0.06230  0.44840  0.85920  Biso   1.000  C
  H41      1.0000 0.59170  0.01700  0.31260  Biso   1.000  H
  H42      1.0000 0.59170  0.98300  0.81260  Biso   1.000  H
  H43      1.0000 0.09170  0.51700  0.31260  Biso   1.000  H
  H44      1.0000 0.09170  0.48300  0.81260  Biso   1.000  H
  C61      1.0000 0.36250  0.06660  0.35400  Biso   1.000  C
  C62      1.0000 0.36250  0.93340  0.85400  Biso   1.000  C
  C63      1.0000 0.86250  0.56660  0.35400  Biso   1.000  C
  C64      1.0000 0.86250  0.43340  0.85400  Biso   1.000  C
  C65      1.0000 0.96420  0.14810  0.17190  Biso   1.000  C
  C66      1.0000 0.96420  0.85190  0.67190  Biso   1.000  C
  C67      1.0000 0.46420  0.64810  0.17190  Biso   1.000  C
  C68      1.0000 0.46420  0.35190  0.67190  Biso   1.000  C
  H45      1.0000 0.99660  0.18750  0.24340  Biso   1.000  H
  H46      1.0000 0.99660  0.81250  0.74340  Biso   1.000  H
  H47      1.0000 0.49660  0.68750  0.24340  Biso   1.000  H
  H48      1.0000 0.49660  0.31250  0.74340  Biso   1.000  H
  O17      1.0000 0.66288  0.14400  0.47380  Biso   1.000  O
  O18      1.0000 0.66288  0.85600  0.97380  Biso   1.000  O
  O19      1.0000 0.16288  0.64400  0.47380  Biso   1.000  O
  O20      1.0000 0.16288  0.35600  0.97380  Biso   1.000  O
  H49      1.0000 0.67850  0.17630  0.55960  Biso   1.000  H
  H50      1.0000 0.67850  0.82370  0.05960  Biso   1.000  H
  H51      1.0000 0.17850  0.67630  0.55960  Biso   1.000  H
  H52      1.0000 0.17850  0.32370  0.05960  Biso   1.000  H
  C69      1.0000 0.88950  0.15820  0.14060  Biso   1.000  C
  C70      1.0000 0.88950  0.84180  0.64060  Biso   1.000  C
  C71      1.0000 0.38950  0.65820  0.14060  Biso   1.000  C
  C72      1.0000 0.38950  0.34180  0.64060  Biso   1.000  C
  H53      1.0000 0.87160  0.20410  0.18940  Biso   1.000  H
  H54      1.0000 0.87160  0.79590  0.68940  Biso   1.000  H
  H55      1.0000 0.37160  0.70410  0.18940  Biso   1.000  H
  H56      1.0000 0.37160  0.29590  0.68940  Biso   1.000  H
  C73      1.0000 0.84090  0.09930  0.03580  Biso   1.000  C
  C74      1.0000 0.84090  0.90070  0.53580  Biso   1.000  C
  C75      1.0000 0.34090  0.59930  0.03580  Biso   1.000  C
  C76      1.0000 0.34090  0.40070  0.53580  Biso   1.000  C
  C77      1.0000 0.86820  0.03020  0.96380  Biso   1.000  C
  C78      1.0000 0.86820  0.96980  0.46380  Biso   1.000  C
  C79      1.0000 0.36820  0.53020  0.96380  Biso   1.000  C
  C80      1.0000 0.36820  0.46980  0.46380  Biso   1.000  C
  H57      1.0000 0.83580  0.99000  0.89520  Biso   1.000  H
  H58      1.0000 0.83580  0.01000  0.39520  Biso   1.000  H
  H59      1.0000 0.33580  0.49000  0.89520  Biso   1.000  H
  H60      1.0000 0.33580  0.51000  0.39520  Biso   1.000  H
  C81      1.0000 0.48830  0.03210  0.33010  Biso   1.000  C
  C82      1.0000 0.48830  0.96790  0.83010  Biso   1.000  C
  C83      1.0000 0.98830  0.53210  0.33010  Biso   1.000  C
  C84      1.0000 0.98830  0.46790  0.83010  Biso   1.000  C
  H61      1.0000 0.46810  0.98470  0.26210  Biso   1.000  H
  H62      1.0000 0.46810  0.01530  0.76210  Biso   1.000  H
  H63      1.0000 0.96810  0.48470  0.26210  Biso   1.000  H
  H64      1.0000 0.96810  0.51530  0.76210  Biso   1.000  H
  O21      1.0000 0.76638  0.10960  0.99280  Biso   1.000  O
  O22      1.0000 0.76638  0.89040  0.49280  Biso   1.000  O
  O23      1.0000 0.26638  0.60960  0.99280  Biso   1.000  O
  O24      1.0000 0.26638  0.39040  0.49280  Biso   1.000  O
  H65      1.0000 0.75440  0.11080  0.08570  Biso   1.000  H
  H66      1.0000 0.75440  0.88920  0.58570  Biso   1.000  H
  H67      1.0000 0.25440  0.61080  0.08570  Biso   1.000  H
  H68      1.0000 0.25440  0.38920  0.58570  Biso   1.000  H
  C85      1.0000 0.94290  0.02200  0.99500  Biso   1.000  C
  C86      1.0000 0.94290  0.97800  0.49500  Biso   1.000  C
  C87      1.0000 0.44290  0.52200  0.99500  Biso   1.000  C
  C88      1.0000 0.44290  0.47800  0.49500  Biso   1.000  C
  H69      1.0000 0.96090  0.97640  0.94540  Biso   1.000  H
  H70      1.0000 0.96090  0.02360  0.44540  Biso   1.000  H
  H71      1.0000 0.46090  0.47640  0.94540  Biso   1.000  H
  H72      1.0000 0.46090  0.52360  0.44540  Biso   1.000  H
  C89      1.0000 0.07418  0.07280  0.13010  Biso   1.000  C
  C90      1.0000 0.07418  0.92720  0.63010  Biso   1.000  C
  C91      1.0000 0.57418  0.57280  0.13010  Biso   1.000  C
  C92      1.0000 0.57418  0.42720  0.63010  Biso   1.000  C
  C93      1.0000 0.99235  0.08080  0.09940  Biso   1.000  C
  C94      1.0000 0.99235  0.91920  0.59940  Biso   1.000  C
  C95      1.0000 0.49235  0.58080  0.09940  Biso   1.000  C
  C96      1.0000 0.49235  0.41920  0.59940  Biso   1.000  C
  O25      1.0000 0.33591  0.00177  0.26480  Biso   1.000  O
  O26      1.0000 0.33591  0.99823  0.76480  Biso   1.000  O
  O27      1.0000 0.83591  0.50177  0.26480  Biso   1.000  O
  O28      1.0000 0.83591  0.49823  0.76480  Biso   1.000  O
  O29      1.0000 0.21743  0.02510  0.47470  Biso   1.000  O
  O30      1.0000 0.21743  0.97490  0.97470  Biso   1.000  O
  O31      1.0000 0.71743  0.52510  0.47470  Biso   1.000  O
  O32      1.0000 0.71743  0.47490  0.97470  Biso   1.000  O
  H73      1.0000 0.18170  0.02920  0.51230  Biso   1.000  H
  H74      1.0000 0.18170  0.97080  0.01230  Biso   1.000  H
  H75      1.0000 0.68170  0.52920  0.51230  Biso   1.000  H
  H76      1.0000 0.68170  0.47080  0.01230  Biso   1.000  H
  O33      1.0000 0.09710  0.01510  0.05730  Biso   1.000  O
  O34      1.0000 0.09710  0.98490  0.55730  Biso   1.000  O
  O35      1.0000 0.59710  0.51510  0.05730  Biso   1.000  O
  O36      1.0000 0.59710  0.48490  0.55730  Biso   1.000  O
  H77      1.0000 0.25900  0.02000  0.56000  Biso   1.000  H
  H78      1.0000 0.25900  0.98000  0.06000  Biso   1.000  H
  H79      1.0000 0.75900  0.52000  0.56000  Biso   1.000  H
  H80      1.0000 0.75900  0.48000  0.06000  Biso   1.000  H
