data_image0
_cell_length_a       10.693
_cell_length_b       10.808
_cell_length_c       17.446
_cell_angle_alpha    87.96
_cell_angle_beta     83.08
_cell_angle_gamma    61.137

_symmetry_space_group_name_H-M    "P 1"
_symmetry_int_tables_number       1

loop_
  _symmetry_equiv_pos_as_xyz
  'x, y, z'

loop_
  _atom_site_label
  _atom_site_occupancy
  _atom_site_fract_x
  _atom_site_fract_y
  _atom_site_fract_z
  _atom_site_thermal_displace_type
  _atom_site_B_iso_or_equiv
  _atom_site_type_symbol
  Cu1      1.0000 0.00770  0.58140  0.44385  Biso   1.000  Cu
  Cu2      1.0000 0.99230  0.41860  0.55615  Biso   1.000  Cu
  Cu3      1.0000 0.07490  0.48750  0.05751  Biso   1.000  Cu
  Cu4      1.0000 0.92510  0.51250  0.94249  Biso   1.000  Cu
  O1       1.0000 0.98400  0.69320  0.06150  Biso   1.000  O
  O2       1.0000 0.01600  0.30680  0.93850  Biso   1.000  O
  C1       1.0000 0.90100  0.76050  0.01530  Biso   1.000  C
  C2       1.0000 0.09900  0.23950  0.98470  Biso   1.000  C
  C3       1.0000 0.73300  0.00060  0.96680  Biso   1.000  C
  C4       1.0000 0.26700  0.99940  0.03320  Biso   1.000  C
  H1       1.0000 0.70000  0.95670  0.93570  Biso   1.000  H
  H2       1.0000 0.30000  0.04330  0.06430  Biso   1.000  H
  C5       1.0000 0.81900  0.13500  0.06490  Biso   1.000  C
  C6       1.0000 0.18100  0.86500  0.93510  Biso   1.000  C
  H3       1.0000 0.84550  0.18000  0.09880  Biso   1.000  H
  H4       1.0000 0.15450  0.82000  0.90120  Biso   1.000  H
  C7       1.0000 0.67900  0.14510  0.96240  Biso   1.000  C
  C8       1.0000 0.32100  0.85490  0.03760  Biso   1.000  C
  H5       1.0000 0.61500  0.19630  0.92720  Biso   1.000  H
  H6       1.0000 0.38500  0.80370  0.07280  Biso   1.000  H
  C9       1.0000 0.83000  0.92150  0.01430  Biso   1.000  C
  C10      1.0000 0.17000  0.07850  0.98570  Biso   1.000  C
  C11      1.0000 0.87400  0.98800  0.06550  Biso   1.000  C
  C12      1.0000 0.12600  0.01200  0.93450  Biso   1.000  C
  H7       1.0000 0.93940  0.93440  0.09960  Biso   1.000  H
  H8       1.0000 0.06060  0.06560  0.90040  Biso   1.000  H
  C13      1.0000 0.72100  0.21300  0.01040  Biso   1.000  C
  C14      1.0000 0.27900  0.78700  0.98960  Biso   1.000  C
  H9       1.0000 0.68550  0.30990  0.00740  Biso   1.000  H
  H10      1.0000 0.31450  0.69010  0.99260  Biso   1.000  H
  O3       1.0000 0.79930  0.66940  0.45990  Biso   1.000  O
  O4       1.0000 0.20070  0.33060  0.54010  Biso   1.000  O
  O5       1.0000 0.17900  0.46640  0.15690  Biso   1.000  O
  O6       1.0000 0.82100  0.53360  0.84310  Biso   1.000  O
  C15      1.0000 0.73010  0.62800  0.50670  Biso   1.000  C
  C16      1.0000 0.26990  0.37200  0.49330  Biso   1.000  C
  C17      1.0000 0.57320  0.69100  0.50340  Biso   1.000  C
  C18      1.0000 0.42680  0.30900  0.49660  Biso   1.000  C
  C19      1.0000 0.50100  0.80300  0.45720  Biso   1.000  C
  C20      1.0000 0.49900  0.19700  0.54280  Biso   1.000  C
  H11      1.0000 0.55250  0.84290  0.42940  Biso   1.000  H
  H12      1.0000 0.44750  0.15710  0.57060  Biso   1.000  H
  C21      1.0000 0.35900  0.85900  0.45030  Biso   1.000  C
  C22      1.0000 0.64100  0.14100  0.54970  Biso   1.000  C
  H13      1.0000 0.31490  0.93570  0.41850  Biso   1.000  H
  H14      1.0000 0.68510  0.06430  0.58150  Biso   1.000  H
  C23      1.0000 0.49100  0.64100  0.54520  Biso   1.000  C
  C24      1.0000 0.50900  0.35900  0.45480  Biso   1.000  C
  H15      1.0000 0.53380  0.56740  0.57870  Biso   1.000  H
  H16      1.0000 0.46620  0.43260  0.42130  Biso   1.000  H
  C25      1.0000 0.34200  0.69800  0.53920  Biso   1.000  C
  C26      1.0000 0.65800  0.30200  0.46080  Biso   1.000  C
  H17      1.0000 0.28690  0.66330  0.56810  Biso   1.000  H
  H18      1.0000 0.71310  0.33670  0.43190  Biso   1.000  H
  C27      1.0000 0.28400  0.80400  0.48910  Biso   1.000  C
  C28      1.0000 0.71600  0.19600  0.51090  Biso   1.000  C
  H19      1.0000 0.18770  0.84010  0.48170  Biso   1.000  H
  H20      1.0000 0.81230  0.15990  0.51830  Biso   1.000  H
  C29      1.0000 0.29800  0.33560  0.25720  Biso   1.000  C
  C30      1.0000 0.70200  0.66440  0.74280  Biso   1.000  C
  H21      1.0000 0.22820  0.40580  0.29120  Biso   1.000  H
  H22      1.0000 0.77180  0.59420  0.70880  Biso   1.000  H
  C31      1.0000 0.40800  0.22200  0.28760  Biso   1.000  C
  C32      1.0000 0.59200  0.77800  0.71240  Biso   1.000  C
  H23      1.0000 0.41000  0.21590  0.34070  Biso   1.000  H
  H24      1.0000 0.59000  0.78410  0.65930  Biso   1.000  H
  C33      1.0000 0.51720  0.11640  0.23800  Biso   1.000  C
  C34      1.0000 0.48280  0.88360  0.76200  Biso   1.000  C
  C35      1.0000 0.64500  0.99990  0.26870  Biso   1.000  C
  C36      1.0000 0.35500  0.00010  0.73130  Biso   1.000  C
  C37      1.0000 0.80900  0.90610  0.36380  Biso   1.000  C
  C38      1.0000 0.19100  0.09390  0.63620  Biso   1.000  C
  H25      1.0000 0.83190  0.91460  0.41250  Biso   1.000  H
  H26      1.0000 0.16810  0.08540  0.58750  Biso   1.000  H
  C39      1.0000 0.68610  0.01130  0.33820  Biso   1.000  C
  C40      1.0000 0.31390  0.98870  0.66180  Biso   1.000  C
  H27      1.0000 0.62920  0.09230  0.36890  Biso   1.000  H
  H28      1.0000 0.37080  0.90770  0.63110  Biso   1.000  H
  C41      1.0000 0.50300  0.13500  0.15990  Biso   1.000  C
  C42      1.0000 0.49700  0.86500  0.84010  Biso   1.000  C
  H29      1.0000 0.57170  0.06740  0.12410  Biso   1.000  H
  H30      1.0000 0.42830  0.93260  0.87590  Biso   1.000  H
  C43      1.0000 0.85900  0.77300  0.25190  Biso   1.000  C
  C44      1.0000 0.14100  0.22700  0.74810  Biso   1.000  C
  H31      1.0000 0.91730  0.69110  0.22220  Biso   1.000  H
  H32      1.0000 0.08270  0.30890  0.77780  Biso   1.000  H
  C45      1.0000 0.73500  0.87700  0.22730  Biso   1.000  C
  C46      1.0000 0.26500  0.12300  0.77270  Biso   1.000  C
  H33      1.0000 0.71060  0.86280  0.18020  Biso   1.000  H
  H34      1.0000 0.28940  0.13720  0.81980  Biso   1.000  H
  N1       1.0000 0.28600  0.35110  0.18350  Biso   1.000  N
  N2       1.0000 0.71400  0.64890  0.81650  Biso   1.000  N
  N3       1.0000 0.89600  0.79260  0.31960  Biso   1.000  N
  N4       1.0000 0.10400  0.20740  0.68040  Biso   1.000  N
  O7       1.0000 0.02190  0.69410  0.34290  Biso   1.000  O
  O8       1.0000 0.97810  0.30590  0.65710  Biso   1.000  O
  O9       1.0000 0.00940  0.43230  0.38120  Biso   1.000  O
  O10      1.0000 0.99060  0.56770  0.61880  Biso   1.000  O
  C47      1.0000 0.03270  0.21630  0.34560  Biso   1.000  C
  C48      1.0000 0.96730  0.78370  0.65440  Biso   1.000  C
  C49      1.0000 0.05020  0.08530  0.36720  Biso   1.000  C
  C50      1.0000 0.94980  0.91470  0.63280  Biso   1.000  C
  H35      1.0000 0.04050  0.06600  0.41930  Biso   1.000  H
  H36      1.0000 0.95950  0.93400  0.58070  Biso   1.000  H
  C51      1.0000 0.08200  0.98100  0.31120  Biso   1.000  C
  C52      1.0000 0.91800  0.01900  0.68880  Biso   1.000  C
  H37      1.0000 0.10230  0.89040  0.32560  Biso   1.000  H
  H38      1.0000 0.89770  0.10960  0.67440  Biso   1.000  H
  C53      1.0000 0.03300  0.24800  0.26740  Biso   1.000  C
  C54      1.0000 0.96700  0.75200  0.73260  Biso   1.000  C
  H39      1.0000 0.01680  0.33700  0.25180  Biso   1.000  H
  H40      1.0000 0.98320  0.66300  0.74820  Biso   1.000  H
  C55      1.0000 0.05900  0.14800  0.21460  Biso   1.000  C
  C56      1.0000 0.94100  0.85200  0.78540  Biso   1.000  C
  H41      1.0000 0.05840  0.17090  0.16270  Biso   1.000  H
  H42      1.0000 0.94160  0.82910  0.83730  Biso   1.000  H
  C57      1.0000 0.54100  0.54710  0.12810  Biso   1.000  C
  C58      1.0000 0.45900  0.45290  0.87190  Biso   1.000  C
  H43      1.0000 0.53540  0.53800  0.07600  Biso   1.000  H
  H44      1.0000 0.46460  0.46200  0.92400  Biso   1.000  H
  C59      1.0000 0.79200  0.51870  0.09420  Biso   1.000  C
  C60      1.0000 0.20800  0.48130  0.90580  Biso   1.000  C
  C61      1.0000 0.66800  0.55200  0.23240  Biso   1.000  C
  C62      1.0000 0.33200  0.44800  0.76760  Biso   1.000  C
  H45      1.0000 0.74990  0.54410  0.25080  Biso   1.000  H
  H46      1.0000 0.25010  0.45590  0.74920  Biso   1.000  H
  C63      1.0000 0.42600  0.57000  0.18270  Biso   1.000  C
  C64      1.0000 0.57400  0.43000  0.81730  Biso   1.000  C
  H47      1.0000 0.34420  0.57300  0.16700  Biso   1.000  H
  H48      1.0000 0.65580  0.42700  0.83300  Biso   1.000  H
  C65      1.0000 0.66800  0.53750  0.15250  Biso   1.000  C
  C66      1.0000 0.33200  0.46250  0.84750  Biso   1.000  C
  C67      1.0000 0.55200  0.57600  0.28260  Biso   1.000  C
  C68      1.0000 0.44800  0.42400  0.71740  Biso   1.000  C
  H49      1.0000 0.55560  0.58540  0.33500  Biso   1.000  H
  H50      1.0000 0.44440  0.41460  0.66500  Biso   1.000  H
  O11      1.0000 0.89890  0.50810  0.11950  Biso   1.000  O
  O12      1.0000 0.10110  0.49190  0.88050  Biso   1.000  O
  O13      1.0000 0.85860  0.71100  0.96200  Biso   1.000  O
  O14      1.0000 0.14140  0.28900  0.03800  Biso   1.000  O
  O15      1.0000 0.77700  0.52200  0.02350  Biso   1.000  O
  O16      1.0000 0.22300  0.47800  0.97650  Biso   1.000  O
  O17      1.0000 0.78560  0.52870  0.55500  Biso   1.000  O
  O18      1.0000 0.21440  0.47130  0.44500  Biso   1.000  O
  C69      1.0000 0.08400  0.01700  0.23270  Biso   1.000  C
  C70      1.0000 0.91600  0.98300  0.76730  Biso   1.000  C
  H51      1.0000 0.10210  0.95040  0.19440  Biso   1.000  H
  H52      1.0000 0.89790  0.04960  0.80560  Biso   1.000  H
  C71      1.0000 0.43000  0.58900  0.26010  Biso   1.000  C
  C72      1.0000 0.57000  0.41100  0.73990  Biso   1.000  C
  H53      1.0000 0.35040  0.60960  0.29600  Biso   1.000  H
  H54      1.0000 0.64960  0.39040  0.70400  Biso   1.000  H
  O19      1.0000 0.00460  0.28980  0.47550  Biso   1.000  O
  O20      1.0000 0.99540  0.71020  0.52450  Biso   1.000  O
  C73      1.0000 0.01250  0.31930  0.40450  Biso   1.000  C
  C74      1.0000 0.98750  0.68070  0.59550  Biso   1.000  C
  C75      1.0000 0.38800  0.25190  0.13530  Biso   1.000  C
  C76      1.0000 0.61200  0.74810  0.86470  Biso   1.000  C
  H55      1.0000 0.38100  0.26210  0.08260  Biso   1.000  H
  H56      1.0000 0.61900  0.73790  0.91740  Biso   1.000  H
