data_image0
_cell_length_a       14.062
_cell_length_b       9.4836
_cell_length_c       14.4585
_cell_angle_alpha    90
_cell_angle_beta     109.898
_cell_angle_gamma    90

_symmetry_space_group_name_H-M    "P 1"
_symmetry_int_tables_number       1

loop_
  _symmetry_equiv_pos_as_xyz
  'x, y, z'

loop_
  _atom_site_label
  _atom_site_occupancy
  _atom_site_fract_x
  _atom_site_fract_y
  _atom_site_fract_z
  _atom_site_thermal_displace_type
  _atom_site_B_iso_or_equiv
  _atom_site_type_symbol
  Cu1      1.0000 0.31208  0.07873  0.19838  Biso   1.000  Cu
  Cu2      1.0000 0.18792  0.57873  0.30162  Biso   1.000  Cu
  Cu3      1.0000 0.68792  0.92127  0.80162  Biso   1.000  Cu
  Cu4      1.0000 0.81208  0.42127  0.69838  Biso   1.000  Cu
  O1       1.0000 0.19442  0.02579  0.23121  Biso   1.000  O
  O2       1.0000 0.30558  0.52579  0.26879  Biso   1.000  O
  O3       1.0000 0.80558  0.97421  0.76879  Biso   1.000  O
  O4       1.0000 0.69442  0.47421  0.73121  Biso   1.000  O
  O5       1.0000 0.24644  0.81481  0.29950  Biso   1.000  O
  O6       1.0000 0.25356  0.31481  0.20050  Biso   1.000  O
  O7       1.0000 0.75356  0.18519  0.70050  Biso   1.000  O
  O8       1.0000 0.74644  0.68519  0.79950  Biso   1.000  O
  O9       1.0000 0.41574  0.83538  0.23576  Biso   1.000  O
  O10      1.0000 0.08426  0.33538  0.26424  Biso   1.000  O
  O11      1.0000 0.58426  0.16462  0.76424  Biso   1.000  O
  O12      1.0000 0.91574  0.66462  0.73576  Biso   1.000  O
  N1       1.0000 0.09376  0.62050  0.16734  Biso   1.000  N
  N2       1.0000 0.40624  0.12050  0.33266  Biso   1.000  N
  N3       1.0000 0.90624  0.37950  0.83266  Biso   1.000  N
  N4       1.0000 0.59376  0.87950  0.66734  Biso   1.000  N
  N5       1.0000 0.07249  0.64978  0.34335  Biso   1.000  N
  N6       1.0000 0.42751  0.14978  0.15665  Biso   1.000  N
  N7       1.0000 0.92751  0.35022  0.65665  Biso   1.000  N
  N8       1.0000 0.57249  0.85022  0.84335  Biso   1.000  N
  N9       1.0000 0.24799  0.52367  0.44264  Biso   1.000  N
  N10      1.0000 0.25201  0.02367  0.05736  Biso   1.000  N
  N11      1.0000 0.75201  0.47633  0.55736  Biso   1.000  N
  N12      1.0000 0.74799  0.97633  0.94264  Biso   1.000  N
  C1       1.0000 0.97718  0.62970  0.25832  Biso   1.000  C
  C2       1.0000 0.52282  0.12970  0.24168  Biso   1.000  C
  C3       1.0000 0.02282  0.37030  0.74168  Biso   1.000  C
  C4       1.0000 0.47718  0.87030  0.75832  Biso   1.000  C
  H1       1.0000 0.92630  0.70000  0.26140  Biso   1.000  H
  H2       1.0000 0.57370  0.20000  0.23860  Biso   1.000  H
  H3       1.0000 0.07370  0.30000  0.73860  Biso   1.000  H
  H4       1.0000 0.42630  0.80000  0.76140  Biso   1.000  H
  H5       1.0000 0.94950  0.53450  0.26130  Biso   1.000  H
  H6       1.0000 0.55050  0.03450  0.23870  Biso   1.000  H
  H7       1.0000 0.05050  0.46550  0.73870  Biso   1.000  H
  H8       1.0000 0.44950  0.96550  0.76130  Biso   1.000  H
  C5       1.0000 0.99787  0.64651  0.16278  Biso   1.000  C
  C6       1.0000 0.50213  0.14651  0.33722  Biso   1.000  C
  C7       1.0000 0.00213  0.35349  0.83722  Biso   1.000  C
  C8       1.0000 0.49787  0.85349  0.66278  Biso   1.000  C
  C9       1.0000 0.92313  0.68212  0.07522  Biso   1.000  C
  C10      1.0000 0.57687  0.18212  0.42478  Biso   1.000  C
  C11      1.0000 0.07687  0.31788  0.92478  Biso   1.000  C
  C12      1.0000 0.42313  0.81788  0.57522  Biso   1.000  C
  H9       1.0000 0.85610  0.70080  0.07330  Biso   1.000  H
  H10      1.0000 0.64390  0.20080  0.42670  Biso   1.000  H
  H11      1.0000 0.14390  0.29920  0.92670  Biso   1.000  H
  H12      1.0000 0.35610  0.79920  0.57330  Biso   1.000  H
  C13      1.0000 0.94795  0.69011  0.99003  Biso   1.000  C
  C14      1.0000 0.55205  0.19011  0.50997  Biso   1.000  C
  C15      1.0000 0.05205  0.30989  0.00997  Biso   1.000  C
  C16      1.0000 0.44795  0.80989  0.49003  Biso   1.000  C
  H13      1.0000 0.89780  0.71360  0.92900  Biso   1.000  H
  H14      1.0000 0.60220  0.21360  0.57100  Biso   1.000  H
  H15      1.0000 0.10220  0.28640  0.07100  Biso   1.000  H
  H16      1.0000 0.39780  0.78640  0.42900  Biso   1.000  H
  C17      1.0000 0.04636  0.66347  0.99510  Biso   1.000  C
  C18      1.0000 0.45364  0.16347  0.50490  Biso   1.000  C
  C19      1.0000 0.95364  0.33653  0.00490  Biso   1.000  C
  C20      1.0000 0.54636  0.83653  0.49510  Biso   1.000  C
  H17      1.0000 0.06460  0.66820  0.93770  Biso   1.000  H
  H18      1.0000 0.43540  0.16820  0.56230  Biso   1.000  H
  H19      1.0000 0.93540  0.33180  0.06230  Biso   1.000  H
  H20      1.0000 0.56460  0.83180  0.43770  Biso   1.000  H
  C21      1.0000 0.11762  0.62991  0.08488  Biso   1.000  C
  C22      1.0000 0.38238  0.12991  0.41512  Biso   1.000  C
  C23      1.0000 0.88238  0.37009  0.91512  Biso   1.000  C
  C24      1.0000 0.61762  0.87009  0.58488  Biso   1.000  C
  H21      1.0000 0.18540  0.61300  0.08860  Biso   1.000  H
  H22      1.0000 0.31460  0.11300  0.41140  Biso   1.000  H
  H23      1.0000 0.81460  0.38700  0.91140  Biso   1.000  H
  H24      1.0000 0.68540  0.88700  0.58860  Biso   1.000  H
  C25      1.0000 0.07443  0.56211  0.42921  Biso   1.000  C
  C26      1.0000 0.42557  0.06211  0.07079  Biso   1.000  C
  C27      1.0000 0.92557  0.43789  0.57079  Biso   1.000  C
  C28      1.0000 0.57443  0.93789  0.92921  Biso   1.000  C
  H25      1.0000 0.03810  0.47250  0.40600  Biso   1.000  H
  H26      1.0000 0.46190  0.97250  0.09400  Biso   1.000  H
  H27      1.0000 0.96190  0.52750  0.59400  Biso   1.000  H
  H28      1.0000 0.53810  0.02750  0.90600  Biso   1.000  H
  H29      1.0000 0.03980  0.61260  0.46860  Biso   1.000  H
  H30      1.0000 0.46020  0.11260  0.03140  Biso   1.000  H
  H31      1.0000 0.96020  0.38740  0.53140  Biso   1.000  H
  H32      1.0000 0.53980  0.88740  0.96860  Biso   1.000  H
  C29      1.0000 0.18184  0.53165  0.49193  Biso   1.000  C
  C30      1.0000 0.31816  0.03165  0.00807  Biso   1.000  C
  C31      1.0000 0.81816  0.46835  0.50807  Biso   1.000  C
  C32      1.0000 0.68184  0.96835  0.99193  Biso   1.000  C
  C33      1.0000 0.21174  0.50490  0.59206  Biso   1.000  C
  C34      1.0000 0.28826  0.00490  0.90794  Biso   1.000  C
  C35      1.0000 0.78826  0.49510  0.40794  Biso   1.000  C
  C36      1.0000 0.71174  0.99510  0.09206  Biso   1.000  C
  H33      1.0000 0.16520  0.51490  0.62630  Biso   1.000  H
  H34      1.0000 0.33480  0.01490  0.87370  Biso   1.000  H
  H35      1.0000 0.83480  0.48510  0.37370  Biso   1.000  H
  H36      1.0000 0.66520  0.98510  0.12630  Biso   1.000  H
  C37      1.0000 0.31081  0.46310  0.64163  Biso   1.000  C
  C38      1.0000 0.18919  0.96310  0.85837  Biso   1.000  C
  C39      1.0000 0.68919  0.53690  0.35837  Biso   1.000  C
  C40      1.0000 0.81081  0.03690  0.14163  Biso   1.000  C
  H37      1.0000 0.33260  0.44290  0.71000  Biso   1.000  H
  H38      1.0000 0.16740  0.94290  0.79000  Biso   1.000  H
  H39      1.0000 0.66740  0.55710  0.29000  Biso   1.000  H
  H40      1.0000 0.83260  0.05710  0.21000  Biso   1.000  H
  C41      1.0000 0.37728  0.45120  0.59034  Biso   1.000  C
  C42      1.0000 0.12272  0.95120  0.90966  Biso   1.000  C
  C43      1.0000 0.62272  0.54880  0.40966  Biso   1.000  C
  C44      1.0000 0.87728  0.04880  0.09034  Biso   1.000  C
  H41      1.0000 0.44500  0.42120  0.62260  Biso   1.000  H
  H42      1.0000 0.05500  0.92120  0.87740  Biso   1.000  H
  H43      1.0000 0.55500  0.57880  0.37740  Biso   1.000  H
  H44      1.0000 0.94500  0.07880  0.12260  Biso   1.000  H
  C45      1.0000 0.34357  0.48401  0.49107  Biso   1.000  C
  C46      1.0000 0.15643  0.98401  0.00893  Biso   1.000  C
  C47      1.0000 0.65643  0.51599  0.50893  Biso   1.000  C
  C48      1.0000 0.84357  0.01599  0.99107  Biso   1.000  C
  H45      1.0000 0.38970  0.47820  0.45610  Biso   1.000  H
  H46      1.0000 0.11030  0.97820  0.04390  Biso   1.000  H
  H47      1.0000 0.61030  0.52180  0.54390  Biso   1.000  H
  H48      1.0000 0.88970  0.02180  0.95610  Biso   1.000  H
  C49      1.0000 0.08706  0.79962  0.37787  Biso   1.000  C
  C50      1.0000 0.41294  0.29962  0.12213  Biso   1.000  C
  C51      1.0000 0.91294  0.20038  0.62213  Biso   1.000  C
  C52      1.0000 0.58706  0.70038  0.87787  Biso   1.000  C
  H49      1.0000 0.15170  0.80620  0.43360  Biso   1.000  H
  H50      1.0000 0.34830  0.30620  0.06640  Biso   1.000  H
  H51      1.0000 0.84830  0.19380  0.56640  Biso   1.000  H
  H52      1.0000 0.65170  0.69380  0.93360  Biso   1.000  H
  H53      1.0000 0.03210  0.82450  0.40320  Biso   1.000  H
  H54      1.0000 0.46790  0.32450  0.09680  Biso   1.000  H
  H55      1.0000 0.96790  0.17550  0.59680  Biso   1.000  H
  H56      1.0000 0.53210  0.67550  0.90320  Biso   1.000  H
  C53      1.0000 0.08855  0.90809  0.30132  Biso   1.000  C
  C54      1.0000 0.41145  0.40809  0.19868  Biso   1.000  C
  C55      1.0000 0.91145  0.09191  0.69868  Biso   1.000  C
  C56      1.0000 0.58855  0.59191  0.80132  Biso   1.000  C
  H57      1.0000 0.07700  0.00230  0.32500  Biso   1.000  H
  H58      1.0000 0.42300  0.50230  0.17500  Biso   1.000  H
  H59      1.0000 0.92300  0.99770  0.67500  Biso   1.000  H
  H60      1.0000 0.57700  0.49770  0.82500  Biso   1.000  H
  H61      1.0000 0.03130  0.88840  0.24020  Biso   1.000  H
  H62      1.0000 0.46870  0.38840  0.25980  Biso   1.000  H
  H63      1.0000 0.96870  0.11160  0.75980  Biso   1.000  H
  H64      1.0000 0.53130  0.61160  0.74020  Biso   1.000  H
  C57      1.0000 0.18482  0.91394  0.27630  Biso   1.000  C
  C58      1.0000 0.31518  0.41394  0.22370  Biso   1.000  C
  C59      1.0000 0.81518  0.08606  0.72370  Biso   1.000  C
  C60      1.0000 0.68482  0.58606  0.77630  Biso   1.000  C
  H65      1.0000 0.43500  0.78500  0.20400  Biso   1.000  H
  H66      1.0000 0.06500  0.28500  0.29600  Biso   1.000  H
  H67      1.0000 0.56500  0.21500  0.79600  Biso   1.000  H
  H68      1.0000 0.93500  0.71500  0.70400  Biso   1.000  H
  H69      1.0000 0.36400  0.80200  0.24600  Biso   1.000  H
  H70      1.0000 0.13600  0.30200  0.25400  Biso   1.000  H
  H71      1.0000 0.63600  0.19800  0.75400  Biso   1.000  H
  H72      1.0000 0.86400  0.69800  0.74600  Biso   1.000  H
  F1       1.0000 0.63591  0.36670  0.11710  Biso   1.000  F
  F2       1.0000 0.86409  0.86670  0.38290  Biso   1.000  F
  F3       1.0000 0.36409  0.63330  0.88290  Biso   1.000  F
  F4       1.0000 0.13591  0.13330  0.61710  Biso   1.000  F
  F5       1.0000 0.69271  0.58965  0.12176  Biso   1.000  F
  F6       1.0000 0.80729  0.08965  0.37824  Biso   1.000  F
  F7       1.0000 0.30729  0.41035  0.87824  Biso   1.000  F
  F8       1.0000 0.19271  0.91035  0.62176  Biso   1.000  F
  F9       1.0000 0.71078  0.43660  0.01071  Biso   1.000  F
  F10      1.0000 0.78922  0.93660  0.48929  Biso   1.000  F
  F11      1.0000 0.28922  0.56340  0.98929  Biso   1.000  F
  F12      1.0000 0.21078  0.06340  0.51071  Biso   1.000  F
  F13      1.0000 0.80100  0.40686  0.16940  Biso   1.000  F
  F14      1.0000 0.69900  0.90686  0.33060  Biso   1.000  F
  F15      1.0000 0.19900  0.59314  0.83060  Biso   1.000  F
  F16      1.0000 0.30100  0.09314  0.66940  Biso   1.000  F
  B1       1.0000 0.70992  0.44790  0.10477  Biso   1.000  B
  B2       1.0000 0.79008  0.94790  0.39523  Biso   1.000  B
  B3       1.0000 0.29008  0.55210  0.89523  Biso   1.000  B
  B4       1.0000 0.20992  0.05210  0.60477  Biso   1.000  B
  O13      1.0000 0.49768  0.71593  0.09755  Biso   1.000  O
  O14      1.0000 0.00232  0.21593  0.40245  Biso   1.000  O
  O15      1.0000 0.50232  0.28407  0.90245  Biso   1.000  O
  O16      1.0000 0.99768  0.78407  0.59755  Biso   1.000  O
  H73      1.0000 0.55000  0.67900  0.10600  Biso   1.000  H
  H74      1.0000 0.95000  0.17900  0.39400  Biso   1.000  H
  H75      1.0000 0.45000  0.32100  0.89400  Biso   1.000  H
  H76      1.0000 0.05000  0.82100  0.60600  Biso   1.000  H
  H77      1.0000 0.45200  0.68700  0.04900  Biso   1.000  H
  H78      1.0000 0.04800  0.18700  0.45100  Biso   1.000  H
  H79      1.0000 0.54800  0.31300  0.95100  Biso   1.000  H
  H80      1.0000 0.95200  0.81300  0.54900  Biso   1.000  H
