data_image0
_cell_length_a       10.4584
_cell_length_b       12.7138
_cell_length_c       14.6054
_cell_angle_alpha    90
_cell_angle_beta     90
_cell_angle_gamma    90

_symmetry_space_group_name_H-M    "P 1"
_symmetry_int_tables_number       1

loop_
  _symmetry_equiv_pos_as_xyz
  'x, y, z'

loop_
  _atom_site_label
  _atom_site_occupancy
  _atom_site_fract_x
  _atom_site_fract_y
  _atom_site_fract_z
  _atom_site_thermal_displace_type
  _atom_site_B_iso_or_equiv
  _atom_site_type_symbol
  Cu1      1.0000 0.49883  0.03232  0.10577  Biso   1.000  Cu
  Cu2      1.0000 0.00117  0.96768  0.60577  Biso   1.000  Cu
  Cu3      1.0000 0.50117  0.53232  0.39423  Biso   1.000  Cu
  Cu4      1.0000 0.99883  0.46768  0.89423  Biso   1.000  Cu
  O1       1.0000 0.74220  0.99070  0.08820  Biso   1.000  O
  O2       1.0000 0.75780  0.00930  0.58820  Biso   1.000  O
  O3       1.0000 0.25780  0.49070  0.41180  Biso   1.000  O
  O4       1.0000 0.24220  0.50930  0.91180  Biso   1.000  O
  O5       1.0000 0.61490  0.01150  0.20830  Biso   1.000  O
  O6       1.0000 0.88510  0.98850  0.70830  Biso   1.000  O
  O7       1.0000 0.38510  0.51150  0.29170  Biso   1.000  O
  O8       1.0000 0.11490  0.48850  0.79170  Biso   1.000  O
  O9       1.0000 0.19810  0.16690  0.28020  Biso   1.000  O
  O10      1.0000 0.30190  0.83310  0.78020  Biso   1.000  O
  O11      1.0000 0.80190  0.66690  0.21980  Biso   1.000  O
  O12      1.0000 0.69810  0.33310  0.71980  Biso   1.000  O
  O13      1.0000 0.14520  0.10630  0.15250  Biso   1.000  O
  O14      1.0000 0.35480  0.89370  0.65250  Biso   1.000  O
  O15      1.0000 0.85480  0.60630  0.34750  Biso   1.000  O
  O16      1.0000 0.64520  0.39370  0.84750  Biso   1.000  O
  O17      1.0000 0.31660  0.05150  0.21410  Biso   1.000  O
  O18      1.0000 0.18340  0.94850  0.71410  Biso   1.000  O
  O19      1.0000 0.68340  0.55150  0.28590  Biso   1.000  O
  O20      1.0000 0.81660  0.44850  0.78590  Biso   1.000  O
  N1       1.0000 0.99270  0.81300  0.60100  Biso   1.000  N
  N2       1.0000 0.50730  0.18700  0.10100  Biso   1.000  N
  N3       1.0000 0.00730  0.31300  0.89900  Biso   1.000  N
  N4       1.0000 0.49270  0.68700  0.39900  Biso   1.000  N
  N5       1.0000 0.04460  0.11900  0.58710  Biso   1.000  N
  N6       1.0000 0.45540  0.88100  0.08710  Biso   1.000  N
  N7       1.0000 0.95540  0.61900  0.91290  Biso   1.000  N
  N8       1.0000 0.54460  0.38100  0.41290  Biso   1.000  N
  N9       1.0000 0.09110  0.95170  0.48360  Biso   1.000  N
  N10      1.0000 0.40890  0.04830  0.98360  Biso   1.000  N
  N11      1.0000 0.90890  0.45170  0.01640  Biso   1.000  N
  N12      1.0000 0.59110  0.54830  0.51640  Biso   1.000  N
  N13      1.0000 0.22180  0.10920  0.21610  Biso   1.000  N
  N14      1.0000 0.27820  0.89080  0.71610  Biso   1.000  N
  N15      1.0000 0.77820  0.60920  0.28390  Biso   1.000  N
  N16      1.0000 0.72180  0.39080  0.78390  Biso   1.000  N
  C1       1.0000 0.14500  0.84320  0.47970  Biso   1.000  C
  C2       1.0000 0.35500  0.15680  0.97970  Biso   1.000  C
  C3       1.0000 0.85500  0.34320  0.02030  Biso   1.000  C
  C4       1.0000 0.64500  0.65680  0.52030  Biso   1.000  C
  H1       1.0000 0.23220  0.84280  0.50600  Biso   1.000  H
  H2       1.0000 0.26780  0.15720  0.00600  Biso   1.000  H
  H3       1.0000 0.76780  0.34280  0.99400  Biso   1.000  H
  H4       1.0000 0.73220  0.65720  0.49400  Biso   1.000  H
  H5       1.0000 0.15050  0.81970  0.41520  Biso   1.000  H
  H6       1.0000 0.34950  0.18030  0.91520  Biso   1.000  H
  H7       1.0000 0.84950  0.31970  0.08480  Biso   1.000  H
  H8       1.0000 0.65050  0.68030  0.58480  Biso   1.000  H
  C5       1.0000 0.06090  0.76980  0.53270  Biso   1.000  C
  C6       1.0000 0.43910  0.23020  0.03270  Biso   1.000  C
  C7       1.0000 0.93910  0.26980  0.96730  Biso   1.000  C
  C8       1.0000 0.56090  0.73020  0.46730  Biso   1.000  C
  C9       1.0000 0.05830  0.66150  0.51520  Biso   1.000  C
  C10      1.0000 0.44170  0.33850  0.01520  Biso   1.000  C
  C11      1.0000 0.94170  0.16150  0.98480  Biso   1.000  C
  C12      1.0000 0.55830  0.83850  0.48480  Biso   1.000  C
  H9       1.0000 0.10590  0.63210  0.46610  Biso   1.000  H
  H10      1.0000 0.39410  0.36790  0.96610  Biso   1.000  H
  H11      1.0000 0.89410  0.13210  0.03390  Biso   1.000  H
  H12      1.0000 0.60590  0.86790  0.53390  Biso   1.000  H
  C13      1.0000 0.98330  0.59790  0.57240  Biso   1.000  C
  C14      1.0000 0.51670  0.40210  0.07240  Biso   1.000  C
  C15      1.0000 0.01670  0.09790  0.92760  Biso   1.000  C
  C16      1.0000 0.48330  0.90210  0.42760  Biso   1.000  C
  H13      1.0000 0.97820  0.52440  0.56150  Biso   1.000  H
  H14      1.0000 0.52180  0.47560  0.06150  Biso   1.000  H
  H15      1.0000 0.02180  0.02440  0.93850  Biso   1.000  H
  H16      1.0000 0.47820  0.97560  0.43850  Biso   1.000  H
  C17      1.0000 0.91710  0.64210  0.64410  Biso   1.000  C
  C18      1.0000 0.58290  0.35790  0.14410  Biso   1.000  C
  C19      1.0000 0.08290  0.14210  0.85590  Biso   1.000  C
  C20      1.0000 0.41710  0.85790  0.35590  Biso   1.000  C
  H17      1.0000 0.87000  0.59920  0.68530  Biso   1.000  H
  H18      1.0000 0.63000  0.40080  0.18530  Biso   1.000  H
  H19      1.0000 0.13000  0.09920  0.81470  Biso   1.000  H
  H20      1.0000 0.37000  0.90080  0.31470  Biso   1.000  H
  C21      1.0000 0.92050  0.75000  0.65510  Biso   1.000  C
  C22      1.0000 0.57950  0.25000  0.15510  Biso   1.000  C
  C23      1.0000 0.07950  0.25000  0.84490  Biso   1.000  C
  C24      1.0000 0.42050  0.75000  0.34490  Biso   1.000  C
  H21      1.0000 0.87050  0.78110  0.70210  Biso   1.000  H
  H22      1.0000 0.62950  0.21890  0.20210  Biso   1.000  H
  H23      1.0000 0.12950  0.28110  0.79790  Biso   1.000  H
  H24      1.0000 0.37050  0.71890  0.29790  Biso   1.000  H
  C25      1.0000 0.19220  0.03600  0.48500  Biso   1.000  C
  C26      1.0000 0.30780  0.96400  0.98500  Biso   1.000  C
  C27      1.0000 0.80780  0.53600  0.01500  Biso   1.000  C
  C28      1.0000 0.69220  0.46400  0.51500  Biso   1.000  C
  H25      1.0000 0.26470  0.01400  0.52420  Biso   1.000  H
  H26      1.0000 0.23530  0.98600  0.02420  Biso   1.000  H
  H27      1.0000 0.73530  0.51400  0.97580  Biso   1.000  H
  H28      1.0000 0.76470  0.48600  0.47580  Biso   1.000  H
  H29      1.0000 0.22470  0.04860  0.42230  Biso   1.000  H
  H30      1.0000 0.27530  0.95140  0.92230  Biso   1.000  H
  H31      1.0000 0.77530  0.54860  0.07770  Biso   1.000  H
  H32      1.0000 0.72470  0.45140  0.57770  Biso   1.000  H
  C29      1.0000 0.13230  0.13410  0.52230  Biso   1.000  C
  C30      1.0000 0.36770  0.86590  0.02230  Biso   1.000  C
  C31      1.0000 0.86770  0.63410  0.97770  Biso   1.000  C
  C32      1.0000 0.63230  0.36590  0.47770  Biso   1.000  C
  C33      1.0000 0.16620  0.23530  0.49550  Biso   1.000  C
  C34      1.0000 0.33380  0.76470  0.99550  Biso   1.000  C
  C35      1.0000 0.83380  0.73530  0.00450  Biso   1.000  C
  C36      1.0000 0.66620  0.26470  0.50450  Biso   1.000  C
  H33      1.0000 0.22700  0.24530  0.44800  Biso   1.000  H
  H34      1.0000 0.27300  0.75470  0.94800  Biso   1.000  H
  H35      1.0000 0.77300  0.74530  0.05200  Biso   1.000  H
  H36      1.0000 0.72700  0.25470  0.55200  Biso   1.000  H
  C37      1.0000 0.11220  0.32040  0.53760  Biso   1.000  C
  C38      1.0000 0.38780  0.67960  0.03760  Biso   1.000  C
  C39      1.0000 0.88780  0.82040  0.96240  Biso   1.000  C
  C40      1.0000 0.61220  0.17960  0.46240  Biso   1.000  C
  H37      1.0000 0.13560  0.38970  0.52000  Biso   1.000  H
  H38      1.0000 0.36440  0.61030  0.02000  Biso   1.000  H
  H39      1.0000 0.86440  0.88970  0.98000  Biso   1.000  H
  H40      1.0000 0.63560  0.11030  0.48000  Biso   1.000  H
  C41      1.0000 0.02360  0.30420  0.60570  Biso   1.000  C
  C42      1.0000 0.47640  0.69580  0.10570  Biso   1.000  C
  C43      1.0000 0.97640  0.80420  0.89430  Biso   1.000  C
  C44      1.0000 0.52360  0.19580  0.39430  Biso   1.000  C
  H41      1.0000 0.98580  0.36220  0.63640  Biso   1.000  H
  H42      1.0000 0.51420  0.63780  0.13640  Biso   1.000  H
  H43      1.0000 0.01420  0.86220  0.86360  Biso   1.000  H
  H44      1.0000 0.48580  0.13780  0.36360  Biso   1.000  H
  C45      1.0000 0.99030  0.20320  0.62870  Biso   1.000  C
  C46      1.0000 0.50970  0.79680  0.12870  Biso   1.000  C
  C47      1.0000 0.00970  0.70320  0.87130  Biso   1.000  C
  C48      1.0000 0.49030  0.29680  0.37130  Biso   1.000  C
  H45      1.0000 0.92780  0.19200  0.67490  Biso   1.000  H
  H46      1.0000 0.57220  0.80800  0.17490  Biso   1.000  H
  H47      1.0000 0.07220  0.69200  0.82510  Biso   1.000  H
  H48      1.0000 0.42780  0.30800  0.32510  Biso   1.000  H
  C49      1.0000 0.00150  0.97230  0.40520  Biso   1.000  C
  C50      1.0000 0.49850  0.02770  0.90520  Biso   1.000  C
  C51      1.0000 0.99850  0.47230  0.09480  Biso   1.000  C
  C52      1.0000 0.50150  0.52770  0.59480  Biso   1.000  C
  H49      1.0000 0.05030  0.96770  0.34730  Biso   1.000  H
  H50      1.0000 0.44970  0.03230  0.84730  Biso   1.000  H
  H51      1.0000 0.94970  0.46770  0.15270  Biso   1.000  H
  H52      1.0000 0.55030  0.53230  0.65270  Biso   1.000  H
  H53      1.0000 0.96850  0.04500  0.41060  Biso   1.000  H
  H54      1.0000 0.53150  0.95500  0.91060  Biso   1.000  H
  H55      1.0000 0.03150  0.54500  0.08940  Biso   1.000  H
  H56      1.0000 0.46850  0.45500  0.58940  Biso   1.000  H
  C53      1.0000 0.88960  0.89770  0.40010  Biso   1.000  C
  C54      1.0000 0.61040  0.10230  0.90010  Biso   1.000  C
  C55      1.0000 0.11040  0.39770  0.09990  Biso   1.000  C
  C56      1.0000 0.38960  0.60230  0.59990  Biso   1.000  C
  H57      1.0000 0.85110  0.89000  0.46170  Biso   1.000  H
  H58      1.0000 0.64890  0.11000  0.96170  Biso   1.000  H
  H59      1.0000 0.14890  0.39000  0.03830  Biso   1.000  H
  H60      1.0000 0.35110  0.61000  0.53830  Biso   1.000  H
  H61      1.0000 0.91980  0.82760  0.38010  Biso   1.000  H
  H62      1.0000 0.58020  0.17240  0.88010  Biso   1.000  H
  H63      1.0000 0.08020  0.32760  0.11990  Biso   1.000  H
  H64      1.0000 0.41980  0.67240  0.61990  Biso   1.000  H
  C57      1.0000 0.78740  0.93830  0.33260  Biso   1.000  C
  C58      1.0000 0.71260  0.06170  0.83260  Biso   1.000  C
  C59      1.0000 0.21260  0.43830  0.16740  Biso   1.000  C
  C60      1.0000 0.28740  0.56170  0.66740  Biso   1.000  C
  H65      1.0000 0.71480  0.88830  0.33280  Biso   1.000  H
  H66      1.0000 0.78520  0.11170  0.83280  Biso   1.000  H
  H67      1.0000 0.28520  0.38830  0.16720  Biso   1.000  H
  H68      1.0000 0.21480  0.61170  0.66720  Biso   1.000  H
  H69      1.0000 0.75500  0.00660  0.35550  Biso   1.000  H
  H70      1.0000 0.74500  0.99340  0.85550  Biso   1.000  H
  H71      1.0000 0.24500  0.50660  0.14450  Biso   1.000  H
  H72      1.0000 0.25500  0.49340  0.64450  Biso   1.000  H
  C61      1.0000 0.83030  0.95300  0.23540  Biso   1.000  C
  C62      1.0000 0.66970  0.04700  0.73540  Biso   1.000  C
  C63      1.0000 0.16970  0.45300  0.26460  Biso   1.000  C
  C64      1.0000 0.33030  0.54700  0.76460  Biso   1.000  C
  H73      1.0000 0.86560  0.88560  0.21280  Biso   1.000  H
  H74      1.0000 0.63440  0.11440  0.71280  Biso   1.000  H
  H75      1.0000 0.13440  0.38560  0.28720  Biso   1.000  H
  H76      1.0000 0.36560  0.61440  0.78720  Biso   1.000  H
  H77      1.0000 0.90030  0.00540  0.23440  Biso   1.000  H
  H78      1.0000 0.59970  0.99460  0.73440  Biso   1.000  H
  H79      1.0000 0.09970  0.50540  0.26560  Biso   1.000  H
  H80      1.0000 0.40030  0.49460  0.76560  Biso   1.000  H
  C65      1.0000 0.72540  0.98920  0.16990  Biso   1.000  C
  C66      1.0000 0.77460  0.01080  0.66990  Biso   1.000  C
  C67      1.0000 0.27460  0.48920  0.33010  Biso   1.000  C
  C68      1.0000 0.22540  0.51080  0.83010  Biso   1.000  C
  O21      1.0000 0.91040  0.22670  0.22360  Biso   1.000  O
  O22      1.0000 0.58960  0.77330  0.72360  Biso   1.000  O
  O23      1.0000 0.08960  0.72670  0.27640  Biso   1.000  O
  O24      1.0000 0.41040  0.27330  0.77640  Biso   1.000  O
  H81      1.0000 0.98610  0.20470  0.22260  Biso   1.000  H
  H82      1.0000 0.51390  0.79530  0.72260  Biso   1.000  H
  H83      1.0000 0.01390  0.70470  0.27740  Biso   1.000  H
  H84      1.0000 0.48610  0.29530  0.77740  Biso   1.000  H
  C69      1.0000 0.88250  0.26490  0.30970  Biso   1.000  C
  C70      1.0000 0.61750  0.73510  0.80970  Biso   1.000  C
  C71      1.0000 0.11750  0.76490  0.19030  Biso   1.000  C
  C72      1.0000 0.38250  0.23510  0.69030  Biso   1.000  C
  H85      1.0000 0.96230  0.28080  0.34220  Biso   1.000  H
  H86      1.0000 0.53770  0.71920  0.84220  Biso   1.000  H
  H87      1.0000 0.03770  0.78080  0.15780  Biso   1.000  H
  H88      1.0000 0.46230  0.21920  0.65780  Biso   1.000  H
  H89      1.0000 0.83430  0.21190  0.34400  Biso   1.000  H
  H90      1.0000 0.66570  0.78810  0.84400  Biso   1.000  H
  H91      1.0000 0.16570  0.71190  0.15600  Biso   1.000  H
  H92      1.0000 0.33430  0.28810  0.65600  Biso   1.000  H
  H93      1.0000 0.83130  0.32910  0.30420  Biso   1.000  H
  H94      1.0000 0.66870  0.67090  0.80420  Biso   1.000  H
  H95      1.0000 0.16870  0.82910  0.19580  Biso   1.000  H
  H96      1.0000 0.33130  0.17090  0.69580  Biso   1.000  H
