data_image0
_cell_length_a       23.616
_cell_length_b       8.0844
_cell_length_c       5.3986
_cell_angle_alpha    90
_cell_angle_beta     94.847
_cell_angle_gamma    90

_symmetry_space_group_name_H-M    "P 1"
_symmetry_int_tables_number       1

loop_
  _symmetry_equiv_pos_as_xyz
  'x, y, z'

loop_
  _atom_site_label
  _atom_site_occupancy
  _atom_site_fract_x
  _atom_site_fract_y
  _atom_site_fract_z
  _atom_site_thermal_displace_type
  _atom_site_B_iso_or_equiv
  _atom_site_type_symbol
  Cu1      1.0000 0.99868  0.81834  0.49412  Biso   1.000  Cu
  Cu2      1.0000 0.00132  0.31834  0.00588  Biso   1.000  Cu
  Cu3      1.0000 0.00132  0.18166  0.50588  Biso   1.000  Cu
  Cu4      1.0000 0.99868  0.68166  0.99412  Biso   1.000  Cu
  P1       1.0000 0.92824  0.50058  0.39382  Biso   1.000  P
  P2       1.0000 0.07176  0.00058  0.10618  Biso   1.000  P
  P3       1.0000 0.07176  0.49942  0.60618  Biso   1.000  P
  P4       1.0000 0.92824  0.99942  0.89382  Biso   1.000  P
  O1       1.0000 0.54228  0.56930  0.25590  Biso   1.000  O
  O2       1.0000 0.45772  0.06930  0.24410  Biso   1.000  O
  O3       1.0000 0.45772  0.43070  0.74410  Biso   1.000  O
  O4       1.0000 0.54228  0.93070  0.75590  Biso   1.000  O
  O5       1.0000 0.56417  0.41870  0.92790  Biso   1.000  O
  O6       1.0000 0.43583  0.91870  0.57210  Biso   1.000  O
  O7       1.0000 0.43583  0.58130  0.07210  Biso   1.000  O
  O8       1.0000 0.56417  0.08130  0.42790  Biso   1.000  O
  H1       1.0000 0.52880  0.42290  0.89400  Biso   1.000  H
  H2       1.0000 0.47120  0.92290  0.60600  Biso   1.000  H
  H3       1.0000 0.47120  0.57710  0.10600  Biso   1.000  H
  H4       1.0000 0.52880  0.07710  0.39400  Biso   1.000  H
  O9       1.0000 0.94133  0.65760  0.54520  Biso   1.000  O
  O10      1.0000 0.05867  0.15760  0.95480  Biso   1.000  O
  O11      1.0000 0.05867  0.34240  0.45480  Biso   1.000  O
  O12      1.0000 0.94133  0.84240  0.04520  Biso   1.000  O
  O13      1.0000 0.95859  0.49949  0.14650  Biso   1.000  O
  O14      1.0000 0.04141  0.99949  0.35350  Biso   1.000  O
  O15      1.0000 0.04141  0.50051  0.85350  Biso   1.000  O
  O16      1.0000 0.95859  0.00051  0.64650  Biso   1.000  O
  O17      1.0000 0.94345  0.34450  0.54580  Biso   1.000  O
  O18      1.0000 0.05655  0.84450  0.95420  Biso   1.000  O
  O19      1.0000 0.05655  0.65550  0.45420  Biso   1.000  O
  O20      1.0000 0.94345  0.15550  0.04580  Biso   1.000  O
  C1       1.0000 0.85356  0.49455  0.29930  Biso   1.000  C
  C2       1.0000 0.14644  0.99455  0.20070  Biso   1.000  C
  C3       1.0000 0.14644  0.50545  0.70070  Biso   1.000  C
  C4       1.0000 0.85356  0.00545  0.79930  Biso   1.000  C
  C5       1.0000 0.83589  0.41280  0.07320  Biso   1.000  C
  C6       1.0000 0.16411  0.91280  0.42680  Biso   1.000  C
  C7       1.0000 0.16411  0.58720  0.92680  Biso   1.000  C
  C8       1.0000 0.83589  0.08720  0.57320  Biso   1.000  C
  C9       1.0000 0.77935  0.39550  0.99970  Biso   1.000  C
  C10      1.0000 0.22065  0.89550  0.50030  Biso   1.000  C
  C11      1.0000 0.22065  0.60450  0.00030  Biso   1.000  C
  C12      1.0000 0.77935  0.10450  0.49970  Biso   1.000  C
  C13      1.0000 0.73736  0.45790  0.14790  Biso   1.000  C
  C14      1.0000 0.26264  0.95790  0.35210  Biso   1.000  C
  C15      1.0000 0.26264  0.54210  0.85210  Biso   1.000  C
  C16      1.0000 0.73736  0.04210  0.64790  Biso   1.000  C
  C17      1.0000 0.75482  0.54100  0.37440  Biso   1.000  C
  C18      1.0000 0.24518  0.04100  0.12560  Biso   1.000  C
  C19      1.0000 0.24518  0.45900  0.62560  Biso   1.000  C
  C20      1.0000 0.75482  0.95900  0.87440  Biso   1.000  C
  C21      1.0000 0.81369  0.55920  0.44540  Biso   1.000  C
  C22      1.0000 0.18631  0.05920  0.05460  Biso   1.000  C
  C23      1.0000 0.18631  0.44080  0.55460  Biso   1.000  C
  C24      1.0000 0.81369  0.94080  0.94540  Biso   1.000  C
  C25      1.0000 0.67854  0.43940  0.07550  Biso   1.000  C
  C26      1.0000 0.32146  0.93940  0.42450  Biso   1.000  C
  C27      1.0000 0.32146  0.56060  0.92450  Biso   1.000  C
  C28      1.0000 0.67854  0.06060  0.57550  Biso   1.000  C
  C29      1.0000 0.63862  0.50400  0.21910  Biso   1.000  C
  C30      1.0000 0.36138  0.00400  0.28090  Biso   1.000  C
  C31      1.0000 0.36138  0.49600  0.78090  Biso   1.000  C
  C32      1.0000 0.63862  0.99600  0.71910  Biso   1.000  C
  C33      1.0000 0.65567  0.58530  0.44580  Biso   1.000  C
  C34      1.0000 0.34433  0.08530  0.05420  Biso   1.000  C
  C35      1.0000 0.34433  0.41470  0.55420  Biso   1.000  C
  C36      1.0000 0.65567  0.91470  0.94580  Biso   1.000  C
  C37      1.0000 0.71210  0.60270  0.52100  Biso   1.000  C
  C38      1.0000 0.28790  0.10270  0.97900  Biso   1.000  C
  C39      1.0000 0.28790  0.39730  0.47900  Biso   1.000  C
  C40      1.0000 0.71210  0.89730  0.02100  Biso   1.000  C
  C41      1.0000 0.57733  0.49590  0.12970  Biso   1.000  C
  C42      1.0000 0.42267  0.99590  0.37030  Biso   1.000  C
  C43      1.0000 0.42267  0.50410  0.87030  Biso   1.000  C
  C44      1.0000 0.57733  0.00410  0.62970  Biso   1.000  C
  H5       1.0000 0.86120  0.36900  0.96800  Biso   1.000  H
  H6       1.0000 0.13880  0.86900  0.53200  Biso   1.000  H
  H7       1.0000 0.13880  0.63100  0.03200  Biso   1.000  H
  H8       1.0000 0.86120  0.13100  0.46800  Biso   1.000  H
  H9       1.0000 0.76690  0.33900  0.85100  Biso   1.000  H
  H10      1.0000 0.23310  0.83900  0.64900  Biso   1.000  H
  H11      1.0000 0.23310  0.66100  0.14900  Biso   1.000  H
  H12      1.0000 0.76690  0.16100  0.35100  Biso   1.000  H
  H13      1.0000 0.82530  0.61900  0.59800  Biso   1.000  H
  H14      1.0000 0.17470  0.11900  0.90200  Biso   1.000  H
  H15      1.0000 0.17470  0.38100  0.40200  Biso   1.000  H
  H16      1.0000 0.82530  0.88100  0.09800  Biso   1.000  H
  H17      1.0000 0.66690  0.38000  0.92300  Biso   1.000  H
  H18      1.0000 0.33310  0.88000  0.57700  Biso   1.000  H
  H19      1.0000 0.33310  0.62000  0.07700  Biso   1.000  H
  H20      1.0000 0.66690  0.12000  0.42300  Biso   1.000  H
  H21      1.0000 0.62890  0.62800  0.54500  Biso   1.000  H
  H22      1.0000 0.37110  0.12800  0.95500  Biso   1.000  H
  H23      1.0000 0.37110  0.37200  0.45500  Biso   1.000  H
  H24      1.0000 0.62890  0.87200  0.04500  Biso   1.000  H
  H25      1.0000 0.72180  0.65400  0.67400  Biso   1.000  H
  H26      1.0000 0.27820  0.15400  0.82600  Biso   1.000  H
  H27      1.0000 0.27820  0.34600  0.32600  Biso   1.000  H
  H28      1.0000 0.72180  0.84600  0.17400  Biso   1.000  H
