data_image0
_cell_length_a       9.1421
_cell_length_b       10.0689
_cell_length_c       13.5382
_cell_angle_alpha    69.002
_cell_angle_beta     82.533
_cell_angle_gamma    66.204

_symmetry_space_group_name_H-M    "P 1"
_symmetry_int_tables_number       1

loop_
  _symmetry_equiv_pos_as_xyz
  'x, y, z'

loop_
  _atom_site_label
  _atom_site_occupancy
  _atom_site_fract_x
  _atom_site_fract_y
  _atom_site_fract_z
  _atom_site_thermal_displace_type
  _atom_site_B_iso_or_equiv
  _atom_site_type_symbol
  Cu1      1.0000 0.38272  0.40444  0.26236  Biso   1.000  Cu
  Cu2      1.0000 0.61728  0.59556  0.73764  Biso   1.000  Cu
  O1       1.0000 0.08501  0.08956  0.57624  Biso   1.000  O
  O2       1.0000 0.91499  0.91044  0.42376  Biso   1.000  O
  O3       1.0000 0.33380  0.36792  0.10045  Biso   1.000  O
  O4       1.0000 0.66620  0.63208  0.89955  Biso   1.000  O
  O5       1.0000 0.40650  0.19954  0.26064  Biso   1.000  O
  O6       1.0000 0.59350  0.80046  0.73936  Biso   1.000  O
  O7       1.0000 0.47800  0.64569  0.32338  Biso   1.000  O
  O8       1.0000 0.52200  0.35431  0.67662  Biso   1.000  O
  O9       1.0000 0.33876  0.62153  0.21180  Biso   1.000  O
  O10      1.0000 0.66124  0.37847  0.78820  Biso   1.000  O
  O11      1.0000 0.19850  0.11049  0.90071  Biso   1.000  O
  O12      1.0000 0.80150  0.88951  0.09929  Biso   1.000  O
  O13      1.0000 0.45280  0.36890  0.44826  Biso   1.000  O
  O14      1.0000 0.54720  0.63110  0.55174  Biso   1.000  O
  H1       1.0000 0.44840  0.46090  0.42350  Biso   1.000  H
  H2       1.0000 0.55160  0.53910  0.57650  Biso   1.000  H
  H3       1.0000 0.50410  0.31250  0.50650  Biso   1.000  H
  H4       1.0000 0.49590  0.68750  0.49350  Biso   1.000  H
  N1       1.0000 0.15960  0.43802  0.31728  Biso   1.000  N
  N2       1.0000 0.84040  0.56198  0.68272  Biso   1.000  N
  N3       1.0000 0.82710  0.18510  0.54012  Biso   1.000  N
  N4       1.0000 0.17290  0.81490  0.45988  Biso   1.000  N
  N5       1.0000 0.86700  0.03910  0.61875  Biso   1.000  N
  N6       1.0000 0.13300  0.96090  0.38125  Biso   1.000  N
  N7       1.0000 0.38210  0.65515  0.76622  Biso   1.000  N
  N8       1.0000 0.61790  0.34485  0.23378  Biso   1.000  N
  C1       1.0000 0.13340  0.32540  0.39724  Biso   1.000  C
  C2       1.0000 0.86660  0.67460  0.60276  Biso   1.000  C
  H5       1.0000 0.22010  0.23460  0.42780  Biso   1.000  H
  H6       1.0000 0.77990  0.76540  0.57220  Biso   1.000  H
  C3       1.0000 0.03300  0.56770  0.27330  Biso   1.000  C
  C4       1.0000 0.96700  0.43230  0.72670  Biso   1.000  C
  H7       1.0000 0.04950  0.64650  0.21710  Biso   1.000  H
  H8       1.0000 0.95050  0.35350  0.78290  Biso   1.000  H
  C5       1.0000 0.87950  0.58840  0.30830  Biso   1.000  C
  C6       1.0000 0.12050  0.41160  0.69170  Biso   1.000  C
  H9       1.0000 0.79450  0.67960  0.27570  Biso   1.000  H
  H10      1.0000 0.20550  0.32040  0.72430  Biso   1.000  H
  C7       1.0000 0.85270  0.47400  0.39120  Biso   1.000  C
  C8       1.0000 0.14730  0.52600  0.60880  Biso   1.000  C
  H11      1.0000 0.75020  0.48690  0.41670  Biso   1.000  H
  H12      1.0000 0.24980  0.51310  0.58330  Biso   1.000  H
  C9       1.0000 0.98250  0.33840  0.43634  Biso   1.000  C
  C10      1.0000 0.01750  0.66160  0.56366  Biso   1.000  C
  C11      1.0000 0.95740  0.20920  0.51833  Biso   1.000  C
  C12      1.0000 0.04260  0.79080  0.48167  Biso   1.000  C
  C13      1.0000 0.01790  0.98880  0.63699  Biso   1.000  C
  C14      1.0000 0.98210  0.01120  0.36301  Biso   1.000  C
  C15      1.0000 0.11980  0.84250  0.71154  Biso   1.000  C
  C16      1.0000 0.88020  0.15750  0.28846  Biso   1.000  C
  C17      1.0000 0.05620  0.75880  0.79760  Biso   1.000  C
  C18      1.0000 0.94380  0.24120  0.20240  Biso   1.000  C
  H13      1.0000 0.94640  0.79220  0.80750  Biso   1.000  H
  H14      1.0000 0.05360  0.20780  0.19250  Biso   1.000  H
  C19      1.0000 0.15890  0.62560  0.86790  Biso   1.000  C
  C20      1.0000 0.84110  0.37440  0.13210  Biso   1.000  C
  H15      1.0000 0.11930  0.56870  0.92720  Biso   1.000  H
  H16      1.0000 0.88070  0.43130  0.07280  Biso   1.000  H
  C21      1.0000 0.32000  0.57710  0.85016  Biso   1.000  C
  C22      1.0000 0.68000  0.42290  0.14984  Biso   1.000  C
  H17      1.0000 0.38850  0.48670  0.89820  Biso   1.000  H
  H18      1.0000 0.61150  0.51330  0.10180  Biso   1.000  H
  C23      1.0000 0.28320  0.78630  0.69863  Biso   1.000  C
  C24      1.0000 0.71680  0.21370  0.30137  Biso   1.000  C
  H19      1.0000 0.32610  0.84190  0.64070  Biso   1.000  H
  H20      1.0000 0.67390  0.15810  0.35930  Biso   1.000  H
  C25      1.0000 0.35530  0.11370  0.13041  Biso   1.000  C
  C26      1.0000 0.64470  0.88630  0.86959  Biso   1.000  C
  C27      1.0000 0.39390  0.96200  0.19900  Biso   1.000  C
  C28      1.0000 0.60610  0.03800  0.80100  Biso   1.000  C
  H21      1.0000 0.43910  0.93090  0.26530  Biso   1.000  H
  H22      1.0000 0.56090  0.06910  0.73470  Biso   1.000  H
  C29      1.0000 0.36440  0.85840  0.16736  Biso   1.000  C
  C30      1.0000 0.63560  0.14160  0.83264  Biso   1.000  C
  C31      1.0000 0.29850  0.90400  0.06788  Biso   1.000  C
  C32      1.0000 0.70150  0.09600  0.93212  Biso   1.000  C
  H23      1.0000 0.27740  0.83460  0.04730  Biso   1.000  H
  H24      1.0000 0.72260  0.16540  0.95270  Biso   1.000  H
  C33      1.0000 0.26430  0.05380  0.99946  Biso   1.000  C
  C34      1.0000 0.73570  0.94620  0.00054  Biso   1.000  C
  C35      1.0000 0.29270  0.15740  0.03106  Biso   1.000  C
  C36      1.0000 0.70730  0.84260  0.96894  Biso   1.000  C
  H25      1.0000 0.26950  0.25770  0.98490  Biso   1.000  H
  H26      1.0000 0.73050  0.74230  0.01510  Biso   1.000  H
  C37      1.0000 0.36700  0.23550  0.16457  Biso   1.000  C
  C38      1.0000 0.63300  0.76450  0.83543  Biso   1.000  C
  C39      1.0000 0.39860  0.69580  0.24197  Biso   1.000  C
  C40      1.0000 0.60140  0.30420  0.75803  Biso   1.000  C
  C41      1.0000 0.17370  0.00820  0.86220  Biso   1.000  C
  C42      1.0000 0.82630  0.99180  0.13780  Biso   1.000  C
  H27      1.0000 0.09720  0.97080  0.90550  Biso   1.000  H
  H28      1.0000 0.90280  0.02920  0.09450  Biso   1.000  H
  H29      1.0000 0.13400  0.06120  0.79060  Biso   1.000  H
  H30      1.0000 0.86600  0.93880  0.20940  Biso   1.000  H
  H31      1.0000 0.27300  0.92300  0.86440  Biso   1.000  H
  H32      1.0000 0.72700  0.07700  0.13560  Biso   1.000  H
  O15      1.0000 0.48510  0.04530  0.54380  Biso   1.000  O
  O16      1.0000 0.51490  0.95470  0.45620  Biso   1.000  O
  H33      1.0000 0.58070  0.04020  0.53970  Biso   1.000  H
  H34      1.0000 0.41930  0.95980  0.46030  Biso   1.000  H
  H35      1.0000 0.41830  0.10930  0.57360  Biso   1.000  H
  H36      1.0000 0.58170  0.89070  0.42640  Biso   1.000  H
