data_image0
_cell_length_a       9.1237
_cell_length_b       10.0929
_cell_length_c       12.3095
_cell_angle_alpha    71.51
_cell_angle_beta     84.114
_cell_angle_gamma    71.592

_symmetry_space_group_name_H-M    "P 1"
_symmetry_int_tables_number       1

loop_
  _symmetry_equiv_pos_as_xyz
  'x, y, z'

loop_
  _atom_site_label
  _atom_site_occupancy
  _atom_site_fract_x
  _atom_site_fract_y
  _atom_site_fract_z
  _atom_site_thermal_displace_type
  _atom_site_B_iso_or_equiv
  _atom_site_type_symbol
  Cu1      1.0000 0.60753  0.11208  0.72809  Biso   1.000  Cu
  Cu2      1.0000 0.39247  0.88792  0.27191  Biso   1.000  Cu
  O1       1.0000 0.90462  0.43633  0.39980  Biso   1.000  O
  O2       1.0000 0.09538  0.56367  0.60020  Biso   1.000  O
  O3       1.0000 0.58793  0.31571  0.72822  Biso   1.000  O
  O4       1.0000 0.41207  0.68429  0.27178  Biso   1.000  O
  O5       1.0000 0.67490  0.16301  0.89643  Biso   1.000  O
  O6       1.0000 0.32510  0.83699  0.10357  Biso   1.000  O
  O7       1.0000 0.64800  0.90319  0.78163  Biso   1.000  O
  O8       1.0000 0.35200  0.09681  0.21837  Biso   1.000  O
  O9       1.0000 0.48910  0.86533  0.67606  Biso   1.000  O
  O10      1.0000 0.51090  0.13467  0.32394  Biso   1.000  O
  O11      1.0000 0.52930  0.17180  0.53450  Biso   1.000  O
  O12      1.0000 0.47070  0.82820  0.46550  Biso   1.000  O
  H1       1.0000 0.48970  0.26440  0.51130  Biso   1.000  H
  H2       1.0000 0.51030  0.73560  0.48870  Biso   1.000  H
  H3       1.0000 0.52950  0.13090  0.48390  Biso   1.000  H
  H4       1.0000 0.47050  0.86910  0.51610  Biso   1.000  H
  N1       1.0000 0.61780  0.84691  0.22728  Biso   1.000  N
  N2       1.0000 0.38220  0.15309  0.77272  Biso   1.000  N
  N3       1.0000 0.11660  0.50110  0.35098  Biso   1.000  N
  N4       1.0000 0.88340  0.49890  0.64902  Biso   1.000  N
  N5       1.0000 0.15550  0.35940  0.42906  Biso   1.000  N
  N6       1.0000 0.84450  0.64060  0.57094  Biso   1.000  N
  N7       1.0000 0.82740  0.08904  0.66592  Biso   1.000  N
  N8       1.0000 0.17260  0.91096  0.33408  Biso   1.000  N
  C1       1.0000 0.71540  0.72230  0.28934  Biso   1.000  C
  C2       1.0000 0.28460  0.27770  0.71066  Biso   1.000  C
  H5       1.0000 0.67640  0.66170  0.35110  Biso   1.000  H
  H6       1.0000 0.32360  0.33830  0.64890  Biso   1.000  H
  C3       1.0000 0.67440  0.93210  0.13741  Biso   1.000  C
  C4       1.0000 0.32560  0.06790  0.86259  Biso   1.000  C
  H7       1.0000 0.60710  0.01820  0.09250  Biso   1.000  H
  H8       1.0000 0.39290  0.98180  0.90750  Biso   1.000  H
  C5       1.0000 0.82880  0.89680  0.10910  Biso   1.000  C
  C6       1.0000 0.17120  0.10320  0.89090  Biso   1.000  C
  H9       1.0000 0.86450  0.95870  0.04620  Biso   1.000  H
  H10      1.0000 0.13550  0.04130  0.95380  Biso   1.000  H
  C7       1.0000 0.93000  0.77000  0.17380  Biso   1.000  C
  C8       1.0000 0.07000  0.23000  0.82620  Biso   1.000  C
  H11      1.0000 0.03490  0.74530  0.15660  Biso   1.000  H
  H12      1.0000 0.96510  0.25470  0.84340  Biso   1.000  H
  C9       1.0000 0.87130  0.67920  0.26600  Biso   1.000  C
  C10      1.0000 0.12870  0.32080  0.73400  Biso   1.000  C
  C11      1.0000 0.97010  0.54070  0.33622  Biso   1.000  C
  C12      1.0000 0.02990  0.45930  0.66378  Biso   1.000  C
  C13      1.0000 0.02820  0.32660  0.45478  Biso   1.000  C
  C14      1.0000 0.97180  0.67340  0.54522  Biso   1.000  C
  C15      1.0000 0.00230  0.19750  0.53944  Biso   1.000  C
  C16      1.0000 0.99770  0.80250  0.46056  Biso   1.000  C
  C17      1.0000 0.12510  0.07150  0.58080  Biso   1.000  C
  C18      1.0000 0.87490  0.92850  0.41920  Biso   1.000  C
  H13      1.0000 0.22470  0.06580  0.55250  Biso   1.000  H
  H14      1.0000 0.77530  0.93420  0.44750  Biso   1.000  H
  C19      1.0000 0.09450  0.95590  0.66490  Biso   1.000  C
  C20      1.0000 0.90550  0.04410  0.33510  Biso   1.000  C
  H15      1.0000 0.17390  0.87020  0.69460  Biso   1.000  H
  H16      1.0000 0.82610  0.12980  0.30540  Biso   1.000  H
  C21      1.0000 0.94620  0.96770  0.70470  Biso   1.000  C
  C22      1.0000 0.05380  0.03230  0.29530  Biso   1.000  C
  H17      1.0000 0.92730  0.88810  0.76100  Biso   1.000  H
  H18      1.0000 0.07270  0.11190  0.23900  Biso   1.000  H
  C23      1.0000 0.85680  0.20160  0.58430  Biso   1.000  C
  C24      1.0000 0.14320  0.79840  0.41570  Biso   1.000  C
  H19      1.0000 0.77550  0.28650  0.55660  Biso   1.000  H
  H20      1.0000 0.22450  0.71350  0.44340  Biso   1.000  H
  C25      1.0000 0.64330  0.41410  0.86744  Biso   1.000  C
  C26      1.0000 0.35670  0.58590  0.13256  Biso   1.000  C
  C27      1.0000 0.59790  0.55810  0.79695  Biso   1.000  C
  C28      1.0000 0.40210  0.44190  0.20305  Biso   1.000  C
  H21      1.0000 0.55010  0.58150  0.72730  Biso   1.000  H
  H22      1.0000 0.44990  0.41850  0.27270  Biso   1.000  H
  C29      1.0000 0.62460  0.66730  0.83147  Biso   1.000  C
  C30      1.0000 0.37540  0.33270  0.16853  Biso   1.000  C
  C31      1.0000 0.69400  0.63100  0.93620  Biso   1.000  C
  C32      1.0000 0.30600  0.36900  0.06380  Biso   1.000  C
  H23      1.0000 0.71310  0.70400  0.95840  Biso   1.000  H
  H24      1.0000 0.28690  0.29600  0.04160  Biso   1.000  H
  C33      1.0000 0.73580  0.48840  0.00870  Biso   1.000  C
  C34      1.0000 0.26420  0.51160  0.99130  Biso   1.000  C
  C35      1.0000 0.70930  0.38110  0.97267  Biso   1.000  C
  C36      1.0000 0.29070  0.61890  0.02733  Biso   1.000  C
  H25      1.0000 0.73640  0.28480  0.02030  Biso   1.000  H
  H26      1.0000 0.26360  0.71520  0.97970  Biso   1.000  H
  C37      1.0000 0.63370  0.28940  0.82969  Biso   1.000  C
  C38      1.0000 0.36630  0.71060  0.17031  Biso   1.000  C
  C39      1.0000 0.58200  0.82330  0.75458  Biso   1.000  C
  C40      1.0000 0.41800  0.17670  0.24542  Biso   1.000  C
  C41      1.0000 0.80960  0.44990  0.12350  Biso   1.000  C
  C42      1.0000 0.19040  0.55010  0.87650  Biso   1.000  C
  H27      1.0000 0.74340  0.50820  0.16790  Biso   1.000  H
  H28      1.0000 0.25660  0.49180  0.83210  Biso   1.000  H
  H29      1.0000 0.82480  0.34800  0.16350  Biso   1.000  H
  H30      1.0000 0.17520  0.65200  0.83650  Biso   1.000  H
  H31      1.0000 0.90750  0.46910  0.11210  Biso   1.000  H
  H32      1.0000 0.09250  0.53090  0.88790  Biso   1.000  H
  O13      1.0000 0.50090  0.52660  0.52100  Biso   1.000  O
  O14      1.0000 0.49910  0.47340  0.47900  Biso   1.000  O
  H33      1.0000 0.54110  0.48340  0.58710  Biso   1.000  H
  H34      1.0000 0.45890  0.51660  0.41290  Biso   1.000  H
  H35      1.0000 0.42030  0.51010  0.50890  Biso   1.000  H
  H36      1.0000 0.57970  0.48990  0.49110  Biso   1.000  H
