data_image0
_cell_length_a       8.1475
_cell_length_b       12.7277
_cell_length_c       9.3964
_cell_angle_alpha    90
_cell_angle_beta     101.079
_cell_angle_gamma    90

_symmetry_space_group_name_H-M    "P 1"
_symmetry_int_tables_number       1

loop_
  _symmetry_equiv_pos_as_xyz
  'x, y, z'

loop_
  _atom_site_label
  _atom_site_occupancy
  _atom_site_fract_x
  _atom_site_fract_y
  _atom_site_fract_z
  _atom_site_thermal_displace_type
  _atom_site_B_iso_or_equiv
  _atom_site_type_symbol
  Gd1      1.0000 0.03793  0.67773  0.47270  Biso   1.000  Gd
  Gd2      1.0000 0.96207  0.17773  0.52730  Biso   1.000  Gd
  Cu1      1.0000 0.30211  0.71102  0.08053  Biso   1.000  Cu
  Cu2      1.0000 0.69789  0.21102  0.91947  Biso   1.000  Cu
  Cl1      1.0000 0.68205  0.72437  0.87959  Biso   1.000  Cl
  Cl2      1.0000 0.31795  0.22437  0.12041  Biso   1.000  Cl
  Cl3      1.0000 0.34650  0.53911  0.10638  Biso   1.000  Cl
  Cl4      1.0000 0.65350  0.03911  0.89362  Biso   1.000  Cl
  O1       1.0000 0.11490  0.72180  0.23250  Biso   1.000  O
  O2       1.0000 0.88510  0.22180  0.76750  Biso   1.000  O
  O3       1.0000 0.02610  0.85230  0.34880  Biso   1.000  O
  O4       1.0000 0.97390  0.35230  0.65120  Biso   1.000  O
  O5       1.0000 0.47330  0.75630  0.24860  Biso   1.000  O
  O6       1.0000 0.52670  0.25630  0.75140  Biso   1.000  O
  O7       1.0000 0.60280  0.89850  0.35100  Biso   1.000  O
  O8       1.0000 0.39720  0.39850  0.64900  Biso   1.000  O
  O9       1.0000 0.18020  0.70310  0.88220  Biso   1.000  O
  O10      1.0000 0.81980  0.20310  0.11780  Biso   1.000  O
  O11      1.0000 0.11110  0.79720  0.67970  Biso   1.000  O
  O12      1.0000 0.88890  0.29720  0.32030  Biso   1.000  O
  O13      1.0000 0.79490  0.76480  0.52420  Biso   1.000  O
  O14      1.0000 0.20510  0.26480  0.47580  Biso   1.000  O
  O15      1.0000 0.79810  0.65350  0.27040  Biso   1.000  O
  O16      1.0000 0.20190  0.15350  0.72960  Biso   1.000  O
  O17      1.0000 0.19080  0.57020  0.66650  Biso   1.000  O
  O18      1.0000 0.80920  0.07020  0.33350  Biso   1.000  O
  O19      1.0000 0.33510  0.71630  0.49890  Biso   1.000  O
  O20      1.0000 0.66490  0.21630  0.50110  Biso   1.000  O
  O21      1.0000 0.86420  0.54700  0.54760  Biso   1.000  O
  O22      1.0000 0.13580  0.04700  0.45240  Biso   1.000  O
  O23      1.0000 0.11390  0.51490  0.35640  Biso   1.000  O
  O24      1.0000 0.88610  0.01490  0.64360  Biso   1.000  O
  O25      1.0000 0.55110  0.49870  0.42820  Biso   1.000  O
  O26      1.0000 0.44890  0.99870  0.57180  Biso   1.000  O
  O27      1.0000 0.57550  0.67380  0.75980  Biso   1.000  O
  O28      1.0000 0.42450  0.17380  0.24020  Biso   1.000  O
  O29      1.0000 0.78630  0.79750  0.82410  Biso   1.000  O
  O30      1.0000 0.21370  0.29750  0.17590  Biso   1.000  O
  O31      1.0000 0.78280  0.64500  0.96260  Biso   1.000  O
  O32      1.0000 0.21720  0.14500  0.03740  Biso   1.000  O
  O33      1.0000 0.58420  0.77590  0.96810  Biso   1.000  O
  O34      1.0000 0.41580  0.27590  0.03190  Biso   1.000  O
  N1       1.0000 0.24740  0.86790  0.05700  Biso   1.000  N
  N2       1.0000 0.75260  0.36790  0.94300  Biso   1.000  N
  H1       1.0000 0.78400  0.77800  0.62100  Biso   1.000  H
  H2       1.0000 0.21600  0.27800  0.37900  Biso   1.000  H
  H3       1.0000 0.01700  0.88300  0.04200  Biso   1.000  H
  H4       1.0000 0.98300  0.38300  0.95800  Biso   1.000  H
  H5       1.0000 0.08300  0.95400  0.14200  Biso   1.000  H
  H6       1.0000 0.91700  0.45400  0.85800  Biso   1.000  H
  H7       1.0000 0.69800  0.79300  0.46300  Biso   1.000  H
  H8       1.0000 0.30200  0.29300  0.53700  Biso   1.000  H
  H9       1.0000 0.69600  0.68900  0.27700  Biso   1.000  H
  H10      1.0000 0.30400  0.18900  0.72300  Biso   1.000  H
  H11      1.0000 0.36800  0.99200  0.19300  Biso   1.000  H
  H12      1.0000 0.63200  0.49200  0.80700  Biso   1.000  H
  H13      1.0000 0.47500  0.94800  0.09100  Biso   1.000  H
  H14      1.0000 0.52500  0.44800  0.90900  Biso   1.000  H
  H15      1.0000 0.80400  0.66000  0.17000  Biso   1.000  H
  H16      1.0000 0.19600  0.16000  0.83000  Biso   1.000  H
  H17      1.0000 0.20400  0.59500  0.76500  Biso   1.000  H
  H18      1.0000 0.79600  0.09500  0.23500  Biso   1.000  H
  H19      1.0000 0.33300  0.92500  0.87400  Biso   1.000  H
  H20      1.0000 0.66700  0.42500  0.12600  Biso   1.000  H
  H21      1.0000 0.13600  0.93900  0.86900  Biso   1.000  H
  H22      1.0000 0.86400  0.43900  0.13100  Biso   1.000  H
  H23      1.0000 0.27400  0.51800  0.66700  Biso   1.000  H
  H24      1.0000 0.72600  0.01800  0.33300  Biso   1.000  H
  H25      1.0000 0.40000  0.71800  0.59600  Biso   1.000  H
  H26      1.0000 0.60000  0.21800  0.40400  Biso   1.000  H
  H27      1.0000 0.36000  0.65000  0.46100  Biso   1.000  H
  H28      1.0000 0.64000  0.15000  0.53900  Biso   1.000  H
  H29      1.0000 0.75200  0.52500  0.51100  Biso   1.000  H
  H30      1.0000 0.24800  0.02500  0.48900  Biso   1.000  H
  H31      1.0000 0.91800  0.48900  0.60100  Biso   1.000  H
  H32      1.0000 0.08200  0.98900  0.39900  Biso   1.000  H
  H33      1.0000 0.13100  0.52300  0.26000  Biso   1.000  H
  H34      1.0000 0.86900  0.02300  0.74000  Biso   1.000  H
  H35      1.0000 0.07900  0.44400  0.36400  Biso   1.000  H
  H36      1.0000 0.92100  0.94400  0.63600  Biso   1.000  H
  H37      1.0000 0.50700  0.56600  0.43000  Biso   1.000  H
  H38      1.0000 0.49300  0.06600  0.57000  Biso   1.000  H
  H39      1.0000 0.51800  0.47300  0.33000  Biso   1.000  H
  H40      1.0000 0.48200  0.97300  0.67000  Biso   1.000  H
  C1       1.0000 0.07860  0.81720  0.24120  Biso   1.000  C
  C2       1.0000 0.92140  0.31720  0.75880  Biso   1.000  C
  C3       1.0000 0.09300  0.88810  0.11440  Biso   1.000  C
  C4       1.0000 0.90700  0.38810  0.88560  Biso   1.000  C
  C5       1.0000 0.49710  0.85510  0.25540  Biso   1.000  C
  C6       1.0000 0.50290  0.35510  0.74460  Biso   1.000  C
  C7       1.0000 0.39330  0.92540  0.14210  Biso   1.000  C
  C8       1.0000 0.60670  0.42540  0.85790  Biso   1.000  C
  C9       1.0000 0.16510  0.79010  0.81310  Biso   1.000  C
  C10      1.0000 0.83490  0.29010  0.18690  Biso   1.000  C
  C11      1.0000 0.22070  0.88960  0.89920  Biso   1.000  C
  C12      1.0000 0.77930  0.38960  0.10080  Biso   1.000  C
