data_image0
_cell_length_a       8.493
_cell_length_b       9.642
_cell_length_c       12.838
_cell_angle_alpha    111.17
_cell_angle_beta     93.52
_cell_angle_gamma    100.89

_symmetry_space_group_name_H-M    "P 1"
_symmetry_int_tables_number       1

loop_
  _symmetry_equiv_pos_as_xyz
  'x, y, z'

loop_
  _atom_site_label
  _atom_site_occupancy
  _atom_site_fract_x
  _atom_site_fract_y
  _atom_site_fract_z
  _atom_site_thermal_displace_type
  _atom_site_B_iso_or_equiv
  _atom_site_type_symbol
  Gd1      1.0000 0.51825  0.94970  0.72937  Biso   1.000  Gd
  Gd2      1.0000 0.48175  0.05030  0.27063  Biso   1.000  Gd
  Cu1      1.0000 0.79042  0.58197  0.69778  Biso   1.000  Cu
  Cu2      1.0000 0.20958  0.41803  0.30222  Biso   1.000  Cu
  Cl1      1.0000 0.80185  0.58049  0.52501  Biso   1.000  Cl
  Cl2      1.0000 0.19815  0.41951  0.47499  Biso   1.000  Cl
  Cl3      1.0000 0.82239  0.63030  0.22301  Biso   1.000  Cl
  Cl4      1.0000 0.17761  0.36970  0.77699  Biso   1.000  Cl
  O1       1.0000 0.61800  0.73640  0.74683  Biso   1.000  O
  O2       1.0000 0.38200  0.26360  0.25317  Biso   1.000  O
  O3       1.0000 0.48720  0.83120  0.88782  Biso   1.000  O
  O4       1.0000 0.51280  0.16880  0.11218  Biso   1.000  O
  O5       1.0000 0.97100  0.76210  0.77230  Biso   1.000  O
  O6       1.0000 0.02900  0.23790  0.22770  Biso   1.000  O
  O7       1.0000 0.12100  0.90020  0.93856  Biso   1.000  O
  O8       1.0000 0.87900  0.09980  0.06144  Biso   1.000  O
  O9       1.0000 0.67280  0.37010  0.64870  Biso   1.000  O
  O10      1.0000 0.32720  0.62990  0.35130  Biso   1.000  O
  O11      1.0000 0.62650  0.17770  0.70433  Biso   1.000  O
  O12      1.0000 0.37350  0.82230  0.29567  Biso   1.000  O
  O13      1.0000 0.27500  0.74540  0.66810  Biso   1.000  O
  O14      1.0000 0.72500  0.25460  0.33190  Biso   1.000  O
  O15      1.0000 0.34090  0.99470  0.59740  Biso   1.000  O
  O16      1.0000 0.65910  0.00530  0.40260  Biso   1.000  O
  O17      1.0000 0.55650  0.79690  0.53876  Biso   1.000  O
  O18      1.0000 0.44350  0.20310  0.46124  Biso   1.000  O
  O19      1.0000 0.64890  0.12940  0.91580  Biso   1.000  O
  O20      1.0000 0.35110  0.87060  0.08420  Biso   1.000  O
  O21      1.0000 0.31280  0.05430  0.83430  Biso   1.000  O
  O22      1.0000 0.68720  0.94570  0.16570  Biso   1.000  O
  O23      1.0000 0.81310  0.98260  0.72980  Biso   1.000  O
  O24      1.0000 0.18690  0.01740  0.27020  Biso   1.000  O
  O25      1.0000 0.77940  0.53330  0.10820  Biso   1.000  O
  O26      1.0000 0.22060  0.46670  0.89180  Biso   1.000  O
  O27      1.0000 0.92930  0.57030  0.27580  Biso   1.000  O
  O28      1.0000 0.07070  0.42970  0.72420  Biso   1.000  O
  O29      1.0000 0.68440  0.64590  0.27940  Biso   1.000  O
  O30      1.0000 0.31560  0.35410  0.72060  Biso   1.000  O
  O31      1.0000 0.90480  0.77790  0.22870  Biso   1.000  O
  O32      1.0000 0.09520  0.22210  0.77130  Biso   1.000  O
  O33      1.0000 0.03750  0.85880  0.50100  Biso   1.000  O
  O34      1.0000 0.96250  0.14120  0.49900  Biso   1.000  O
  N1       1.0000 0.76960  0.58330  0.85550  Biso   1.000  N
  N2       1.0000 0.23040  0.41670  0.14450  Biso   1.000  N
  C1       1.0000 0.62050  0.63600  0.89170  Biso   1.000  C
  C2       1.0000 0.37950  0.36400  0.10830  Biso   1.000  C
  H1       1.0000 0.63730  0.68710  0.97320  Biso   1.000  H
  H2       1.0000 0.36270  0.31290  0.02680  Biso   1.000  H
  H3       1.0000 0.53150  0.54730  0.87160  Biso   1.000  H
  H4       1.0000 0.46850  0.45270  0.12840  Biso   1.000  H
  C3       1.0000 0.57320  0.74280  0.84040  Biso   1.000  C
  C4       1.0000 0.42680  0.25720  0.15960  Biso   1.000  C
  C5       1.0000 0.91850  0.68970  0.92950  Biso   1.000  C
  C6       1.0000 0.08150  0.31030  0.07050  Biso   1.000  C
  H5       1.0000 0.98950  0.63050  0.94650  Biso   1.000  H
  H6       1.0000 0.01050  0.36950  0.05350  Biso   1.000  H
  H7       1.0000 0.88870  0.75220  0.00010  Biso   1.000  H
  H8       1.0000 0.11130  0.24780  0.99990  Biso   1.000  H
  C7       1.0000 0.01010  0.79300  0.87760  Biso   1.000  C
  C8       1.0000 0.98990  0.20700  0.12240  Biso   1.000  C
  C9       1.0000 0.75210  0.42280  0.84370  Biso   1.000  C
  C10      1.0000 0.24790  0.57720  0.15630  Biso   1.000  C
  H9       1.0000 0.68440  0.40300  0.89720  Biso   1.000  H
  H10      1.0000 0.31560  0.59700  0.10280  Biso   1.000  H
  H11      1.0000 0.85770  0.40510  0.86070  Biso   1.000  H
  H12      1.0000 0.14230  0.59490  0.13930  Biso   1.000  H
  C11      1.0000 0.67660  0.31420  0.72440  Biso   1.000  C
  C12      1.0000 0.32340  0.68580  0.27560  Biso   1.000  C
  H13      1.0000 0.28200  0.66400  0.61900  Biso   1.000  H
  H14      1.0000 0.71800  0.33600  0.38100  Biso   1.000  H
  H15      1.0000 0.19100  0.74200  0.69600  Biso   1.000  H
  H16      1.0000 0.80900  0.25800  0.30400  Biso   1.000  H
  H17      1.0000 0.25000  0.94100  0.57200  Biso   1.000  H
  H18      1.0000 0.75000  0.05900  0.42800  Biso   1.000  H
  H19      1.0000 0.36100  0.06200  0.57200  Biso   1.000  H
  H20      1.0000 0.63900  0.93800  0.42800  Biso   1.000  H
  H21      1.0000 0.47800  0.76100  0.48900  Biso   1.000  H
  H22      1.0000 0.52200  0.23900  0.51100  Biso   1.000  H
  H23      1.0000 0.62100  0.74300  0.53800  Biso   1.000  H
  H24      1.0000 0.37900  0.25700  0.46200  Biso   1.000  H
  H25      1.0000 0.58900  0.14500  0.96500  Biso   1.000  H
  H26      1.0000 0.41100  0.85500  0.03500  Biso   1.000  H
  H27      1.0000 0.74300  0.13000  0.93600  Biso   1.000  H
  H28      1.0000 0.25700  0.87000  0.06400  Biso   1.000  H
  H29      1.0000 0.25100  0.01000  0.86500  Biso   1.000  H
  H30      1.0000 0.74900  0.99000  0.13500  Biso   1.000  H
  H31      1.0000 0.24700  0.06600  0.79100  Biso   1.000  H
  H32      1.0000 0.75300  0.93400  0.20900  Biso   1.000  H
  H33      1.0000 0.87700  0.05700  0.72800  Biso   1.000  H
  H34      1.0000 0.12300  0.94300  0.27200  Biso   1.000  H
  H35      1.0000 0.85300  0.90800  0.71800  Biso   1.000  H
  H36      1.0000 0.14700  0.09200  0.28200  Biso   1.000  H
  H37      1.0000 0.03100  0.91400  0.56570  Biso   1.000  H
  H38      1.0000 0.96900  0.08600  0.43430  Biso   1.000  H
  H39      1.0000 0.06400  0.89000  0.45200  Biso   1.000  H
  H40      1.0000 0.93600  0.11000  0.54800  Biso   1.000  H
