data_image0
_cell_length_a       9.5015
_cell_length_b       10.5625
_cell_length_c       12.7806
_cell_angle_alpha    89.176
_cell_angle_beta     70.918
_cell_angle_gamma    64.951

_symmetry_space_group_name_H-M    "P 1"
_symmetry_int_tables_number       1

loop_
  _symmetry_equiv_pos_as_xyz
  'x, y, z'

loop_
  _atom_site_label
  _atom_site_occupancy
  _atom_site_fract_x
  _atom_site_fract_y
  _atom_site_fract_z
  _atom_site_thermal_displace_type
  _atom_site_B_iso_or_equiv
  _atom_site_type_symbol
  Er1      1.0000 0.22428  0.02049  0.21515  Biso   1.000  Er
  Er2      1.0000 0.77572  0.97951  0.78485  Biso   1.000  Er
  Cu1      1.0000 0.95566  0.60686  0.14089  Biso   1.000  Cu
  Cu2      1.0000 0.04434  0.39314  0.85911  Biso   1.000  Cu
  Cl1      1.0000 0.15445  0.58475  0.97808  Biso   1.000  Cl
  Cl2      1.0000 0.84555  0.41525  0.02192  Biso   1.000  Cl
  Cl3      1.0000 0.37520  0.44370  0.33866  Biso   1.000  Cl
  Cl4      1.0000 0.62480  0.55630  0.66134  Biso   1.000  Cl
  O1       1.0000 0.07566  0.41610  0.17536  Biso   1.000  O
  O2       1.0000 0.92434  0.58390  0.82464  Biso   1.000  O
  O3       1.0000 0.01879  0.24654  0.25492  Biso   1.000  O
  O4       1.0000 0.98121  0.75346  0.74508  Biso   1.000  O
  O5       1.0000 0.98161  0.75606  0.24497  Biso   1.000  O
  O6       1.0000 0.01839  0.24394  0.75503  Biso   1.000  O
  O7       1.0000 0.90840  0.83058  0.42505  Biso   1.000  O
  O8       1.0000 0.09160  0.16942  0.57495  Biso   1.000  O
  O9       1.0000 0.77297  0.76267  0.10886  Biso   1.000  O
  O10      1.0000 0.22703  0.23733  0.89114  Biso   1.000  O
  O11      1.0000 0.50002  0.88329  0.16899  Biso   1.000  O
  O12      1.0000 0.49998  0.11671  0.83101  Biso   1.000  O
  O13      1.0000 0.96449  0.02115  0.23522  Biso   1.000  O
  O14      1.0000 0.03551  0.97885  0.76478  Biso   1.000  O
  O15      1.0000 0.27708  0.79244  0.14474  Biso   1.000  O
  O16      1.0000 0.72292  0.20756  0.85526  Biso   1.000  O
  O17      1.0000 0.36470  0.15605  0.13215  Biso   1.000  O
  O18      1.0000 0.63530  0.84395  0.86785  Biso   1.000  O
  O19      1.0000 0.27439  0.11572  0.35684  Biso   1.000  O
  O20      1.0000 0.72561  0.88428  0.64316  Biso   1.000  O
  O21      1.0000 0.24357  0.02399  0.02653  Biso   1.000  O
  O22      1.0000 0.75643  0.97601  0.97347  Biso   1.000  O
  O23      1.0000 0.14570  0.92532  0.37646  Biso   1.000  O
  O24      1.0000 0.85430  0.07468  0.62354  Biso   1.000  O
  O25      1.0000 0.43290  0.49630  0.24058  Biso   1.000  O
  O26      1.0000 0.56710  0.50370  0.75942  Biso   1.000  O
  O27      1.0000 0.41850  0.48270  0.42353  Biso   1.000  O
  O28      1.0000 0.58150  0.51730  0.57647  Biso   1.000  O
  O29      1.0000 0.21060  0.47020  0.37350  Biso   1.000  O
  O30      1.0000 0.78940  0.52980  0.62650  Biso   1.000  O
  O31      1.0000 0.46480  0.29170  0.31300  Biso   1.000  O
  O32      1.0000 0.53520  0.70830  0.68700  Biso   1.000  O
  O33      1.0000 0.71330  0.17360  0.46714  Biso   1.000  O
  O34      1.0000 0.28670  0.82640  0.53286  Biso   1.000  O
  O35      1.0000 0.23075  0.83717  0.88410  Biso   1.000  O
  O36      1.0000 0.76925  0.16283  0.11590  Biso   1.000  O
  O37      1.0000 0.54238  0.63396  0.96802  Biso   1.000  O
  O38      1.0000 0.45762  0.36604  0.03198  Biso   1.000  O
  N1       1.0000 0.77802  0.62195  0.28845  Biso   1.000  N
  N2       1.0000 0.22198  0.37805  0.71155  Biso   1.000  N
  C1       1.0000 0.97809  0.37141  0.23816  Biso   1.000  C
  C2       1.0000 0.02191  0.62859  0.76184  Biso   1.000  C
  C3       1.0000 0.79745  0.47552  0.29617  Biso   1.000  C
  C4       1.0000 0.20255  0.52448  0.70383  Biso   1.000  C
  H1       1.0000 0.73600  0.45600  0.26800  Biso   1.000  H
  H2       1.0000 0.26400  0.54400  0.73200  Biso   1.000  H
  H3       1.0000 0.74500  0.46100  0.37520  Biso   1.000  H
  H4       1.0000 0.25500  0.53900  0.62480  Biso   1.000  H
  C5       1.0000 0.90717  0.76011  0.34738  Biso   1.000  C
  C6       1.0000 0.09283  0.23989  0.65262  Biso   1.000  C
  C7       1.0000 0.81601  0.66990  0.38001  Biso   1.000  C
  C8       1.0000 0.18399  0.33010  0.61999  Biso   1.000  C
  H5       1.0000 0.90600  0.58500  0.39320  Biso   1.000  H
  H6       1.0000 0.09400  0.41500  0.60680  Biso   1.000  H
  H7       1.0000 0.73300  0.69600  0.43450  Biso   1.000  H
  H8       1.0000 0.26700  0.30400  0.56550  Biso   1.000  H
  C9       1.0000 0.63194  0.79357  0.17942  Biso   1.000  C
  C10      1.0000 0.36806  0.20643  0.82058  Biso   1.000  C
  C11      1.0000 0.61572  0.72101  0.28293  Biso   1.000  C
  C12      1.0000 0.38428  0.27899  0.71707  Biso   1.000  C
  H9       1.0000 0.58400  0.75900  0.33800  Biso   1.000  H
  H10      1.0000 0.41600  0.24100  0.66200  Biso   1.000  H
  H11      1.0000 0.56800  0.65600  0.26720  Biso   1.000  H
  H12      1.0000 0.43200  0.34400  0.73280  Biso   1.000  H
  H13      1.0000 0.06710  0.88880  0.39260  Biso   1.000  H
  H14      1.0000 0.93290  0.11120  0.60740  Biso   1.000  H
  H15      1.0000 0.37670  0.73460  0.08570  Biso   1.000  H
  H16      1.0000 0.62330  0.26540  0.91430  Biso   1.000  H
  H17      1.0000 0.14980  0.95250  0.44510  Biso   1.000  H
  H18      1.0000 0.85020  0.04750  0.55490  Biso   1.000  H
  H19      1.0000 0.34000  0.25120  0.12600  Biso   1.000  H
  H20      1.0000 0.66000  0.74880  0.87400  Biso   1.000  H
  H21      1.0000 0.17300  0.03150  0.98520  Biso   1.000  H
  H22      1.0000 0.82700  0.96850  0.01480  Biso   1.000  H
  H23      1.0000 0.97620  0.92750  0.23750  Biso   1.000  H
  H24      1.0000 0.02380  0.07250  0.76250  Biso   1.000  H
  H25      1.0000 0.22710  0.73480  0.17760  Biso   1.000  H
  H26      1.0000 0.77290  0.26520  0.82240  Biso   1.000  H
  H27      1.0000 0.03440  0.02900  0.27280  Biso   1.000  H
  H28      1.0000 0.96560  0.97100  0.72720  Biso   1.000  H
  H29      1.0000 0.47620  0.10150  0.08530  Biso   1.000  H
  H30      1.0000 0.52380  0.89850  0.91470  Biso   1.000  H
  H31      1.0000 0.66400  0.27570  0.47210  Biso   1.000  H
  H32      1.0000 0.33600  0.72430  0.52790  Biso   1.000  H
  H33      1.0000 0.12100  0.88440  0.94240  Biso   1.000  H
  H34      1.0000 0.87900  0.11560  0.05760  Biso   1.000  H
  H35      1.0000 0.17210  0.19760  0.37900  Biso   1.000  H
  H36      1.0000 0.82790  0.80240  0.62100  Biso   1.000  H
  H37      1.0000 0.35970  0.14160  0.32100  Biso   1.000  H
  H38      1.0000 0.64030  0.85840  0.67900  Biso   1.000  H
  H39      1.0000 0.26500  0.74060  0.89960  Biso   1.000  H
  H40      1.0000 0.73500  0.25940  0.10040  Biso   1.000  H
  H41      1.0000 0.51480  0.57900  0.92650  Biso   1.000  H
  H42      1.0000 0.48520  0.42100  0.07350  Biso   1.000  H
  H43      1.0000 0.75800  0.13970  0.38890  Biso   1.000  H
  H44      1.0000 0.24200  0.86030  0.61110  Biso   1.000  H
  H45      1.0000 0.60130  0.56970  0.00890  Biso   1.000  H
  H46      1.0000 0.39870  0.43030  0.99110  Biso   1.000  H
  H47      1.0000 0.26720  0.10470  0.00990  Biso   1.000  H
  H48      1.0000 0.73280  0.89530  0.99010  Biso   1.000  H
