data_image0
_cell_length_a       9.228
_cell_length_b       5.469
_cell_length_c       25.697
_cell_angle_alpha    90
_cell_angle_beta     90
_cell_angle_gamma    90

_symmetry_space_group_name_H-M    "P 1"
_symmetry_int_tables_number       1

loop_
  _symmetry_equiv_pos_as_xyz
  'x, y, z'

loop_
  _atom_site_label
  _atom_site_occupancy
  _atom_site_fract_x
  _atom_site_fract_y
  _atom_site_fract_z
  _atom_site_thermal_displace_type
  _atom_site_B_iso_or_equiv
  _atom_site_type_symbol
  Cu1      1.0000 0.97161  0.79431  0.04826  Biso   1.000  Cu
  Cu2      1.0000 0.52839  0.20569  0.54826  Biso   1.000  Cu
  Cu3      1.0000 0.02839  0.29431  0.45174  Biso   1.000  Cu
  Cu4      1.0000 0.47161  0.70569  0.95174  Biso   1.000  Cu
  O1       1.0000 0.15470  0.76540  0.00642  Biso   1.000  O
  O2       1.0000 0.34530  0.23460  0.50642  Biso   1.000  O
  O3       1.0000 0.84530  0.26540  0.49358  Biso   1.000  O
  O4       1.0000 0.65470  0.73460  0.99358  Biso   1.000  O
  O5       1.0000 0.36720  0.95150  0.99414  Biso   1.000  O
  O6       1.0000 0.13280  0.04850  0.49414  Biso   1.000  O
  O7       1.0000 0.63280  0.45150  0.50586  Biso   1.000  O
  O8       1.0000 0.86720  0.54850  0.00586  Biso   1.000  O
  N1       1.0000 0.05670  0.09830  0.06911  Biso   1.000  N
  N2       1.0000 0.44330  0.90170  0.56911  Biso   1.000  N
  N3       1.0000 0.94330  0.59830  0.43089  Biso   1.000  N
  N4       1.0000 0.55670  0.40170  0.93089  Biso   1.000  N
  N5       1.0000 0.80160  0.92310  0.08810  Biso   1.000  N
  N6       1.0000 0.69840  0.07690  0.58810  Biso   1.000  N
  N7       1.0000 0.19840  0.42310  0.41190  Biso   1.000  N
  N8       1.0000 0.30160  0.57690  0.91190  Biso   1.000  N
  C1       1.0000 0.24110  0.94360  0.01240  Biso   1.000  C
  C2       1.0000 0.25890  0.05640  0.51240  Biso   1.000  C
  C3       1.0000 0.75890  0.44360  0.48760  Biso   1.000  C
  C4       1.0000 0.74110  0.55640  0.98760  Biso   1.000  C
  C5       1.0000 0.19070  0.16690  0.04370  Biso   1.000  C
  C6       1.0000 0.30930  0.83310  0.54370  Biso   1.000  C
  C7       1.0000 0.80930  0.66690  0.45630  Biso   1.000  C
  C8       1.0000 0.69070  0.33310  0.95630  Biso   1.000  C
  C9       1.0000 0.97960  0.25180  0.09667  Biso   1.000  C
  C10      1.0000 0.52040  0.74820  0.59667  Biso   1.000  C
  C11      1.0000 0.02040  0.75180  0.40333  Biso   1.000  C
  C12      1.0000 0.47960  0.24820  0.90333  Biso   1.000  C
  O9       1.0000 0.00640  0.47340  0.10582  Biso   1.000  O
  O10      1.0000 0.49360  0.52660  0.60582  Biso   1.000  O
  O11      1.0000 0.99360  0.97340  0.39418  Biso   1.000  O
  O12      1.0000 0.50640  0.02660  0.89418  Biso   1.000  O
  C13      1.0000 0.84550  0.13060  0.12250  Biso   1.000  C
  C14      1.0000 0.65450  0.86940  0.62250  Biso   1.000  C
  C15      1.0000 0.15450  0.63060  0.37750  Biso   1.000  C
  C16      1.0000 0.34550  0.36940  0.87750  Biso   1.000  C
  C17      1.0000 0.89200  0.02730  0.17490  Biso   1.000  C
  C18      1.0000 0.60800  0.97270  0.67490  Biso   1.000  C
  C19      1.0000 0.10800  0.52730  0.32510  Biso   1.000  C
  C20      1.0000 0.39200  0.47270  0.82510  Biso   1.000  C
  C21      1.0000 0.72190  0.31260  0.12890  Biso   1.000  C
  C22      1.0000 0.77810  0.68740  0.62890  Biso   1.000  C
  C23      1.0000 0.27810  0.81260  0.37110  Biso   1.000  C
  C24      1.0000 0.22190  0.18740  0.87110  Biso   1.000  C
  C25      1.0000 0.30790  0.26780  0.08030  Biso   1.000  C
  C26      1.0000 0.19210  0.73220  0.58030  Biso   1.000  C
  C27      1.0000 0.69210  0.76780  0.41970  Biso   1.000  C
  C28      1.0000 0.80790  0.23220  0.91970  Biso   1.000  C
  C29      1.0000 0.33300  0.11070  0.12780  Biso   1.000  C
  C30      1.0000 0.16700  0.88930  0.62780  Biso   1.000  C
  C31      1.0000 0.66700  0.61070  0.37220  Biso   1.000  C
  C32      1.0000 0.83300  0.38930  0.87220  Biso   1.000  C
  C33      1.0000 0.41470  0.89720  0.12590  Biso   1.000  C
  C34      1.0000 0.08530  0.10280  0.62590  Biso   1.000  C
  C35      1.0000 0.58530  0.39720  0.37410  Biso   1.000  C
  C36      1.0000 0.91470  0.60280  0.87410  Biso   1.000  C
  C37      1.0000 0.43900  0.75870  0.16980  Biso   1.000  C
  C38      1.0000 0.06100  0.24130  0.66980  Biso   1.000  C
  C39      1.0000 0.56100  0.25870  0.33020  Biso   1.000  C
  C40      1.0000 0.93900  0.74130  0.83020  Biso   1.000  C
  C41      1.0000 0.37920  0.82830  0.21710  Biso   1.000  C
  C42      1.0000 0.12080  0.17170  0.71710  Biso   1.000  C
  C43      1.0000 0.62080  0.32830  0.28290  Biso   1.000  C
  C44      1.0000 0.87920  0.67170  0.78290  Biso   1.000  C
  C45      1.0000 0.29510  0.03470  0.21990  Biso   1.000  C
  C46      1.0000 0.20490  0.96530  0.71990  Biso   1.000  C
  C47      1.0000 0.70490  0.53470  0.28010  Biso   1.000  C
  C48      1.0000 0.79510  0.46530  0.78010  Biso   1.000  C
  C49      1.0000 0.27340  0.17870  0.17560  Biso   1.000  C
  C50      1.0000 0.22660  0.82130  0.67560  Biso   1.000  C
  C51      1.0000 0.72660  0.67870  0.32440  Biso   1.000  C
  C52      1.0000 0.77340  0.32130  0.82440  Biso   1.000  C
  H1       1.0000 0.72420  0.98200  0.06100  Biso   1.000  H
  H2       1.0000 0.77580  0.01800  0.56100  Biso   1.000  H
  H3       1.0000 0.27580  0.48200  0.43900  Biso   1.000  H
  H4       1.0000 0.22420  0.51800  0.93900  Biso   1.000  H
  H5       1.0000 0.76340  0.83200  0.10250  Biso   1.000  H
  H6       1.0000 0.73660  0.16800  0.60250  Biso   1.000  H
  H7       1.0000 0.23660  0.33200  0.39750  Biso   1.000  H
  H8       1.0000 0.26340  0.66800  0.89750  Biso   1.000  H
  H9       1.0000 0.17650  0.25960  0.01860  Biso   1.000  H
  H10      1.0000 0.32350  0.74040  0.51860  Biso   1.000  H
  H11      1.0000 0.82350  0.75960  0.48140  Biso   1.000  H
  H12      1.0000 0.67650  0.24040  0.98140  Biso   1.000  H
  H13      1.0000 0.96660  0.91400  0.16880  Biso   1.000  H
  H14      1.0000 0.53340  0.08600  0.66880  Biso   1.000  H
  H15      1.0000 0.03340  0.41400  0.33120  Biso   1.000  H
  H16      1.0000 0.46660  0.58600  0.83120  Biso   1.000  H
  H17      1.0000 0.92530  0.14100  0.19520  Biso   1.000  H
  H18      1.0000 0.57470  0.85900  0.69520  Biso   1.000  H
  H19      1.0000 0.07470  0.64100  0.30480  Biso   1.000  H
  H20      1.0000 0.42530  0.35900  0.80480  Biso   1.000  H
  H21      1.0000 0.80700  0.98600  0.19610  Biso   1.000  H
  H22      1.0000 0.69300  0.01400  0.69610  Biso   1.000  H
  H23      1.0000 0.19300  0.48600  0.30390  Biso   1.000  H
  H24      1.0000 0.30700  0.51400  0.80390  Biso   1.000  H
  H25      1.0000 0.63190  0.23000  0.14610  Biso   1.000  H
  H26      1.0000 0.86810  0.77000  0.64610  Biso   1.000  H
  H27      1.0000 0.36810  0.73000  0.35390  Biso   1.000  H
  H28      1.0000 0.13190  0.27000  0.85390  Biso   1.000  H
  H29      1.0000 0.68500  0.36300  0.09380  Biso   1.000  H
  H30      1.0000 0.81500  0.63700  0.59380  Biso   1.000  H
  H31      1.0000 0.31500  0.86300  0.40620  Biso   1.000  H
  H32      1.0000 0.18500  0.13700  0.90620  Biso   1.000  H
  H33      1.0000 0.75040  0.45400  0.14920  Biso   1.000  H
  H34      1.0000 0.74960  0.54600  0.64920  Biso   1.000  H
  H35      1.0000 0.24960  0.95400  0.35080  Biso   1.000  H
  H36      1.0000 0.25040  0.04600  0.85080  Biso   1.000  H
  H37      1.0000 0.39740  0.27270  0.05930  Biso   1.000  H
  H38      1.0000 0.10260  0.72730  0.55930  Biso   1.000  H
  H39      1.0000 0.60260  0.77270  0.44070  Biso   1.000  H
  H40      1.0000 0.89740  0.22730  0.94070  Biso   1.000  H
  H41      1.0000 0.26760  0.44680  0.09100  Biso   1.000  H
  H42      1.0000 0.23240  0.55320  0.59100  Biso   1.000  H
  H43      1.0000 0.73240  0.94680  0.40900  Biso   1.000  H
  H44      1.0000 0.76760  0.05320  0.90900  Biso   1.000  H
  H45      1.0000 0.45700  0.85460  0.09420  Biso   1.000  H
  H46      1.0000 0.04300  0.14540  0.59420  Biso   1.000  H
  H47      1.0000 0.54300  0.35460  0.40580  Biso   1.000  H
  H48      1.0000 0.95700  0.64540  0.90580  Biso   1.000  H
  H49      1.0000 0.49290  0.59600  0.16320  Biso   1.000  H
  H50      1.0000 0.00710  0.40400  0.66320  Biso   1.000  H
  H51      1.0000 0.50710  0.09600  0.33680  Biso   1.000  H
  H52      1.0000 0.99290  0.90400  0.83680  Biso   1.000  H
  H53      1.0000 0.39620  0.70430  0.24740  Biso   1.000  H
  H54      1.0000 0.10380  0.29570  0.74740  Biso   1.000  H
  H55      1.0000 0.60380  0.20430  0.25260  Biso   1.000  H
  H56      1.0000 0.89620  0.79570  0.75260  Biso   1.000  H
  H57      1.0000 0.24750  0.08280  0.25110  Biso   1.000  H
  H58      1.0000 0.25250  0.91720  0.75110  Biso   1.000  H
  H59      1.0000 0.75250  0.58280  0.24890  Biso   1.000  H
  H60      1.0000 0.74750  0.41720  0.74890  Biso   1.000  H
  H61      1.0000 0.21190  0.32840  0.17640  Biso   1.000  H
  H62      1.0000 0.28810  0.67160  0.67640  Biso   1.000  H
  H63      1.0000 0.78810  0.82840  0.32360  Biso   1.000  H
  H64      1.0000 0.71190  0.17160  0.82360  Biso   1.000  H
