data_image0
_cell_length_a       7.914
_cell_length_b       10.09
_cell_length_c       11.28
_cell_angle_alpha    90
_cell_angle_beta     90
_cell_angle_gamma    90

_symmetry_space_group_name_H-M    "P 1"
_symmetry_int_tables_number       1

loop_
  _symmetry_equiv_pos_as_xyz
  'x, y, z'

loop_
  _atom_site_label
  _atom_site_occupancy
  _atom_site_fract_x
  _atom_site_fract_y
  _atom_site_fract_z
  _atom_site_thermal_displace_type
  _atom_site_B_iso_or_equiv
  _atom_site_type_symbol
  Cu1      1.0000 0.07996  0.23958  0.86933  Biso   1.000  Cu
  Cu2      1.0000 0.42004  0.76042  0.36933  Biso   1.000  Cu
  Cu3      1.0000 0.92004  0.73958  0.63067  Biso   1.000  Cu
  Cu4      1.0000 0.57996  0.26042  0.13067  Biso   1.000  Cu
  O1       1.0000 0.88830  0.23280  0.98800  Biso   1.000  O
  O2       1.0000 0.61170  0.76720  0.48800  Biso   1.000  O
  O3       1.0000 0.11170  0.73280  0.51200  Biso   1.000  O
  O4       1.0000 0.38830  0.26720  0.01200  Biso   1.000  O
  O5       1.0000 0.68020  0.10400  0.05330  Biso   1.000  O
  O6       1.0000 0.81980  0.89600  0.55330  Biso   1.000  O
  O7       1.0000 0.31980  0.60400  0.44670  Biso   1.000  O
  O8       1.0000 0.18020  0.39600  0.94670  Biso   1.000  O
  O9       1.0000 0.06560  0.86220  0.75910  Biso   1.000  O
  O10      1.0000 0.43440  0.13780  0.25910  Biso   1.000  O
  O11      1.0000 0.93440  0.36220  0.74090  Biso   1.000  O
  O12      1.0000 0.56560  0.63780  0.24090  Biso   1.000  O
  N1       1.0000 0.00450  0.06510  0.83670  Biso   1.000  N
  N2       1.0000 0.49550  0.93490  0.33670  Biso   1.000  N
  N3       1.0000 0.99550  0.56510  0.66330  Biso   1.000  N
  N4       1.0000 0.50450  0.43490  0.16330  Biso   1.000  N
  N5       1.0000 0.27730  0.18010  0.76940  Biso   1.000  N
  N6       1.0000 0.22270  0.81990  0.26940  Biso   1.000  N
  N7       1.0000 0.72270  0.68010  0.73060  Biso   1.000  N
  N8       1.0000 0.77730  0.31990  0.23060  Biso   1.000  N
  C1       1.0000 0.80610  0.12670  0.98720  Biso   1.000  C
  C2       1.0000 0.69390  0.87330  0.48720  Biso   1.000  C
  C3       1.0000 0.19390  0.62670  0.51280  Biso   1.000  C
  C4       1.0000 0.30610  0.37330  0.01280  Biso   1.000  C
  C5       1.0000 0.85810  0.01860  0.90130  Biso   1.000  C
  C6       1.0000 0.64190  0.98140  0.40130  Biso   1.000  C
  C7       1.0000 0.14190  0.51860  0.59870  Biso   1.000  C
  C8       1.0000 0.35810  0.48140  0.09870  Biso   1.000  C
  C9       1.0000 0.09470  0.98400  0.77360  Biso   1.000  C
  C10      1.0000 0.40530  0.01600  0.27360  Biso   1.000  C
  C11      1.0000 0.90530  0.48400  0.72640  Biso   1.000  C
  C12      1.0000 0.59470  0.51600  0.22640  Biso   1.000  C
  C13      1.0000 0.24930  0.04810  0.71440  Biso   1.000  C
  C14      1.0000 0.25070  0.95190  0.21440  Biso   1.000  C
  C15      1.0000 0.75070  0.54810  0.78560  Biso   1.000  C
  C16      1.0000 0.74930  0.45190  0.28560  Biso   1.000  C
  C17      1.0000 0.21070  0.06730  0.58380  Biso   1.000  C
  C18      1.0000 0.28930  0.93270  0.08380  Biso   1.000  C
  C19      1.0000 0.78930  0.56730  0.91620  Biso   1.000  C
  C20      1.0000 0.71070  0.43270  0.41620  Biso   1.000  C
  C21      1.0000 0.40170  0.95820  0.72880  Biso   1.000  C
  C22      1.0000 0.09830  0.04180  0.22880  Biso   1.000  C
  C23      1.0000 0.59830  0.45820  0.77120  Biso   1.000  C
  C24      1.0000 0.90170  0.54180  0.27120  Biso   1.000  C
  O13      1.0000 0.27550  0.66870  0.86490  Biso   1.000  O
  O14      1.0000 0.22450  0.33130  0.36490  Biso   1.000  O
  O15      1.0000 0.72450  0.16870  0.63510  Biso   1.000  O
  O16      1.0000 0.77550  0.83130  0.13510  Biso   1.000  O
  H1       1.0000 0.33120  0.23330  0.74600  Biso   1.000  H
  H2       1.0000 0.16880  0.76670  0.24600  Biso   1.000  H
  H3       1.0000 0.66880  0.73330  0.75400  Biso   1.000  H
  H4       1.0000 0.83120  0.26670  0.25400  Biso   1.000  H
  H5       1.0000 0.89510  0.93530  0.95200  Biso   1.000  H
  H6       1.0000 0.60490  0.06470  0.45200  Biso   1.000  H
  H7       1.0000 0.10490  0.43530  0.54800  Biso   1.000  H
  H8       1.0000 0.39510  0.56470  0.04800  Biso   1.000  H
  H9       1.0000 0.76430  0.00000  0.84770  Biso   1.000  H
  H10      1.0000 0.73570  0.00000  0.34770  Biso   1.000  H
  H11      1.0000 0.23570  0.50000  0.65230  Biso   1.000  H
  H12      1.0000 0.26430  0.50000  0.15230  Biso   1.000  H
  H13      1.0000 0.16880  0.99890  0.54550  Biso   1.000  H
  H14      1.0000 0.33120  0.00110  0.04550  Biso   1.000  H
  H15      1.0000 0.83120  0.49890  0.95450  Biso   1.000  H
  H16      1.0000 0.66880  0.50110  0.45450  Biso   1.000  H
  H17      1.0000 0.30400  0.11250  0.54600  Biso   1.000  H
  H18      1.0000 0.19600  0.88750  0.04600  Biso   1.000  H
  H19      1.0000 0.69600  0.61250  0.95400  Biso   1.000  H
  H20      1.0000 0.80400  0.38750  0.45400  Biso   1.000  H
  H21      1.0000 0.12960  0.13740  0.57160  Biso   1.000  H
  H22      1.0000 0.37040  0.86260  0.07160  Biso   1.000  H
  H23      1.0000 0.87040  0.63740  0.92840  Biso   1.000  H
  H24      1.0000 0.62960  0.36260  0.42840  Biso   1.000  H
  H25      1.0000 0.42840  0.98770  0.77810  Biso   1.000  H
  H26      1.0000 0.07160  0.01230  0.27810  Biso   1.000  H
  H27      1.0000 0.57160  0.48770  0.72190  Biso   1.000  H
  H28      1.0000 0.92840  0.51230  0.22190  Biso   1.000  H
  H29      1.0000 0.50720  0.98700  0.68220  Biso   1.000  H
  H30      1.0000 0.99280  0.01300  0.18220  Biso   1.000  H
  H31      1.0000 0.49280  0.48700  0.81780  Biso   1.000  H
  H32      1.0000 0.00720  0.51300  0.31780  Biso   1.000  H
  H33      1.0000 0.40200  0.88700  0.68220  Biso   1.000  H
  H34      1.0000 0.09800  0.11300  0.18220  Biso   1.000  H
  H35      1.0000 0.59800  0.38700  0.81780  Biso   1.000  H
  H36      1.0000 0.90200  0.61300  0.31780  Biso   1.000  H
  H37      1.0000 0.25000  0.58700  0.86500  Biso   1.000  H
  H38      1.0000 0.25000  0.41300  0.36500  Biso   1.000  H
  H39      1.0000 0.75000  0.08700  0.63500  Biso   1.000  H
  H40      1.0000 0.75000  0.91300  0.13500  Biso   1.000  H
  H41      1.0000 0.21100  0.73700  0.86000  Biso   1.000  H
  H42      1.0000 0.28900  0.26300  0.36000  Biso   1.000  H
  H43      1.0000 0.78900  0.23700  0.64000  Biso   1.000  H
  H44      1.0000 0.71100  0.76300  0.14000  Biso   1.000  H
