data_image0
_cell_length_a       12.556
_cell_length_b       9.313
_cell_length_c       16.679
_cell_angle_alpha    90
_cell_angle_beta     90
_cell_angle_gamma    90

_symmetry_space_group_name_H-M    "P 1"
_symmetry_int_tables_number       1

loop_
  _symmetry_equiv_pos_as_xyz
  'x, y, z'

loop_
  _atom_site_label
  _atom_site_occupancy
  _atom_site_fract_x
  _atom_site_fract_y
  _atom_site_fract_z
  _atom_site_thermal_displace_type
  _atom_site_B_iso_or_equiv
  _atom_site_type_symbol
  Cu1      1.0000 0.95552  0.13158  0.81145  Biso   1.000  Cu
  Cu2      1.0000 0.54448  0.86842  0.31145  Biso   1.000  Cu
  Cu3      1.0000 0.04448  0.63158  0.68855  Biso   1.000  Cu
  Cu4      1.0000 0.45552  0.36842  0.18855  Biso   1.000  Cu
  O1       1.0000 0.77010  0.10670  0.81270  Biso   1.000  O
  O2       1.0000 0.72990  0.89330  0.31270  Biso   1.000  O
  O3       1.0000 0.22990  0.60670  0.68730  Biso   1.000  O
  O4       1.0000 0.27010  0.39330  0.18730  Biso   1.000  O
  O5       1.0000 0.95500  0.21970  0.70440  Biso   1.000  O
  O6       1.0000 0.54500  0.78030  0.20440  Biso   1.000  O
  O7       1.0000 0.04500  0.71970  0.79560  Biso   1.000  O
  O8       1.0000 0.45500  0.28030  0.29560  Biso   1.000  O
  O9       1.0000 0.01220  0.44050  0.73640  Biso   1.000  O
  O10      1.0000 0.48780  0.55950  0.23640  Biso   1.000  O
  O11      1.0000 0.98780  0.94050  0.76360  Biso   1.000  O
  O12      1.0000 0.51220  0.05950  0.26360  Biso   1.000  O
  N1       1.0000 0.00580  0.53520  0.59360  Biso   1.000  N
  N2       1.0000 0.49420  0.46480  0.09360  Biso   1.000  N
  N3       1.0000 0.99420  0.03520  0.90640  Biso   1.000  N
  N4       1.0000 0.50580  0.96480  0.40640  Biso   1.000  N
  N5       1.0000 0.04140  0.80390  0.61760  Biso   1.000  N
  N6       1.0000 0.45860  0.19610  0.11760  Biso   1.000  N
  N7       1.0000 0.95860  0.30390  0.88240  Biso   1.000  N
  N8       1.0000 0.54140  0.69610  0.38240  Biso   1.000  N
  C1       1.0000 0.98450  0.34440  0.68400  Biso   1.000  C
  C2       1.0000 0.51550  0.65560  0.18400  Biso   1.000  C
  C3       1.0000 0.01550  0.84440  0.81600  Biso   1.000  C
  C4       1.0000 0.48450  0.15560  0.31600  Biso   1.000  C
  C5       1.0000 0.99320  0.38290  0.59900  Biso   1.000  C
  C6       1.0000 0.50680  0.61710  0.09900  Biso   1.000  C
  C7       1.0000 0.00680  0.88290  0.90100  Biso   1.000  C
  C8       1.0000 0.49320  0.11710  0.40100  Biso   1.000  C
  H1       1.0000 0.92850  0.35360  0.57050  Biso   1.000  H
  H2       1.0000 0.57150  0.64640  0.07050  Biso   1.000  H
  H3       1.0000 0.07150  0.85360  0.92950  Biso   1.000  H
  H4       1.0000 0.42850  0.14640  0.42950  Biso   1.000  H
  C9       1.0000 0.09120  0.29750  0.56550  Biso   1.000  C
  C10      1.0000 0.40880  0.70250  0.06550  Biso   1.000  C
  C11      1.0000 0.90880  0.79750  0.93450  Biso   1.000  C
  C12      1.0000 0.59120  0.20250  0.43450  Biso   1.000  C
  H5       1.0000 0.15400  0.32490  0.59580  Biso   1.000  H
  H6       1.0000 0.34600  0.67510  0.09580  Biso   1.000  H
  H7       1.0000 0.84600  0.82490  0.90420  Biso   1.000  H
  H8       1.0000 0.65400  0.17510  0.40420  Biso   1.000  H
  H9       1.0000 0.07930  0.19590  0.57450  Biso   1.000  H
  H10      1.0000 0.42070  0.80410  0.07450  Biso   1.000  H
  H11      1.0000 0.92070  0.69590  0.92550  Biso   1.000  H
  H12      1.0000 0.57930  0.30410  0.42550  Biso   1.000  H
  C13      1.0000 0.11330  0.32050  0.47830  Biso   1.000  C
  C14      1.0000 0.38670  0.67950  0.97830  Biso   1.000  C
  C15      1.0000 0.88670  0.82050  0.02170  Biso   1.000  C
  C16      1.0000 0.61330  0.17950  0.52170  Biso   1.000  C
  C17      1.0000 0.22690  0.25380  0.45890  Biso   1.000  C
  C18      1.0000 0.27310  0.74620  0.95890  Biso   1.000  C
  C19      1.0000 0.77310  0.75380  0.04110  Biso   1.000  C
  C20      1.0000 0.72690  0.24620  0.54110  Biso   1.000  C
  H13      1.0000 0.23770  0.25230  0.40190  Biso   1.000  H
  H14      1.0000 0.26230  0.74770  0.90190  Biso   1.000  H
  H15      1.0000 0.76230  0.75230  0.09810  Biso   1.000  H
  H16      1.0000 0.73770  0.24770  0.59810  Biso   1.000  H
  H17      1.0000 0.23040  0.15760  0.47950  Biso   1.000  H
  H18      1.0000 0.26960  0.84240  0.97950  Biso   1.000  H
  H19      1.0000 0.76960  0.65760  0.02050  Biso   1.000  H
  H20      1.0000 0.73040  0.34240  0.52050  Biso   1.000  H
  H21      1.0000 0.28130  0.31110  0.48360  Biso   1.000  H
  H22      1.0000 0.21870  0.68890  0.98360  Biso   1.000  H
  H23      1.0000 0.71870  0.81110  0.01640  Biso   1.000  H
  H24      1.0000 0.78130  0.18890  0.51640  Biso   1.000  H
  C21      1.0000 0.02800  0.25880  0.42310  Biso   1.000  C
  C22      1.0000 0.47200  0.74120  0.92310  Biso   1.000  C
  C23      1.0000 0.97200  0.75880  0.07690  Biso   1.000  C
  C24      1.0000 0.52800  0.24120  0.57690  Biso   1.000  C
  H25      1.0000 0.05190  0.26420  0.36850  Biso   1.000  H
  H26      1.0000 0.44810  0.73580  0.86850  Biso   1.000  H
  H27      1.0000 0.94810  0.76420  0.13150  Biso   1.000  H
  H28      1.0000 0.55190  0.23580  0.63150  Biso   1.000  H
  H29      1.0000 0.96340  0.31310  0.42900  Biso   1.000  H
  H30      1.0000 0.53660  0.68690  0.92900  Biso   1.000  H
  H31      1.0000 0.03660  0.81310  0.07100  Biso   1.000  H
  H32      1.0000 0.46340  0.18690  0.57100  Biso   1.000  H
  H33      1.0000 0.01490  0.16040  0.43710  Biso   1.000  H
  H34      1.0000 0.48510  0.83960  0.93710  Biso   1.000  H
  H35      1.0000 0.98510  0.66040  0.06290  Biso   1.000  H
  H36      1.0000 0.51490  0.33960  0.56290  Biso   1.000  H
  C25      1.0000 0.96500  0.60970  0.53530  Biso   1.000  C
  C26      1.0000 0.53500  0.39030  0.03530  Biso   1.000  C
  C27      1.0000 0.03500  0.10970  0.96470  Biso   1.000  C
  C28      1.0000 0.46500  0.89030  0.46470  Biso   1.000  C
  O13      1.0000 0.91320  0.56280  0.47570  Biso   1.000  O
  O14      1.0000 0.58680  0.43720  0.97570  Biso   1.000  O
  O15      1.0000 0.08680  0.06280  0.02430  Biso   1.000  O
  O16      1.0000 0.41320  0.93720  0.52430  Biso   1.000  O
  C29      1.0000 0.98790  0.77450  0.54080  Biso   1.000  C
  C30      1.0000 0.51210  0.22550  0.04080  Biso   1.000  C
  C31      1.0000 0.01210  0.27450  0.95920  Biso   1.000  C
  C32      1.0000 0.48790  0.72550  0.45920  Biso   1.000  C
  C33      1.0000 0.88080  0.85220  0.54370  Biso   1.000  C
  C34      1.0000 0.61920  0.14780  0.04370  Biso   1.000  C
  C35      1.0000 0.11920  0.35220  0.95630  Biso   1.000  C
  C36      1.0000 0.38080  0.64780  0.45630  Biso   1.000  C
  H37      1.0000 0.89260  0.95390  0.54700  Biso   1.000  H
  H38      1.0000 0.60740  0.04610  0.04700  Biso   1.000  H
  H39      1.0000 0.10740  0.45390  0.95300  Biso   1.000  H
  H40      1.0000 0.39260  0.54610  0.45300  Biso   1.000  H
  H41      1.0000 0.84160  0.82080  0.58990  Biso   1.000  H
  H42      1.0000 0.65840  0.17920  0.08990  Biso   1.000  H
  H43      1.0000 0.15840  0.32080  0.91010  Biso   1.000  H
  H44      1.0000 0.34160  0.67920  0.41010  Biso   1.000  H
  H45      1.0000 0.84100  0.83070  0.49610  Biso   1.000  H
  H46      1.0000 0.65900  0.16930  0.99610  Biso   1.000  H
  H47      1.0000 0.15900  0.33070  0.00390  Biso   1.000  H
  H48      1.0000 0.34100  0.66930  0.50390  Biso   1.000  H
  C37      1.0000 0.05530  0.81630  0.46910  Biso   1.000  C
  C38      1.0000 0.44470  0.18370  0.96910  Biso   1.000  C
  C39      1.0000 0.94470  0.31630  0.03090  Biso   1.000  C
  C40      1.0000 0.55530  0.68370  0.53090  Biso   1.000  C
  H49      1.0000 0.12480  0.77500  0.47420  Biso   1.000  H
  H50      1.0000 0.37520  0.22500  0.97420  Biso   1.000  H
  H51      1.0000 0.87520  0.27500  0.02580  Biso   1.000  H
  H52      1.0000 0.62480  0.72500  0.52580  Biso   1.000  H
  H53      1.0000 0.06150  0.91900  0.46670  Biso   1.000  H
  H54      1.0000 0.43850  0.08100  0.96670  Biso   1.000  H
  H55      1.0000 0.93850  0.41900  0.03330  Biso   1.000  H
  H56      1.0000 0.56150  0.58100  0.53330  Biso   1.000  H
  H57      1.0000 0.02210  0.78200  0.42090  Biso   1.000  H
  H58      1.0000 0.47790  0.21800  0.92090  Biso   1.000  H
  H59      1.0000 0.97790  0.28200  0.07910  Biso   1.000  H
  H60      1.0000 0.52210  0.71800  0.57910  Biso   1.000  H
  O17      1.0000 0.21420  0.12550  0.13950  Biso   1.000  O
  O18      1.0000 0.28580  0.87450  0.63950  Biso   1.000  O
  O19      1.0000 0.78580  0.62550  0.36050  Biso   1.000  O
  O20      1.0000 0.71420  0.37450  0.86050  Biso   1.000  O
  C41      1.0000 0.20990  0.99290  0.20110  Biso   1.000  C
  C42      1.0000 0.29010  0.00710  0.70110  Biso   1.000  C
  C43      1.0000 0.79010  0.49290  0.29890  Biso   1.000  C
  C44      1.0000 0.70990  0.50710  0.79890  Biso   1.000  C
  C45      1.0000 0.70660  0.98260  0.74540  Biso   1.000  C
  C46      1.0000 0.79340  0.01740  0.24540  Biso   1.000  C
  C47      1.0000 0.29340  0.48260  0.75460  Biso   1.000  C
  C48      1.0000 0.20660  0.51740  0.25460  Biso   1.000  C
  H61      1.0000 0.08230  0.80600  0.60920  Biso   1.000  H
  H62      1.0000 0.41770  0.19400  0.10920  Biso   1.000  H
  H63      1.0000 0.91770  0.30600  0.89080  Biso   1.000  H
  H64      1.0000 0.58230  0.69400  0.39080  Biso   1.000  H
  H65      1.0000 0.01060  0.87600  0.62080  Biso   1.000  H
  H66      1.0000 0.48940  0.12400  0.12080  Biso   1.000  H
  H67      1.0000 0.98940  0.37600  0.87920  Biso   1.000  H
  H68      1.0000 0.51060  0.62400  0.37920  Biso   1.000  H
  H69      1.0000 0.10640  0.43000  0.47300  Biso   1.000  H
  H70      1.0000 0.39360  0.57000  0.97300  Biso   1.000  H
  H71      1.0000 0.89360  0.93000  0.02700  Biso   1.000  H
  H72      1.0000 0.60640  0.07000  0.52700  Biso   1.000  H
