data_image0
_cell_length_a       9.483
_cell_length_b       13.8308
_cell_length_c       12.7221
_cell_angle_alpha    90
_cell_angle_beta     90
_cell_angle_gamma    90

_symmetry_space_group_name_H-M    "P 1"
_symmetry_int_tables_number       1

loop_
  _symmetry_equiv_pos_as_xyz
  'x, y, z'

loop_
  _atom_site_label
  _atom_site_occupancy
  _atom_site_fract_x
  _atom_site_fract_y
  _atom_site_fract_z
  _atom_site_thermal_displace_type
  _atom_site_B_iso_or_equiv
  _atom_site_type_symbol
  Cu1      1.0000 0.92898  0.44036  0.26591  Biso   1.000  Cu
  Cu2      1.0000 0.57102  0.55964  0.26591  Biso   1.000  Cu
  Cu3      1.0000 0.57102  0.94036  0.23409  Biso   1.000  Cu
  Cu4      1.0000 0.92898  0.05964  0.23409  Biso   1.000  Cu
  Cu5      1.0000 0.07102  0.55964  0.73409  Biso   1.000  Cu
  Cu6      1.0000 0.42898  0.44036  0.73409  Biso   1.000  Cu
  Cu7      1.0000 0.42898  0.05964  0.76591  Biso   1.000  Cu
  Cu8      1.0000 0.07102  0.94036  0.76591  Biso   1.000  Cu
  Cu9      1.0000 0.71067  0.25000  0.75000  Biso   1.000  Cu
  Cu10     1.0000 0.78933  0.75000  0.75000  Biso   1.000  Cu
  Cu11     1.0000 0.28933  0.75000  0.25000  Biso   1.000  Cu
  Cu12     1.0000 0.21067  0.25000  0.25000  Biso   1.000  Cu
  O1       1.0000 0.54460  0.16420  0.83050  Biso   1.000  O
  O2       1.0000 0.95540  0.83580  0.83050  Biso   1.000  O
  O3       1.0000 0.95540  0.66420  0.66950  Biso   1.000  O
  O4       1.0000 0.54460  0.33580  0.66950  Biso   1.000  O
  O5       1.0000 0.45540  0.83580  0.16950  Biso   1.000  O
  O6       1.0000 0.04460  0.16420  0.16950  Biso   1.000  O
  O7       1.0000 0.04460  0.33580  0.33050  Biso   1.000  O
  O8       1.0000 0.45540  0.66420  0.33050  Biso   1.000  O
  O9       1.0000 0.44990  0.14720  0.99000  Biso   1.000  O
  O10      1.0000 0.05010  0.85280  0.99000  Biso   1.000  O
  O11      1.0000 0.05010  0.64720  0.51000  Biso   1.000  O
  O12      1.0000 0.44990  0.35280  0.51000  Biso   1.000  O
  O13      1.0000 0.55010  0.85280  0.01000  Biso   1.000  O
  O14      1.0000 0.94990  0.14720  0.01000  Biso   1.000  O
  O15      1.0000 0.94990  0.35280  0.49000  Biso   1.000  O
  O16      1.0000 0.55010  0.64720  0.49000  Biso   1.000  O
  O17      1.0000 0.86160  0.37230  0.73440  Biso   1.000  O
  O18      1.0000 0.63840  0.62770  0.73440  Biso   1.000  O
  O19      1.0000 0.63840  0.87230  0.76560  Biso   1.000  O
  O20      1.0000 0.86160  0.12770  0.76560  Biso   1.000  O
  O21      1.0000 0.13840  0.62770  0.26560  Biso   1.000  O
  O22      1.0000 0.36160  0.37230  0.26560  Biso   1.000  O
  O23      1.0000 0.36160  0.12770  0.23440  Biso   1.000  O
  O24      1.0000 0.13840  0.87230  0.23440  Biso   1.000  O
  O25      1.0000 0.94880  0.49150  0.83570  Biso   1.000  O
  O26      1.0000 0.55120  0.50850  0.83570  Biso   1.000  O
  O27      1.0000 0.55120  0.99150  0.66430  Biso   1.000  O
  O28      1.0000 0.94880  0.00850  0.66430  Biso   1.000  O
  O29      1.0000 0.05120  0.50850  0.16430  Biso   1.000  O
  O30      1.0000 0.44880  0.49150  0.16430  Biso   1.000  O
  O31      1.0000 0.44880  0.00850  0.33570  Biso   1.000  O
  O32      1.0000 0.05120  0.99150  0.33570  Biso   1.000  O
  O33      1.0000 0.77220  0.37950  0.19910  Biso   1.000  O
  O34      1.0000 0.72780  0.62050  0.19910  Biso   1.000  O
  O35      1.0000 0.72780  0.87950  0.30090  Biso   1.000  O
  O36      1.0000 0.77220  0.12050  0.30090  Biso   1.000  O
  O37      1.0000 0.22780  0.62050  0.80090  Biso   1.000  O
  O38      1.0000 0.27220  0.37950  0.80090  Biso   1.000  O
  O39      1.0000 0.27220  0.12050  0.69910  Biso   1.000  O
  O40      1.0000 0.22780  0.87950  0.69910  Biso   1.000  O
  O41      1.0000 0.89020  0.53530  0.37460  Biso   1.000  O
  O42      1.0000 0.60980  0.46470  0.37460  Biso   1.000  O
  O43      1.0000 0.60980  0.03530  0.12540  Biso   1.000  O
  O44      1.0000 0.89020  0.96470  0.12540  Biso   1.000  O
  O45      1.0000 0.10980  0.46470  0.62540  Biso   1.000  O
  O46      1.0000 0.39020  0.53530  0.62540  Biso   1.000  O
  O47      1.0000 0.39020  0.96470  0.87460  Biso   1.000  O
  O48      1.0000 0.10980  0.03530  0.87460  Biso   1.000  O
  H1       1.0000 0.88800  0.52090  0.44020  Biso   1.000  H
  H2       1.0000 0.61200  0.47910  0.44020  Biso   1.000  H
  H3       1.0000 0.61200  0.02090  0.05980  Biso   1.000  H
  H4       1.0000 0.88800  0.97910  0.05980  Biso   1.000  H
  H5       1.0000 0.11200  0.47910  0.55980  Biso   1.000  H
  H6       1.0000 0.38800  0.52090  0.55980  Biso   1.000  H
  H7       1.0000 0.38800  0.97910  0.94020  Biso   1.000  H
  H8       1.0000 0.11200  0.02090  0.94020  Biso   1.000  H
  H9       1.0000 0.93100  0.58980  0.37400  Biso   1.000  H
  H10      1.0000 0.56900  0.41020  0.37400  Biso   1.000  H
  H11      1.0000 0.56900  0.08980  0.12600  Biso   1.000  H
  H12      1.0000 0.93100  0.91020  0.12600  Biso   1.000  H
  H13      1.0000 0.06900  0.41020  0.62600  Biso   1.000  H
  H14      1.0000 0.43100  0.58980  0.62600  Biso   1.000  H
  H15      1.0000 0.43100  0.91020  0.87400  Biso   1.000  H
  H16      1.0000 0.06900  0.08980  0.87400  Biso   1.000  H
  O49      1.0000 0.25000  0.50000  0.43370  Biso   1.000  O
  O50      1.0000 0.25000  0.00000  0.06630  Biso   1.000  O
  O51      1.0000 0.75000  0.50000  0.56630  Biso   1.000  O
  O52      1.0000 0.75000  0.00000  0.93370  Biso   1.000  O
  N1       1.0000 0.71710  0.30030  0.89090  Biso   1.000  N
  N2       1.0000 0.78290  0.69970  0.89090  Biso   1.000  N
  N3       1.0000 0.78290  0.80030  0.60910  Biso   1.000  N
  N4       1.0000 0.71710  0.19970  0.60910  Biso   1.000  N
  N5       1.0000 0.28290  0.69970  0.10910  Biso   1.000  N
  N6       1.0000 0.21710  0.30030  0.10910  Biso   1.000  N
  N7       1.0000 0.21710  0.19970  0.39090  Biso   1.000  N
  N8       1.0000 0.28290  0.80030  0.39090  Biso   1.000  N
  C1       1.0000 0.53590  0.18450  0.93000  Biso   1.000  C
  C2       1.0000 0.96410  0.81550  0.93000  Biso   1.000  C
  C3       1.0000 0.96410  0.68450  0.57000  Biso   1.000  C
  C4       1.0000 0.53590  0.31550  0.57000  Biso   1.000  C
  C5       1.0000 0.46410  0.81550  0.07000  Biso   1.000  C
  C6       1.0000 0.03590  0.18450  0.07000  Biso   1.000  C
  C7       1.0000 0.03590  0.31550  0.43000  Biso   1.000  C
  C8       1.0000 0.46410  0.68450  0.43000  Biso   1.000  C
  C9       1.0000 0.63870  0.26060  0.96810  Biso   1.000  C
  C10      1.0000 0.86130  0.73940  0.96810  Biso   1.000  C
  C11      1.0000 0.86130  0.76060  0.53190  Biso   1.000  C
  C12      1.0000 0.63870  0.23940  0.53190  Biso   1.000  C
  C13      1.0000 0.36130  0.73940  0.03190  Biso   1.000  C
  C14      1.0000 0.13870  0.26060  0.03190  Biso   1.000  C
  C15      1.0000 0.13870  0.23940  0.46810  Biso   1.000  C
  C16      1.0000 0.36130  0.76060  0.46810  Biso   1.000  C
  C17      1.0000 0.65390  0.28550  0.07250  Biso   1.000  C
  C18      1.0000 0.84610  0.71450  0.07250  Biso   1.000  C
  C19      1.0000 0.84610  0.78550  0.42750  Biso   1.000  C
  C20      1.0000 0.65390  0.21450  0.42750  Biso   1.000  C
  C21      1.0000 0.34610  0.71450  0.92750  Biso   1.000  C
  C22      1.0000 0.15390  0.28550  0.92750  Biso   1.000  C
  C23      1.0000 0.15390  0.21450  0.57250  Biso   1.000  C
  C24      1.0000 0.34610  0.78550  0.57250  Biso   1.000  C
  H17      1.0000 0.59800  0.25670  0.12370  Biso   1.000  H
  H18      1.0000 0.90200  0.74330  0.12370  Biso   1.000  H
  H19      1.0000 0.90200  0.75670  0.37630  Biso   1.000  H
  H20      1.0000 0.59800  0.24330  0.37630  Biso   1.000  H
  H21      1.0000 0.40200  0.74330  0.87630  Biso   1.000  H
  H22      1.0000 0.09800  0.25670  0.87630  Biso   1.000  H
  H23      1.0000 0.09800  0.24330  0.62370  Biso   1.000  H
  H24      1.0000 0.40200  0.75670  0.62370  Biso   1.000  H
  C25      1.0000 0.75500  0.35510  0.10030  Biso   1.000  C
  C26      1.0000 0.74500  0.64490  0.10030  Biso   1.000  C
  C27      1.0000 0.74500  0.85510  0.39970  Biso   1.000  C
  C28      1.0000 0.75500  0.14490  0.39970  Biso   1.000  C
  C29      1.0000 0.24500  0.64490  0.89970  Biso   1.000  C
  C30      1.0000 0.25500  0.35510  0.89970  Biso   1.000  C
  C31      1.0000 0.25500  0.14490  0.60030  Biso   1.000  C
  C32      1.0000 0.24500  0.85510  0.60030  Biso   1.000  C
  C33      1.0000 0.83050  0.40010  0.01750  Biso   1.000  C
  C34      1.0000 0.66950  0.59990  0.01750  Biso   1.000  C
  C35      1.0000 0.66950  0.90010  0.48250  Biso   1.000  C
  C36      1.0000 0.83050  0.09990  0.48250  Biso   1.000  C
  C37      1.0000 0.16950  0.59990  0.98250  Biso   1.000  C
  C38      1.0000 0.33050  0.40010  0.98250  Biso   1.000  C
  C39      1.0000 0.33050  0.09990  0.51750  Biso   1.000  C
  C40      1.0000 0.16950  0.90010  0.51750  Biso   1.000  C
  H25      1.0000 0.89420  0.44940  0.03210  Biso   1.000  H
  H26      1.0000 0.60580  0.55060  0.03210  Biso   1.000  H
  H27      1.0000 0.60580  0.94940  0.46790  Biso   1.000  H
  H28      1.0000 0.89420  0.05060  0.46790  Biso   1.000  H
  H29      1.0000 0.10580  0.55060  0.96790  Biso   1.000  H
  H30      1.0000 0.39420  0.44940  0.96790  Biso   1.000  H
  H31      1.0000 0.39420  0.05060  0.53210  Biso   1.000  H
  H32      1.0000 0.10580  0.94940  0.53210  Biso   1.000  H
  C41      1.0000 0.80890  0.37030  0.91450  Biso   1.000  C
  C42      1.0000 0.69110  0.62970  0.91450  Biso   1.000  C
  C43      1.0000 0.69110  0.87030  0.58550  Biso   1.000  C
  C44      1.0000 0.80890  0.12970  0.58550  Biso   1.000  C
  C45      1.0000 0.19110  0.62970  0.08550  Biso   1.000  C
  C46      1.0000 0.30890  0.37030  0.08550  Biso   1.000  C
  C47      1.0000 0.30890  0.12970  0.41450  Biso   1.000  C
  C48      1.0000 0.19110  0.87030  0.41450  Biso   1.000  C
  C49      1.0000 0.87990  0.41370  0.82140  Biso   1.000  C
  C50      1.0000 0.62010  0.58630  0.82140  Biso   1.000  C
  C51      1.0000 0.62010  0.91370  0.67860  Biso   1.000  C
  C52      1.0000 0.87990  0.08630  0.67860  Biso   1.000  C
  C53      1.0000 0.12010  0.58630  0.17860  Biso   1.000  C
  C54      1.0000 0.37990  0.41370  0.17860  Biso   1.000  C
  C55      1.0000 0.37990  0.08630  0.32140  Biso   1.000  C
  C56      1.0000 0.12010  0.91370  0.32140  Biso   1.000  C
