data_image0
_cell_length_a       12.0344
_cell_length_b       7.6276
_cell_length_c       17.5964
_cell_angle_alpha    90
_cell_angle_beta     101.731
_cell_angle_gamma    90

_symmetry_space_group_name_H-M    "P 1"
_symmetry_int_tables_number       1

loop_
  _symmetry_equiv_pos_as_xyz
  'x, y, z'

loop_
  _atom_site_label
  _atom_site_occupancy
  _atom_site_fract_x
  _atom_site_fract_y
  _atom_site_fract_z
  _atom_site_thermal_displace_type
  _atom_site_B_iso_or_equiv
  _atom_site_type_symbol
  Ag1      1.0000 0.27462  0.03168  0.71400  Biso   1.000  Ag
  Ag2      1.0000 0.72538  0.03168  0.78600  Biso   1.000  Ag
  Ag3      1.0000 0.77462  0.53168  0.71400  Biso   1.000  Ag
  Ag4      1.0000 0.22538  0.53168  0.78600  Biso   1.000  Ag
  Ag5      1.0000 0.72538  0.96832  0.28600  Biso   1.000  Ag
  Ag6      1.0000 0.27462  0.96832  0.21400  Biso   1.000  Ag
  Ag7      1.0000 0.22538  0.46832  0.28600  Biso   1.000  Ag
  Ag8      1.0000 0.77462  0.46832  0.21400  Biso   1.000  Ag
  Cu1      1.0000 0.50000  0.59649  0.75000  Biso   1.000  Cu
  Cu2      1.0000 0.00000  0.09649  0.75000  Biso   1.000  Cu
  Cu3      1.0000 0.50000  0.40351  0.25000  Biso   1.000  Cu
  Cu4      1.0000 0.00000  0.90351  0.25000  Biso   1.000  Cu
  O1       1.0000 0.39060  0.80740  0.77794  Biso   1.000  O
  O2       1.0000 0.60940  0.80740  0.72206  Biso   1.000  O
  O3       1.0000 0.89060  0.30740  0.77794  Biso   1.000  O
  O4       1.0000 0.10940  0.30740  0.72206  Biso   1.000  O
  O5       1.0000 0.60940  0.19260  0.22206  Biso   1.000  O
  O6       1.0000 0.39060  0.19260  0.27794  Biso   1.000  O
  O7       1.0000 0.10940  0.69260  0.22206  Biso   1.000  O
  O8       1.0000 0.89060  0.69260  0.27794  Biso   1.000  O
  O9       1.0000 0.39740  0.00450  0.87150  Biso   1.000  O
  O10      1.0000 0.60260  0.00450  0.62850  Biso   1.000  O
  O11      1.0000 0.89740  0.50450  0.87150  Biso   1.000  O
  O12      1.0000 0.10260  0.50450  0.62850  Biso   1.000  O
  O13      1.0000 0.60260  0.99550  0.12850  Biso   1.000  O
  O14      1.0000 0.39740  0.99550  0.37150  Biso   1.000  O
  O15      1.0000 0.10260  0.49550  0.12850  Biso   1.000  O
  O16      1.0000 0.89740  0.49550  0.37150  Biso   1.000  O
  O17      1.0000 0.62720  0.38370  0.77630  Biso   1.000  O
  O18      1.0000 0.37280  0.38370  0.72370  Biso   1.000  O
  O19      1.0000 0.12720  0.88370  0.77630  Biso   1.000  O
  O20      1.0000 0.87280  0.88370  0.72370  Biso   1.000  O
  O21      1.0000 0.37280  0.61630  0.22370  Biso   1.000  O
  O22      1.0000 0.62720  0.61630  0.27630  Biso   1.000  O
  O23      1.0000 0.87280  0.11630  0.22370  Biso   1.000  O
  O24      1.0000 0.12720  0.11630  0.27630  Biso   1.000  O
  O25      1.0000 0.69940  0.22100  0.88030  Biso   1.000  O
  O26      1.0000 0.30060  0.22100  0.61970  Biso   1.000  O
  O27      1.0000 0.19940  0.72100  0.88030  Biso   1.000  O
  O28      1.0000 0.80060  0.72100  0.61970  Biso   1.000  O
  O29      1.0000 0.30060  0.77900  0.11970  Biso   1.000  O
  O30      1.0000 0.69940  0.77900  0.38030  Biso   1.000  O
  O31      1.0000 0.80060  0.27900  0.11970  Biso   1.000  O
  O32      1.0000 0.19940  0.27900  0.38030  Biso   1.000  O
  O33      1.0000 0.66440  0.66790  0.09550  Biso   1.000  O
  O34      1.0000 0.33560  0.66790  0.40450  Biso   1.000  O
  O35      1.0000 0.16440  0.16790  0.09550  Biso   1.000  O
  O36      1.0000 0.83560  0.16790  0.40450  Biso   1.000  O
  O37      1.0000 0.33560  0.33210  0.90450  Biso   1.000  O
  O38      1.0000 0.66440  0.33210  0.59550  Biso   1.000  O
  O39      1.0000 0.83560  0.83210  0.90450  Biso   1.000  O
  O40      1.0000 0.16440  0.83210  0.59550  Biso   1.000  O
  H1       1.0000 0.64860  0.76560  0.10960  Biso   1.000  H
  H2       1.0000 0.35140  0.76560  0.39040  Biso   1.000  H
  H3       1.0000 0.14860  0.26560  0.10960  Biso   1.000  H
  H4       1.0000 0.85140  0.26560  0.39040  Biso   1.000  H
  H5       1.0000 0.35140  0.23440  0.89040  Biso   1.000  H
  H6       1.0000 0.64860  0.23440  0.60960  Biso   1.000  H
  H7       1.0000 0.85140  0.73440  0.89040  Biso   1.000  H
  H8       1.0000 0.14860  0.73440  0.60960  Biso   1.000  H
  N1       1.0000 0.54580  0.61030  0.86170  Biso   1.000  N
  N2       1.0000 0.45420  0.61030  0.63830  Biso   1.000  N
  N3       1.0000 0.04580  0.11030  0.86170  Biso   1.000  N
  N4       1.0000 0.95420  0.11030  0.63830  Biso   1.000  N
  N5       1.0000 0.45420  0.38970  0.13830  Biso   1.000  N
  N6       1.0000 0.54580  0.38970  0.36170  Biso   1.000  N
  N7       1.0000 0.95420  0.88970  0.13830  Biso   1.000  N
  N8       1.0000 0.04580  0.88970  0.36170  Biso   1.000  N
  C1       1.0000 0.50810  0.74690  0.89750  Biso   1.000  C
  C2       1.0000 0.49190  0.74690  0.60250  Biso   1.000  C
  C3       1.0000 0.00810  0.24690  0.89750  Biso   1.000  C
  C4       1.0000 0.99190  0.24690  0.60250  Biso   1.000  C
  C5       1.0000 0.49190  0.25310  0.10250  Biso   1.000  C
  C6       1.0000 0.50810  0.25310  0.39750  Biso   1.000  C
  C7       1.0000 0.99190  0.75310  0.10250  Biso   1.000  C
  C8       1.0000 0.00810  0.75310  0.39750  Biso   1.000  C
  C9       1.0000 0.54430  0.76890  0.97730  Biso   1.000  C
  C10      1.0000 0.45570  0.76890  0.52270  Biso   1.000  C
  C11      1.0000 0.04430  0.26890  0.97730  Biso   1.000  C
  C12      1.0000 0.95570  0.26890  0.52270  Biso   1.000  C
  C13      1.0000 0.45570  0.23110  0.02270  Biso   1.000  C
  C14      1.0000 0.54430  0.23110  0.47730  Biso   1.000  C
  C15      1.0000 0.95570  0.73110  0.02270  Biso   1.000  C
  C16      1.0000 0.04430  0.73110  0.47730  Biso   1.000  C
  H9       1.0000 0.51690  0.86100  0.00290  Biso   1.000  H
  H10      1.0000 0.48310  0.86100  0.49710  Biso   1.000  H
  H11      1.0000 0.01690  0.36100  0.00290  Biso   1.000  H
  H12      1.0000 0.98310  0.36100  0.49710  Biso   1.000  H
  H13      1.0000 0.48310  0.13900  0.99710  Biso   1.000  H
  H14      1.0000 0.51690  0.13900  0.50290  Biso   1.000  H
  H15      1.0000 0.98310  0.63900  0.99710  Biso   1.000  H
  H16      1.0000 0.01690  0.63900  0.50290  Biso   1.000  H
  C17      1.0000 0.62250  0.65010  0.01810  Biso   1.000  C
  C18      1.0000 0.37750  0.65010  0.48190  Biso   1.000  C
  C19      1.0000 0.12250  0.15010  0.01810  Biso   1.000  C
  C20      1.0000 0.87750  0.15010  0.48190  Biso   1.000  C
  C21      1.0000 0.37750  0.34990  0.98190  Biso   1.000  C
  C22      1.0000 0.62250  0.34990  0.51810  Biso   1.000  C
  C23      1.0000 0.87750  0.84990  0.98190  Biso   1.000  C
  C24      1.0000 0.12250  0.84990  0.51810  Biso   1.000  C
  C25      1.0000 0.66110  0.51080  0.97920  Biso   1.000  C
  C26      1.0000 0.33890  0.51080  0.52080  Biso   1.000  C
  C27      1.0000 0.16110  0.01080  0.97920  Biso   1.000  C
  C28      1.0000 0.83890  0.01080  0.52080  Biso   1.000  C
  C29      1.0000 0.33890  0.48920  0.02080  Biso   1.000  C
  C30      1.0000 0.66110  0.48920  0.47920  Biso   1.000  C
  C31      1.0000 0.83890  0.98920  0.02080  Biso   1.000  C
  C32      1.0000 0.16110  0.98920  0.47920  Biso   1.000  C
  H17      1.0000 0.71260  0.42970  0.00560  Biso   1.000  H
  H18      1.0000 0.28740  0.42970  0.49440  Biso   1.000  H
  H19      1.0000 0.21260  0.92970  0.00560  Biso   1.000  H
  H20      1.0000 0.78740  0.92970  0.49440  Biso   1.000  H
  H21      1.0000 0.28740  0.57030  0.99440  Biso   1.000  H
  H22      1.0000 0.71260  0.57030  0.50560  Biso   1.000  H
  H23      1.0000 0.78740  0.07030  0.99440  Biso   1.000  H
  H24      1.0000 0.21260  0.07030  0.50560  Biso   1.000  H
  C33      1.0000 0.62070  0.49710  0.90050  Biso   1.000  C
  C34      1.0000 0.37930  0.49710  0.59950  Biso   1.000  C
  C35      1.0000 0.12070  0.99710  0.90050  Biso   1.000  C
  C36      1.0000 0.87930  0.99710  0.59950  Biso   1.000  C
  C37      1.0000 0.37930  0.50290  0.09950  Biso   1.000  C
  C38      1.0000 0.62070  0.50290  0.40050  Biso   1.000  C
  C39      1.0000 0.87930  0.00290  0.09950  Biso   1.000  C
  C40      1.0000 0.12070  0.00290  0.40050  Biso   1.000  C
  C41      1.0000 0.42480  0.86710  0.84640  Biso   1.000  C
  C42      1.0000 0.57520  0.86710  0.65360  Biso   1.000  C
  C43      1.0000 0.92480  0.36710  0.84640  Biso   1.000  C
  C44      1.0000 0.07520  0.36710  0.65360  Biso   1.000  C
  C45      1.0000 0.57520  0.13290  0.15360  Biso   1.000  C
  C46      1.0000 0.42480  0.13290  0.34640  Biso   1.000  C
  C47      1.0000 0.07520  0.63290  0.15360  Biso   1.000  C
  C48      1.0000 0.92480  0.63290  0.34640  Biso   1.000  C
  C49      1.0000 0.65240  0.35520  0.84920  Biso   1.000  C
  C50      1.0000 0.34760  0.35520  0.65080  Biso   1.000  C
  C51      1.0000 0.15240  0.85520  0.84920  Biso   1.000  C
  C52      1.0000 0.84760  0.85520  0.65080  Biso   1.000  C
  C53      1.0000 0.34760  0.64480  0.15080  Biso   1.000  C
  C54      1.0000 0.65240  0.64480  0.34920  Biso   1.000  C
  C55      1.0000 0.84760  0.14480  0.15080  Biso   1.000  C
  C56      1.0000 0.15240  0.14480  0.34920  Biso   1.000  C
