data_image0
_cell_length_a       8.6678
_cell_length_b       10.2623
_cell_length_c       13.8748
_cell_angle_alpha    96.872
_cell_angle_beta     99.419
_cell_angle_gamma    99.748

_symmetry_space_group_name_H-M    "P 1"
_symmetry_int_tables_number       1

loop_
  _symmetry_equiv_pos_as_xyz
  'x, y, z'

loop_
  _atom_site_label
  _atom_site_occupancy
  _atom_site_fract_x
  _atom_site_fract_y
  _atom_site_fract_z
  _atom_site_thermal_displace_type
  _atom_site_B_iso_or_equiv
  _atom_site_type_symbol
  Eu1      1.0000 0.24242  0.75078  0.49688  Biso   1.000  Eu
  Eu2      1.0000 0.75758  0.24922  0.50312  Biso   1.000  Eu
  O1       1.0000 0.51580  0.83320  0.49530  Biso   1.000  O
  O2       1.0000 0.48420  0.16680  0.50470  Biso   1.000  O
  O3       1.0000 0.70290  0.01330  0.49870  Biso   1.000  O
  O4       1.0000 0.29710  0.98670  0.50130  Biso   1.000  O
  O5       1.0000 0.01910  0.59620  0.40550  Biso   1.000  O
  O6       1.0000 0.98090  0.40380  0.59450  Biso   1.000  O
  O7       1.0000 0.84280  0.41130  0.40860  Biso   1.000  O
  O8       1.0000 0.15720  0.58870  0.59140  Biso   1.000  O
  O9       1.0000 0.35630  0.81550  0.66150  Biso   1.000  O
  O10      1.0000 0.64370  0.18450  0.33850  Biso   1.000  O
  H1       1.0000 0.42580  0.88650  0.68600  Biso   1.000  H
  H2       1.0000 0.57420  0.11350  0.31400  Biso   1.000  H
  H3       1.0000 0.31440  0.78670  0.70890  Biso   1.000  H
  H4       1.0000 0.68560  0.21330  0.29110  Biso   1.000  H
  O11      1.0000 0.02710  0.83930  0.53700  Biso   1.000  O
  O12      1.0000 0.97290  0.16070  0.46300  Biso   1.000  O
  H5       1.0000 0.05230  0.90940  0.58020  Biso   1.000  H
  H6       1.0000 0.94770  0.09060  0.41980  Biso   1.000  H
  H7       1.0000 0.93570  0.79650  0.54060  Biso   1.000  H
  H8       1.0000 0.06430  0.20350  0.45940  Biso   1.000  H
  O13      1.0000 0.21690  0.77620  0.33220  Biso   1.000  O
  O14      1.0000 0.78310  0.22380  0.66780  Biso   1.000  O
  H9       1.0000 0.18500  0.71190  0.28390  Biso   1.000  H
  H10      1.0000 0.81500  0.28810  0.71610  Biso   1.000  H
  H11      1.0000 0.28050  0.83780  0.31430  Biso   1.000  H
  H12      1.0000 0.71950  0.16220  0.68570  Biso   1.000  H
  O15      1.0000 0.36750  0.57720  0.44670  Biso   1.000  O
  O16      1.0000 0.63250  0.42280  0.55330  Biso   1.000  O
  H13      1.0000 0.33220  0.49300  0.43770  Biso   1.000  H
  H14      1.0000 0.66780  0.50700  0.56230  Biso   1.000  H
  H15      1.0000 0.43870  0.59370  0.41140  Biso   1.000  H
  H16      1.0000 0.56130  0.40630  0.58860  Biso   1.000  H
  C1       1.0000 0.56410  0.95600  0.49860  Biso   1.000  C
  C2       1.0000 0.43590  0.04400  0.50140  Biso   1.000  C
  C3       1.0000 0.96000  0.50250  0.44600  Biso   1.000  C
  C4       1.0000 0.04000  0.49750  0.55400  Biso   1.000  C
  Br1      1.0000 0.63183  0.80238  0.94356  Biso   1.000  Br
  Br2      1.0000 0.36817  0.19762  0.05644  Biso   1.000  Br
  Cu1      1.0000 0.86112  0.70250  0.05288  Biso   1.000  Cu
  Cu2      1.0000 0.13888  0.29750  0.94712  Biso   1.000  Cu
  O17      1.0000 0.80760  0.52410  0.97320  Biso   1.000  O
  O18      1.0000 0.19240  0.47590  0.02680  Biso   1.000  O
  O19      1.0000 0.85630  0.41100  0.83910  Biso   1.000  O
  O20      1.0000 0.14370  0.58900  0.16090  Biso   1.000  O
  O21      1.0000 0.95090  0.86400  0.14730  Biso   1.000  O
  O22      1.0000 0.04910  0.13600  0.85270  Biso   1.000  O
  O23      1.0000 0.92540  0.96950  0.29170  Biso   1.000  O
  O24      1.0000 0.07460  0.03050  0.70830  Biso   1.000  O
  N1       1.0000 0.01420  0.73760  0.96250  Biso   1.000  N
  N2       1.0000 0.98580  0.26240  0.03750  Biso   1.000  N
  N3       1.0000 0.18930  0.75290  0.81290  Biso   1.000  N
  N4       1.0000 0.81070  0.24710  0.18710  Biso   1.000  N
  N5       1.0000 0.74410  0.65120  0.15870  Biso   1.000  N
  N6       1.0000 0.25590  0.34880  0.84130  Biso   1.000  N
  N7       1.0000 0.59390  0.62460  0.31860  Biso   1.000  N
  N8       1.0000 0.40610  0.37540  0.68140  Biso   1.000  N
  C5       1.0000 0.87630  0.51260  0.89860  Biso   1.000  C
  C6       1.0000 0.12370  0.48740  0.10140  Biso   1.000  C
  C7       1.0000 0.99410  0.63460  0.88930  Biso   1.000  C
  C8       1.0000 0.00590  0.36540  0.11070  Biso   1.000  C
  C9       1.0000 0.07940  0.64300  0.81380  Biso   1.000  C
  C10      1.0000 0.92060  0.35700  0.18620  Biso   1.000  C
  H17      1.0000 0.06080  0.57160  0.76260  Biso   1.000  H
  H18      1.0000 0.93920  0.42840  0.23740  Biso   1.000  H
  C11      1.0000 0.20990  0.85250  0.88790  Biso   1.000  C
  C12      1.0000 0.79010  0.14750  0.11210  Biso   1.000  C
  H19      1.0000 0.28700  0.92850  0.89050  Biso   1.000  H
  H20      1.0000 0.71300  0.07150  0.10950  Biso   1.000  H
  C13      1.0000 0.12060  0.84680  0.96210  Biso   1.000  C
  C14      1.0000 0.87940  0.15320  0.03790  Biso   1.000  C
  H21      1.0000 0.13530  0.91970  0.01170  Biso   1.000  H
  H22      1.0000 0.86470  0.08030  0.98830  Biso   1.000  H
  C15      1.0000 0.89280  0.87130  0.22690  Biso   1.000  C
  C16      1.0000 0.10720  0.12870  0.77310  Biso   1.000  C
  C17      1.0000 0.77580  0.74910  0.23630  Biso   1.000  C
  C18      1.0000 0.22420  0.25090  0.76370  Biso   1.000  C
  C19      1.0000 0.69980  0.73610  0.31620  Biso   1.000  C
  C20      1.0000 0.30020  0.26390  0.68380  Biso   1.000  C
  H23      1.0000 0.72230  0.80560  0.36900  Biso   1.000  H
  H24      1.0000 0.27770  0.19440  0.63100  Biso   1.000  H
  C21      1.0000 0.56600  0.52820  0.24140  Biso   1.000  C
  C22      1.0000 0.43400  0.47180  0.75860  Biso   1.000  C
  H25      1.0000 0.49470  0.44960  0.24170  Biso   1.000  H
  H26      1.0000 0.50530  0.55040  0.75830  Biso   1.000  H
  C23      1.0000 0.64010  0.54030  0.15940  Biso   1.000  C
  C24      1.0000 0.35990  0.45970  0.84060  Biso   1.000  C
  H27      1.0000 0.61660  0.47150  0.10610  Biso   1.000  H
  H28      1.0000 0.38340  0.52850  0.89390  Biso   1.000  H
  O25      1.0000 0.59610  0.02820  0.73450  Biso   1.000  O
  O26      1.0000 0.40390  0.97180  0.26550  Biso   1.000  O
  H29      1.0000 0.53650  0.05900  0.69130  Biso   1.000  H
  H30      1.0000 0.46350  0.94100  0.30870  Biso   1.000  H
  H31      1.0000 0.58260  0.05950  0.79180  Biso   1.000  H
  H32      1.0000 0.41740  0.94050  0.20820  Biso   1.000  H
  O27      1.0000 0.81400  0.85440  0.75730  Biso   1.000  O
  O28      1.0000 0.18600  0.14560  0.24270  Biso   1.000  O
  H33      1.0000 0.90530  0.89670  0.75330  Biso   1.000  H
  H34      1.0000 0.09470  0.10330  0.24670  Biso   1.000  H
  H35      1.0000 0.80650  0.85520  0.81780  Biso   1.000  H
  H36      1.0000 0.19350  0.14480  0.18220  Biso   1.000  H
  O29      1.0000 0.74830  0.69390  0.57600  Biso   1.000  O
  O30      1.0000 0.25170  0.30610  0.42400  Biso   1.000  O
  H37      1.0000 0.68200  0.73260  0.54360  Biso   1.000  H
  H38      1.0000 0.31800  0.26740  0.45640  Biso   1.000  H
  H39      1.0000 0.76870  0.72910  0.63670  Biso   1.000  H
  H40      1.0000 0.23130  0.27090  0.36330  Biso   1.000  H
  O31      1.0000 0.58870  0.22010  0.88150  Biso   1.000  O
  O32      1.0000 0.41130  0.77990  0.11850  Biso   1.000  O
  H41      1.0000 0.64900  0.29910  0.89830  Biso   1.000  H
  H42      1.0000 0.35100  0.70090  0.10170  Biso   1.000  H
  H43      1.0000 0.53350  0.22750  0.94070  Biso   1.000  H
  H44      1.0000 0.46650  0.77250  0.05930  Biso   1.000  H
