data_image0
_cell_length_a       16.583
_cell_length_b       13.153
_cell_length_c       34.538
_cell_angle_alpha    90
_cell_angle_beta     90
_cell_angle_gamma    90

_symmetry_space_group_name_H-M    "P 1"
_symmetry_int_tables_number       1

loop_
  _symmetry_equiv_pos_as_xyz
  'x, y, z'

loop_
  _atom_site_label
  _atom_site_occupancy
  _atom_site_fract_x
  _atom_site_fract_y
  _atom_site_fract_z
  _atom_site_thermal_displace_type
  _atom_site_B_iso_or_equiv
  _atom_site_type_symbol
  Cu1      1.0000 0.94692  0.76451  0.79294  Biso   1.000  Cu
  Cu2      1.0000 0.05308  0.23549  0.29294  Biso   1.000  Cu
  Cu3      1.0000 0.44692  0.23549  0.79294  Biso   1.000  Cu
  Cu4      1.0000 0.55308  0.76451  0.29294  Biso   1.000  Cu
  Cu5      1.0000 0.14221  0.72960  0.77158  Biso   1.000  Cu
  Cu6      1.0000 0.85779  0.27040  0.27158  Biso   1.000  Cu
  Cu7      1.0000 0.64221  0.27040  0.77158  Biso   1.000  Cu
  Cu8      1.0000 0.35779  0.72960  0.27158  Biso   1.000  Cu
  Cu9      1.0000 0.03808  0.89616  0.72332  Biso   1.000  Cu
  Cu10     1.0000 0.96192  0.10384  0.22332  Biso   1.000  Cu
  Cu11     1.0000 0.53808  0.10384  0.72332  Biso   1.000  Cu
  Cu12     1.0000 0.46192  0.89616  0.22332  Biso   1.000  Cu
  Cu13     1.0000 0.43064  0.76321  0.99643  Biso   1.000  Cu
  Cu14     1.0000 0.56936  0.23679  0.49643  Biso   1.000  Cu
  Cu15     1.0000 0.93064  0.23679  0.99643  Biso   1.000  Cu
  Cu16     1.0000 0.06936  0.76321  0.49643  Biso   1.000  Cu
  Cu17     1.0000 0.35504  0.61903  0.06695  Biso   1.000  Cu
  Cu18     1.0000 0.64496  0.38097  0.56695  Biso   1.000  Cu
  Cu19     1.0000 0.85504  0.38097  0.06695  Biso   1.000  Cu
  Cu20     1.0000 0.14496  0.61903  0.56695  Biso   1.000  Cu
  Cu21     1.0000 0.23122  0.75746  0.01452  Biso   1.000  Cu
  Cu22     1.0000 0.76878  0.24254  0.51452  Biso   1.000  Cu
  Cu23     1.0000 0.73122  0.24254  0.01452  Biso   1.000  Cu
  Cu24     1.0000 0.26878  0.75746  0.51452  Biso   1.000  Cu
  N1       1.0000 0.89150  0.86890  0.76630  Biso   1.000  N
  N2       1.0000 0.10850  0.13110  0.26630  Biso   1.000  N
  N3       1.0000 0.39150  0.13110  0.76630  Biso   1.000  N
  N4       1.0000 0.60850  0.86890  0.26630  Biso   1.000  N
  N5       1.0000 0.92910  0.92160  0.73740  Biso   1.000  N
  N6       1.0000 0.07090  0.07840  0.23740  Biso   1.000  N
  N7       1.0000 0.42910  0.07840  0.73740  Biso   1.000  N
  N8       1.0000 0.57090  0.92160  0.23740  Biso   1.000  N
  N9       1.0000 0.13630  0.84940  0.70330  Biso   1.000  N
  N10      1.0000 0.86370  0.15060  0.20330  Biso   1.000  N
  N11      1.0000 0.63630  0.15060  0.70330  Biso   1.000  N
  N12      1.0000 0.36370  0.84940  0.20330  Biso   1.000  N
  N13      1.0000 0.17950  0.77630  0.72090  Biso   1.000  N
  N14      1.0000 0.82050  0.22370  0.22090  Biso   1.000  N
  N15      1.0000 0.67950  0.22370  0.72090  Biso   1.000  N
  N16      1.0000 0.32050  0.77630  0.22090  Biso   1.000  N
  N17      1.0000 0.09640  0.67460  0.81780  Biso   1.000  N
  N18      1.0000 0.90360  0.32540  0.31780  Biso   1.000  N
  N19      1.0000 0.59640  0.32540  0.81780  Biso   1.000  N
  N20      1.0000 0.40360  0.67460  0.31780  Biso   1.000  N
  N21      1.0000 0.01540  0.67210  0.82460  Biso   1.000  N
  N22      1.0000 0.98460  0.32790  0.32460  Biso   1.000  N
  N23      1.0000 0.51540  0.32790  0.82460  Biso   1.000  N
  N24      1.0000 0.48460  0.67210  0.32460  Biso   1.000  N
  N25      1.0000 0.04850  0.02890  0.69500  Biso   1.000  N
  N26      1.0000 0.95150  0.97110  0.19500  Biso   1.000  N
  N27      1.0000 0.54850  0.97110  0.69500  Biso   1.000  N
  N28      1.0000 0.45150  0.02890  0.19500  Biso   1.000  N
  N29      1.0000 0.49960  0.67270  0.02630  Biso   1.000  N
  N30      1.0000 0.50040  0.32730  0.52630  Biso   1.000  N
  N31      1.0000 0.99960  0.32730  0.02630  Biso   1.000  N
  N32      1.0000 0.00040  0.67270  0.52630  Biso   1.000  N
  N33      1.0000 0.46940  0.61020  0.05290  Biso   1.000  N
  N34      1.0000 0.53060  0.38980  0.55290  Biso   1.000  N
  N35      1.0000 0.96940  0.38980  0.05290  Biso   1.000  N
  N36      1.0000 0.03060  0.61020  0.55290  Biso   1.000  N
  N37      1.0000 0.24320  0.63720  0.08410  Biso   1.000  N
  N38      1.0000 0.75680  0.36280  0.58410  Biso   1.000  N
  N39      1.0000 0.74320  0.36280  0.08410  Biso   1.000  N
  N40      1.0000 0.25680  0.63720  0.58410  Biso   1.000  N
  N41      1.0000 0.19560  0.69780  0.06370  Biso   1.000  N
  N42      1.0000 0.80440  0.30220  0.56370  Biso   1.000  N
  N43      1.0000 0.69560  0.30220  0.06370  Biso   1.000  N
  N44      1.0000 0.30440  0.69780  0.56370  Biso   1.000  N
  N45      1.0000 0.27630  0.82370  0.96870  Biso   1.000  N
  N46      1.0000 0.72370  0.17630  0.46870  Biso   1.000  N
  N47      1.0000 0.77630  0.17630  0.96870  Biso   1.000  N
  N48      1.0000 0.22370  0.82370  0.46870  Biso   1.000  N
  N49      1.0000 0.35650  0.83300  0.96580  Biso   1.000  N
  N50      1.0000 0.64350  0.16700  0.46580  Biso   1.000  N
  N51      1.0000 0.85650  0.16700  0.96580  Biso   1.000  N
  N52      1.0000 0.14350  0.83300  0.46580  Biso   1.000  N
  N53      1.0000 0.13210  0.48890  0.59720  Biso   1.000  N
  N54      1.0000 0.86790  0.51110  0.09720  Biso   1.000  N
  N55      1.0000 0.63210  0.51110  0.59720  Biso   1.000  N
  N56      1.0000 0.36790  0.48890  0.09720  Biso   1.000  N
  C1       1.0000 0.87390  0.99300  0.72710  Biso   1.000  C
  C2       1.0000 0.12610  0.00700  0.22710  Biso   1.000  C
  C3       1.0000 0.37390  0.00700  0.72710  Biso   1.000  C
  C4       1.0000 0.62610  0.99300  0.22710  Biso   1.000  C
  H1       1.0000 0.88490  0.04260  0.70860  Biso   1.000  H
  H2       1.0000 0.11510  0.95740  0.20860  Biso   1.000  H
  H3       1.0000 0.38490  0.95740  0.70860  Biso   1.000  H
  H4       1.0000 0.61510  0.04260  0.20860  Biso   1.000  H
  C5       1.0000 0.80710  0.98800  0.74410  Biso   1.000  C
  C6       1.0000 0.19290  0.01200  0.24410  Biso   1.000  C
  C7       1.0000 0.30710  0.01200  0.74410  Biso   1.000  C
  C8       1.0000 0.69290  0.98800  0.24410  Biso   1.000  C
  H5       1.0000 0.76180  0.02840  0.74050  Biso   1.000  H
  H6       1.0000 0.23820  0.97160  0.24050  Biso   1.000  H
  H7       1.0000 0.26180  0.97160  0.74050  Biso   1.000  H
  H8       1.0000 0.73820  0.02840  0.24050  Biso   1.000  H
  C9       1.0000 0.81690  0.90800  0.76930  Biso   1.000  C
  C10      1.0000 0.18310  0.09200  0.26930  Biso   1.000  C
  C11      1.0000 0.31690  0.09200  0.76930  Biso   1.000  C
  C12      1.0000 0.68310  0.90800  0.26930  Biso   1.000  C
  H9       1.0000 0.77740  0.88420  0.78620  Biso   1.000  H
  H10      1.0000 0.22260  0.11580  0.28620  Biso   1.000  H
  H11      1.0000 0.27740  0.11580  0.78620  Biso   1.000  H
  H12      1.0000 0.72260  0.88420  0.28620  Biso   1.000  H
  C13      1.0000 0.24730  0.75800  0.70200  Biso   1.000  C
  C14      1.0000 0.75270  0.24200  0.20200  Biso   1.000  C
  C15      1.0000 0.74730  0.24200  0.70200  Biso   1.000  C
  C16      1.0000 0.25270  0.75800  0.20200  Biso   1.000  C
  H13      1.0000 0.28740  0.71300  0.70980  Biso   1.000  H
  H14      1.0000 0.71260  0.28700  0.20980  Biso   1.000  H
  H15      1.0000 0.78740  0.28700  0.70980  Biso   1.000  H
  H16      1.0000 0.21260  0.71300  0.20980  Biso   1.000  H
  C17      1.0000 0.24900  0.81030  0.67220  Biso   1.000  C
  C18      1.0000 0.75100  0.18970  0.17220  Biso   1.000  C
  C19      1.0000 0.74900  0.18970  0.67220  Biso   1.000  C
  C20      1.0000 0.25100  0.81030  0.17220  Biso   1.000  C
  H17      1.0000 0.28880  0.80870  0.65320  Biso   1.000  H
  H18      1.0000 0.71120  0.19130  0.15320  Biso   1.000  H
  H19      1.0000 0.78880  0.19130  0.65320  Biso   1.000  H
  H20      1.0000 0.21120  0.80870  0.15320  Biso   1.000  H
  C21      1.0000 0.18110  0.87140  0.67210  Biso   1.000  C
  C22      1.0000 0.81890  0.12860  0.17210  Biso   1.000  C
  C23      1.0000 0.68110  0.12860  0.67210  Biso   1.000  C
  C24      1.0000 0.31890  0.87140  0.17210  Biso   1.000  C
  H21      1.0000 0.16850  0.91980  0.65340  Biso   1.000  H
  H22      1.0000 0.83150  0.08020  0.15340  Biso   1.000  H
  H23      1.0000 0.66850  0.08020  0.65340  Biso   1.000  H
  H24      1.0000 0.33150  0.91980  0.15340  Biso   1.000  H
  C25      1.0000 0.02770  0.04190  0.65820  Biso   1.000  C
  C26      1.0000 0.97230  0.95810  0.15820  Biso   1.000  C
  C27      1.0000 0.52770  0.95810  0.65820  Biso   1.000  C
  C28      1.0000 0.47230  0.04190  0.15820  Biso   1.000  C
  H25      1.0000 0.00130  0.99030  0.64480  Biso   1.000  H
  H26      1.0000 0.99870  0.00970  0.14480  Biso   1.000  H
  H27      1.0000 0.50130  0.00970  0.64480  Biso   1.000  H
  H28      1.0000 0.49870  0.99030  0.14480  Biso   1.000  H
  C29      1.0000 0.09150  0.10330  0.71260  Biso   1.000  C
  C30      1.0000 0.90850  0.89670  0.21260  Biso   1.000  C
  C31      1.0000 0.59150  0.89670  0.71260  Biso   1.000  C
  C32      1.0000 0.40850  0.10330  0.21260  Biso   1.000  C
  H29      1.0000 0.11310  0.09230  0.73710  Biso   1.000  H
  H30      1.0000 0.88690  0.90770  0.23710  Biso   1.000  H
  H31      1.0000 0.61310  0.90770  0.73710  Biso   1.000  H
  H32      1.0000 0.38690  0.09230  0.23710  Biso   1.000  H
  C33      1.0000 0.10370  0.19890  0.69350  Biso   1.000  C
  C34      1.0000 0.89630  0.80110  0.19350  Biso   1.000  C
  C35      1.0000 0.60370  0.80110  0.69350  Biso   1.000  C
  C36      1.0000 0.39630  0.19890  0.19350  Biso   1.000  C
  H33      1.0000 0.12600  0.25280  0.70730  Biso   1.000  H
  H34      1.0000 0.87400  0.74720  0.20730  Biso   1.000  H
  H35      1.0000 0.62600  0.74720  0.70730  Biso   1.000  H
  H36      1.0000 0.37400  0.25280  0.20730  Biso   1.000  H
  C37      1.0000 0.08400  0.21240  0.65700  Biso   1.000  C
  C38      1.0000 0.91600  0.78760  0.15700  Biso   1.000  C
  C39      1.0000 0.58400  0.78760  0.65700  Biso   1.000  C
  C40      1.0000 0.41600  0.21240  0.15700  Biso   1.000  C
  C41      1.0000 0.04630  0.13670  0.63890  Biso   1.000  C
  C42      1.0000 0.95370  0.86330  0.13890  Biso   1.000  C
  C43      1.0000 0.54630  0.86330  0.63890  Biso   1.000  C
  C44      1.0000 0.45370  0.13670  0.13890  Biso   1.000  C
  H37      1.0000 0.03140  0.14500  0.61310  Biso   1.000  H
  H38      1.0000 0.96860  0.85500  0.11310  Biso   1.000  H
  H39      1.0000 0.53140  0.85500  0.61310  Biso   1.000  H
  H40      1.0000 0.46860  0.14500  0.11310  Biso   1.000  H
  C45      1.0000 0.52950  0.55400  0.06830  Biso   1.000  C
  C46      1.0000 0.47050  0.44600  0.56830  Biso   1.000  C
  C47      1.0000 0.02950  0.44600  0.06830  Biso   1.000  C
  C48      1.0000 0.97050  0.55400  0.56830  Biso   1.000  C
  H41      1.0000 0.52350  0.51020  0.08930  Biso   1.000  H
  H42      1.0000 0.47650  0.48980  0.58930  Biso   1.000  H
  H43      1.0000 0.02350  0.48980  0.08930  Biso   1.000  H
  H44      1.0000 0.97650  0.51020  0.58930  Biso   1.000  H
  C49      1.0000 0.59750  0.56900  0.04970  Biso   1.000  C
  C50      1.0000 0.40250  0.43100  0.54970  Biso   1.000  C
  C51      1.0000 0.09750  0.43100  0.04970  Biso   1.000  C
  C52      1.0000 0.90250  0.56900  0.54970  Biso   1.000  C
  H45      1.0000 0.64560  0.53400  0.05270  Biso   1.000  H
  H46      1.0000 0.35440  0.46600  0.55270  Biso   1.000  H
  H47      1.0000 0.14560  0.46600  0.05270  Biso   1.000  H
  H48      1.0000 0.85440  0.53400  0.55270  Biso   1.000  H
  C53      1.0000 0.58150  0.65540  0.02280  Biso   1.000  C
  C54      1.0000 0.41850  0.34460  0.52280  Biso   1.000  C
  C55      1.0000 0.08150  0.34460  0.02280  Biso   1.000  C
  C56      1.0000 0.91850  0.65540  0.52280  Biso   1.000  C
  H49      1.0000 0.61810  0.68970  0.00720  Biso   1.000  H
  H50      1.0000 0.38190  0.31030  0.50720  Biso   1.000  H
  H51      1.0000 0.11810  0.31030  0.00720  Biso   1.000  H
  H52      1.0000 0.88190  0.68970  0.50720  Biso   1.000  H
  C57      1.0000 0.12390  0.69580  0.08400  Biso   1.000  C
  C58      1.0000 0.87610  0.30420  0.58400  Biso   1.000  C
  C59      1.0000 0.62390  0.30420  0.08400  Biso   1.000  C
  C60      1.0000 0.37610  0.69580  0.58400  Biso   1.000  C
  H53      1.0000 0.07730  0.72900  0.07590  Biso   1.000  H
  H54      1.0000 0.92270  0.27100  0.57590  Biso   1.000  H
  H55      1.0000 0.57730  0.27100  0.07590  Biso   1.000  H
  H56      1.0000 0.42270  0.72900  0.57590  Biso   1.000  H
  C61      1.0000 0.12850  0.64150  0.11620  Biso   1.000  C
  C62      1.0000 0.87150  0.35850  0.61620  Biso   1.000  C
  C63      1.0000 0.62850  0.35850  0.11620  Biso   1.000  C
  C64      1.0000 0.37150  0.64150  0.61620  Biso   1.000  C
  H57      1.0000 0.08910  0.63090  0.13490  Biso   1.000  H
  H58      1.0000 0.91090  0.36910  0.63490  Biso   1.000  H
  H59      1.0000 0.58910  0.36910  0.13490  Biso   1.000  H
  H60      1.0000 0.41090  0.63090  0.63490  Biso   1.000  H
  C65      1.0000 0.20650  0.60460  0.11510  Biso   1.000  C
  C66      1.0000 0.79350  0.39540  0.61510  Biso   1.000  C
  C67      1.0000 0.70650  0.39540  0.11510  Biso   1.000  C
  C68      1.0000 0.29350  0.60460  0.61510  Biso   1.000  C
  H61      1.0000 0.22950  0.56260  0.13370  Biso   1.000  H
  H62      1.0000 0.77050  0.43740  0.63370  Biso   1.000  H
  H63      1.0000 0.72950  0.43740  0.13370  Biso   1.000  H
  H64      1.0000 0.27050  0.56260  0.63370  Biso   1.000  H
  C69      1.0000 0.36690  0.88450  0.93090  Biso   1.000  C
  C70      1.0000 0.63310  0.11550  0.43090  Biso   1.000  C
  C71      1.0000 0.86690  0.11550  0.93090  Biso   1.000  C
  C72      1.0000 0.13310  0.88450  0.43090  Biso   1.000  C
  H65      1.0000 0.41690  0.90050  0.92030  Biso   1.000  H
  H66      1.0000 0.58310  0.09950  0.42030  Biso   1.000  H
  H67      1.0000 0.91690  0.09950  0.92030  Biso   1.000  H
  H68      1.0000 0.08310  0.90050  0.42030  Biso   1.000  H
  C73      1.0000 0.29200  0.90900  0.91350  Biso   1.000  C
  C74      1.0000 0.70800  0.09100  0.41350  Biso   1.000  C
  C75      1.0000 0.79200  0.09100  0.91350  Biso   1.000  C
  C76      1.0000 0.20800  0.90900  0.41350  Biso   1.000  C
  H69      1.0000 0.28020  0.94450  0.89080  Biso   1.000  H
  H70      1.0000 0.71980  0.05550  0.39080  Biso   1.000  H
  H71      1.0000 0.78020  0.05550  0.89080  Biso   1.000  H
  H72      1.0000 0.21980  0.94450  0.39080  Biso   1.000  H
  C77      1.0000 0.24220  0.86800  0.93940  Biso   1.000  C
  C78      1.0000 0.75780  0.13200  0.43940  Biso   1.000  C
  C79      1.0000 0.74220  0.13200  0.93940  Biso   1.000  C
  C80      1.0000 0.25780  0.86800  0.43940  Biso   1.000  C
  H73      1.0000 0.18640  0.87050  0.93660  Biso   1.000  H
  H74      1.0000 0.81360  0.12950  0.43660  Biso   1.000  H
  H75      1.0000 0.68640  0.12950  0.93660  Biso   1.000  H
  H76      1.0000 0.31360  0.87050  0.43660  Biso   1.000  H
  C81      1.0000 0.14270  0.39980  0.58030  Biso   1.000  C
  C82      1.0000 0.85730  0.60020  0.08030  Biso   1.000  C
  C83      1.0000 0.64270  0.60020  0.58030  Biso   1.000  C
  C84      1.0000 0.35730  0.39980  0.08030  Biso   1.000  C
  H77      1.0000 0.16150  0.39690  0.55500  Biso   1.000  H
  H78      1.0000 0.83850  0.60310  0.05500  Biso   1.000  H
  H79      1.0000 0.66150  0.60310  0.55500  Biso   1.000  H
  H80      1.0000 0.33850  0.39690  0.05500  Biso   1.000  H
  C85      1.0000 0.12580  0.30930  0.60030  Biso   1.000  C
  C86      1.0000 0.87420  0.69070  0.10030  Biso   1.000  C
  C87      1.0000 0.62580  0.69070  0.60030  Biso   1.000  C
  C88      1.0000 0.37420  0.30930  0.10030  Biso   1.000  C
  H81      1.0000 0.13310  0.24790  0.58750  Biso   1.000  H
  H82      1.0000 0.86690  0.75210  0.08750  Biso   1.000  H
  H83      1.0000 0.63310  0.75210  0.58750  Biso   1.000  H
  H84      1.0000 0.36690  0.24790  0.08750  Biso   1.000  H
  C89      1.0000 0.09950  0.30760  0.63720  Biso   1.000  C
  C90      1.0000 0.90050  0.69240  0.13720  Biso   1.000  C
  C91      1.0000 0.59950  0.69240  0.63720  Biso   1.000  C
  C92      1.0000 0.40050  0.30760  0.13720  Biso   1.000  C
  C93      1.0000 0.09610  0.40220  0.65610  Biso   1.000  C
  C94      1.0000 0.90390  0.59780  0.15610  Biso   1.000  C
  C95      1.0000 0.59610  0.59780  0.65610  Biso   1.000  C
  C96      1.0000 0.40390  0.40220  0.15610  Biso   1.000  C
  H85      1.0000 0.08860  0.40790  0.68270  Biso   1.000  H
  H86      1.0000 0.91140  0.59210  0.18270  Biso   1.000  H
  H87      1.0000 0.58860  0.59210  0.68270  Biso   1.000  H
  H88      1.0000 0.41140  0.40790  0.18270  Biso   1.000  H
  C97      1.0000 0.10490  0.48780  0.63210  Biso   1.000  C
  C98      1.0000 0.89510  0.51220  0.13210  Biso   1.000  C
  C99      1.0000 0.60490  0.51220  0.63210  Biso   1.000  C
  C100     1.0000 0.39510  0.48780  0.13210  Biso   1.000  C
  H89      1.0000 0.08940  0.55000  0.64250  Biso   1.000  H
  H90      1.0000 0.91060  0.45000  0.14250  Biso   1.000  H
  H91      1.0000 0.58940  0.45000  0.64250  Biso   1.000  H
  H92      1.0000 0.41060  0.55000  0.14250  Biso   1.000  H
  O1       1.0000 0.03250  0.76640  0.75300  Biso   1.000  O
  O2       1.0000 0.96750  0.23360  0.25300  Biso   1.000  O
  O3       1.0000 0.53250  0.23360  0.75300  Biso   1.000  O
  O4       1.0000 0.46750  0.76640  0.25300  Biso   1.000  O
  O5       1.0000 0.34380  0.74520  0.03580  Biso   1.000  O
  O6       1.0000 0.65620  0.25480  0.53580  Biso   1.000  O
  O7       1.0000 0.84380  0.25480  0.03580  Biso   1.000  O
  O8       1.0000 0.15620  0.74520  0.53580  Biso   1.000  O
  S1       1.0000 0.90500  0.57740  0.71460  Biso   1.000  S
  S2       1.0000 0.09500  0.42260  0.21460  Biso   1.000  S
  S3       1.0000 0.40500  0.42260  0.71460  Biso   1.000  S
  S4       1.0000 0.59500  0.57740  0.21460  Biso   1.000  S
  O9       1.0000 0.98240  0.61750  0.70130  Biso   1.000  O
  O10      1.0000 0.01760  0.38250  0.20130  Biso   1.000  O
  O11      1.0000 0.48240  0.38250  0.70130  Biso   1.000  O
  O12      1.0000 0.51760  0.61750  0.20130  Biso   1.000  O
  O13      1.0000 0.89720  0.47320  0.70600  Biso   1.000  O
  O14      1.0000 0.10280  0.52680  0.20600  Biso   1.000  O
  O15      1.0000 0.39720  0.52680  0.70600  Biso   1.000  O
  O16      1.0000 0.60280  0.47320  0.20600  Biso   1.000  O
  O17      1.0000 0.88590  0.61350  0.75280  Biso   1.000  O
  O18      1.0000 0.11410  0.38650  0.25280  Biso   1.000  O
  O19      1.0000 0.38590  0.38650  0.75280  Biso   1.000  O
  O20      1.0000 0.61410  0.61350  0.25280  Biso   1.000  O
  C101     1.0000 0.83800  0.64200  0.69610  Biso   1.000  C
  C102     1.0000 0.16200  0.35800  0.19610  Biso   1.000  C
  C103     1.0000 0.33800  0.35800  0.69610  Biso   1.000  C
  C104     1.0000 0.66200  0.64200  0.19610  Biso   1.000  C
  F1       1.0000 0.76200  0.60100  0.70210  Biso   1.000  F
  F2       1.0000 0.23800  0.39900  0.20210  Biso   1.000  F
  F3       1.0000 0.26200  0.39900  0.70210  Biso   1.000  F
  F4       1.0000 0.73800  0.60100  0.20210  Biso   1.000  F
  F5       1.0000 0.84400  0.74300  0.68360  Biso   1.000  F
  F6       1.0000 0.15600  0.25700  0.18360  Biso   1.000  F
  F7       1.0000 0.34400  0.25700  0.68360  Biso   1.000  F
  F8       1.0000 0.65600  0.74300  0.18360  Biso   1.000  F
  F9       1.0000 0.83660  0.63400  0.65570  Biso   1.000  F
  F10      1.0000 0.16340  0.36600  0.15570  Biso   1.000  F
  F11      1.0000 0.33660  0.36600  0.65570  Biso   1.000  F
  F12      1.0000 0.66340  0.63400  0.15570  Biso   1.000  F
  S5       1.0000 0.09230  0.98080  0.82190  Biso   1.000  S
  S6       1.0000 0.90770  0.01920  0.32190  Biso   1.000  S
  S7       1.0000 0.59230  0.01920  0.82190  Biso   1.000  S
  S8       1.0000 0.40770  0.98080  0.32190  Biso   1.000  S
  O21      1.0000 0.16900  0.99700  0.84820  Biso   1.000  O
  O22      1.0000 0.83100  0.00300  0.34820  Biso   1.000  O
  O23      1.0000 0.66900  0.00300  0.84820  Biso   1.000  O
  O24      1.0000 0.33100  0.99700  0.34820  Biso   1.000  O
  O25      1.0000 0.10940  0.94610  0.78860  Biso   1.000  O
  O26      1.0000 0.89060  0.05390  0.28860  Biso   1.000  O
  O27      1.0000 0.60940  0.05390  0.78860  Biso   1.000  O
  O28      1.0000 0.39060  0.94610  0.28860  Biso   1.000  O
  C105     1.0000 0.03900  0.05400  0.83130  Biso   1.000  C
  C106     1.0000 0.96100  0.94600  0.33130  Biso   1.000  C
  C107     1.0000 0.53900  0.94600  0.83130  Biso   1.000  C
  C108     1.0000 0.46100  0.05400  0.33130  Biso   1.000  C
  F13      1.0000 0.08300  0.13500  0.81890  Biso   1.000  F
  F14      1.0000 0.91700  0.86500  0.31890  Biso   1.000  F
  F15      1.0000 0.58300  0.86500  0.81890  Biso   1.000  F
  F16      1.0000 0.41700  0.13500  0.31890  Biso   1.000  F
  F17      1.0000 0.98900  0.09000  0.80380  Biso   1.000  F
  F18      1.0000 0.01100  0.91000  0.30380  Biso   1.000  F
  F19      1.0000 0.48900  0.91000  0.80380  Biso   1.000  F
  F20      1.0000 0.51100  0.09000  0.30380  Biso   1.000  F
  F21      1.0000 0.02500  0.07700  0.86890  Biso   1.000  F
  F22      1.0000 0.97500  0.92300  0.36890  Biso   1.000  F
  F23      1.0000 0.52500  0.92300  0.86890  Biso   1.000  F
  F24      1.0000 0.47500  0.07700  0.36890  Biso   1.000  F
  S9       1.0000 0.26800  0.01880  0.05890  Biso   1.000  S
  S10      1.0000 0.73200  0.98120  0.55890  Biso   1.000  S
  S11      1.0000 0.76800  0.98120  0.05890  Biso   1.000  S
  S12      1.0000 0.23200  0.01880  0.55890  Biso   1.000  S
  C109     1.0000 0.25000  0.11200  0.09470  Biso   1.000  C
  C110     1.0000 0.75000  0.88800  0.59470  Biso   1.000  C
  C111     1.0000 0.75000  0.88800  0.09470  Biso   1.000  C
  C112     1.0000 0.25000  0.11200  0.59470  Biso   1.000  C
  S13      1.0000 0.30380  0.51720  0.97170  Biso   1.000  S
  S14      1.0000 0.69620  0.48280  0.47170  Biso   1.000  S
  S15      1.0000 0.80380  0.48280  0.97170  Biso   1.000  S
  S16      1.0000 0.19620  0.51720  0.47170  Biso   1.000  S
  O29      1.0000 0.25980  0.56940  0.99190  Biso   1.000  O
  O30      1.0000 0.74020  0.43060  0.49190  Biso   1.000  O
  O31      1.0000 0.75980  0.43060  0.99190  Biso   1.000  O
  O32      1.0000 0.24020  0.56940  0.49190  Biso   1.000  O
  O33      1.0000 0.30100  0.40090  0.98050  Biso   1.000  O
  O34      1.0000 0.69900  0.59910  0.48050  Biso   1.000  O
  O35      1.0000 0.80100  0.59910  0.98050  Biso   1.000  O
  O36      1.0000 0.19900  0.40090  0.48050  Biso   1.000  O
  O37      1.0000 0.36760  0.56100  0.94540  Biso   1.000  O
  O38      1.0000 0.63240  0.43900  0.44540  Biso   1.000  O
  O39      1.0000 0.86760  0.43900  0.94540  Biso   1.000  O
  O40      1.0000 0.13240  0.56100  0.44540  Biso   1.000  O
  C113     1.0000 0.27900  0.52000  0.92060  Biso   1.000  C
  C114     1.0000 0.72100  0.48000  0.42060  Biso   1.000  C
  C115     1.0000 0.77900  0.48000  0.92060  Biso   1.000  C
  C116     1.0000 0.22100  0.52000  0.42060  Biso   1.000  C
  F25      1.0000 0.30400  0.48500  0.89700  Biso   1.000  F
  F26      1.0000 0.69600  0.51500  0.39700  Biso   1.000  F
  F27      1.0000 0.80400  0.51500  0.89700  Biso   1.000  F
  F28      1.0000 0.19600  0.48500  0.39700  Biso   1.000  F
  F29      1.0000 0.28700  0.62500  0.91810  Biso   1.000  F
  F30      1.0000 0.71300  0.37500  0.41810  Biso   1.000  F
  F31      1.0000 0.78700  0.37500  0.91810  Biso   1.000  F
  F32      1.0000 0.21300  0.62500  0.41810  Biso   1.000  F
  F33      1.0000 0.20300  0.49520  0.93070  Biso   1.000  F
  F34      1.0000 0.79700  0.50480  0.43070  Biso   1.000  F
  F35      1.0000 0.70300  0.50480  0.93070  Biso   1.000  F
  F36      1.0000 0.29700  0.49520  0.43070  Biso   1.000  F
  N57      1.0000 0.25390  0.71490  0.79340  Biso   1.000  N
  N58      1.0000 0.74610  0.28510  0.29340  Biso   1.000  N
  N59      1.0000 0.75390  0.28510  0.79340  Biso   1.000  N
  N60      1.0000 0.24610  0.71490  0.29340  Biso   1.000  N
  C117     1.0000 0.29360  0.61900  0.78903  Biso   1.000  C
  C118     1.0000 0.70640  0.38100  0.28903  Biso   1.000  C
  C119     1.0000 0.79360  0.38100  0.78903  Biso   1.000  C
  C120     1.0000 0.20640  0.61900  0.28903  Biso   1.000  C
  H93      1.0000 0.27080  0.56840  0.77370  Biso   1.000  H
  H94      1.0000 0.72920  0.43160  0.27370  Biso   1.000  H
  H95      1.0000 0.77080  0.43160  0.77370  Biso   1.000  H
  H96      1.0000 0.22920  0.56840  0.27370  Biso   1.000  H
  C121     1.0000 0.36650  0.60230  0.80783  Biso   1.000  C
  C122     1.0000 0.63350  0.39770  0.30783  Biso   1.000  C
  C123     1.0000 0.86650  0.39770  0.80783  Biso   1.000  C
  C124     1.0000 0.13350  0.60230  0.30783  Biso   1.000  C
  H97      1.0000 0.39090  0.53870  0.80660  Biso   1.000  H
  H98      1.0000 0.60910  0.46130  0.30660  Biso   1.000  H
  H99      1.0000 0.89090  0.46130  0.80660  Biso   1.000  H
  H100     1.0000 0.10910  0.53870  0.30660  Biso   1.000  H
  C125     1.0000 0.40290  0.68050  0.82849  Biso   1.000  C
  C126     1.0000 0.59710  0.31950  0.32849  Biso   1.000  C
  C127     1.0000 0.90290  0.31950  0.82849  Biso   1.000  C
  C128     1.0000 0.09710  0.68050  0.32849  Biso   1.000  C
  H101     1.0000 0.45170  0.66930  0.84110  Biso   1.000  H
  H102     1.0000 0.54830  0.33070  0.34110  Biso   1.000  H
  H103     1.0000 0.95170  0.33070  0.84110  Biso   1.000  H
  H104     1.0000 0.04830  0.66930  0.34110  Biso   1.000  H
  C129     1.0000 0.36640  0.77550  0.83036  Biso   1.000  C
  C130     1.0000 0.63360  0.22450  0.33036  Biso   1.000  C
  C131     1.0000 0.86640  0.22450  0.83036  Biso   1.000  C
  C132     1.0000 0.13360  0.77550  0.33036  Biso   1.000  C
  H105     1.0000 0.39070  0.82780  0.84420  Biso   1.000  H
  H106     1.0000 0.60930  0.17220  0.34420  Biso   1.000  H
  H107     1.0000 0.89070  0.17220  0.84420  Biso   1.000  H
  H108     1.0000 0.10930  0.82780  0.34420  Biso   1.000  H
  C133     1.0000 0.29340  0.79220  0.81155  Biso   1.000  C
  C134     1.0000 0.70660  0.20780  0.31155  Biso   1.000  C
  C135     1.0000 0.79340  0.20780  0.81155  Biso   1.000  C
  C136     1.0000 0.20660  0.79220  0.31155  Biso   1.000  C
  H109     1.0000 0.26900  0.85580  0.81280  Biso   1.000  H
  H110     1.0000 0.73100  0.14420  0.31280  Biso   1.000  H
  H111     1.0000 0.76900  0.14420  0.81280  Biso   1.000  H
  H112     1.0000 0.23100  0.85580  0.31280  Biso   1.000  H
  N61      1.0000 0.85970  0.75630  0.83138  Biso   1.000  N
  N62      1.0000 0.14030  0.24370  0.33138  Biso   1.000  N
  N63      1.0000 0.35970  0.24370  0.83138  Biso   1.000  N
  N64      1.0000 0.64030  0.75630  0.33138  Biso   1.000  N
  C137     1.0000 0.78840  0.70270  0.82244  Biso   1.000  C
  C138     1.0000 0.21160  0.29730  0.32244  Biso   1.000  C
  C139     1.0000 0.28840  0.29730  0.82244  Biso   1.000  C
  C140     1.0000 0.71160  0.70270  0.32244  Biso   1.000  C
  H113     1.0000 0.78620  0.66580  0.79950  Biso   1.000  H
  H114     1.0000 0.21380  0.33420  0.29950  Biso   1.000  H
  H115     1.0000 0.28620  0.33420  0.79950  Biso   1.000  H
  H116     1.0000 0.71380  0.66580  0.29950  Biso   1.000  H
  C141     1.0000 0.72000  0.70280  0.84699  Biso   1.000  C
  C142     1.0000 0.28000  0.29720  0.34699  Biso   1.000  C
  C143     1.0000 0.22000  0.29720  0.84699  Biso   1.000  C
  C144     1.0000 0.78000  0.70280  0.34699  Biso   1.000  C
  H117     1.0000 0.67410  0.66530  0.84100  Biso   1.000  H
  H118     1.0000 0.32590  0.33470  0.34100  Biso   1.000  H
  H119     1.0000 0.17410  0.33470  0.84100  Biso   1.000  H
  H120     1.0000 0.82590  0.66530  0.34100  Biso   1.000  H
  C145     1.0000 0.72430  0.76040  0.88000  Biso   1.000  C
  C146     1.0000 0.27570  0.23960  0.38000  Biso   1.000  C
  C147     1.0000 0.22430  0.23960  0.88000  Biso   1.000  C
  C148     1.0000 0.77570  0.76040  0.38000  Biso   1.000  C
  C149     1.0000 0.79590  0.80670  0.89083  Biso   1.000  C
  C150     1.0000 0.20410  0.19330  0.39083  Biso   1.000  C
  C151     1.0000 0.29590  0.19330  0.89083  Biso   1.000  C
  C152     1.0000 0.70410  0.80670  0.39083  Biso   1.000  C
  H121     1.0000 0.80080  0.83520  0.91540  Biso   1.000  H
  H122     1.0000 0.19920  0.16480  0.41540  Biso   1.000  H
  H123     1.0000 0.30080  0.16480  0.91540  Biso   1.000  H
  H124     1.0000 0.69920  0.83520  0.41540  Biso   1.000  H
  C153     1.0000 0.86340  0.81090  0.86404  Biso   1.000  C
  C154     1.0000 0.13660  0.18910  0.36404  Biso   1.000  C
  C155     1.0000 0.36340  0.18910  0.86404  Biso   1.000  C
  C156     1.0000 0.63660  0.81090  0.36404  Biso   1.000  C
  H125     1.0000 0.90830  0.85080  0.86950  Biso   1.000  H
  H126     1.0000 0.09170  0.14920  0.36950  Biso   1.000  H
  H127     1.0000 0.40830  0.14920  0.86950  Biso   1.000  H
  H128     1.0000 0.59170  0.85080  0.36950  Biso   1.000  H
  N65      1.0000 0.51850  0.77190  0.95546  Biso   1.000  N
  N66      1.0000 0.48150  0.22810  0.45546  Biso   1.000  N
  N67      1.0000 0.01850  0.22810  0.95546  Biso   1.000  N
  N68      1.0000 0.98150  0.77190  0.45546  Biso   1.000  N
  C157     1.0000 0.52510  0.69640  0.92682  Biso   1.000  C
  C158     1.0000 0.47490  0.30360  0.42682  Biso   1.000  C
  C159     1.0000 0.02510  0.30360  0.92682  Biso   1.000  C
  C160     1.0000 0.97490  0.69640  0.42682  Biso   1.000  C
  H129     1.0000 0.48370  0.65040  0.92200  Biso   1.000  H
  H130     1.0000 0.51630  0.34960  0.42200  Biso   1.000  H
  H131     1.0000 0.98370  0.34960  0.92200  Biso   1.000  H
  H132     1.0000 0.01630  0.65040  0.42200  Biso   1.000  H
  C161     1.0000 0.59240  0.69440  0.90734  Biso   1.000  C
  C162     1.0000 0.40760  0.30560  0.40734  Biso   1.000  C
  C163     1.0000 0.09240  0.30560  0.90734  Biso   1.000  C
  C164     1.0000 0.90760  0.69440  0.40734  Biso   1.000  C
  H133     1.0000 0.60090  0.63620  0.89260  Biso   1.000  H
  H134     1.0000 0.39910  0.36380  0.39260  Biso   1.000  H
  H135     1.0000 0.10090  0.36380  0.89260  Biso   1.000  H
  H136     1.0000 0.89910  0.63620  0.39260  Biso   1.000  H
  C165     1.0000 0.64850  0.76150  0.90562  Biso   1.000  C
  C166     1.0000 0.35150  0.23850  0.40562  Biso   1.000  C
  C167     1.0000 0.14850  0.23850  0.90562  Biso   1.000  C
  C168     1.0000 0.85150  0.76150  0.40562  Biso   1.000  C
  C169     1.0000 0.63960  0.84070  0.93090  Biso   1.000  C
  C170     1.0000 0.36040  0.15930  0.43090  Biso   1.000  C
  C171     1.0000 0.13960  0.15930  0.93090  Biso   1.000  C
  C172     1.0000 0.86040  0.84070  0.43090  Biso   1.000  C
  H137     1.0000 0.67580  0.89480  0.93090  Biso   1.000  H
  H138     1.0000 0.32420  0.10520  0.43090  Biso   1.000  H
  H139     1.0000 0.17580  0.10520  0.93090  Biso   1.000  H
  H140     1.0000 0.82420  0.89480  0.43090  Biso   1.000  H
  C173     1.0000 0.57210  0.83790  0.95772  Biso   1.000  C
  C174     1.0000 0.42790  0.16210  0.45772  Biso   1.000  C
  C175     1.0000 0.07210  0.16210  0.95772  Biso   1.000  C
  C176     1.0000 0.92790  0.83790  0.45772  Biso   1.000  C
  H141     1.0000 0.56880  0.88680  0.97710  Biso   1.000  H
  H142     1.0000 0.43120  0.11320  0.47710  Biso   1.000  H
  H143     1.0000 0.06880  0.11320  0.97710  Biso   1.000  H
  H144     1.0000 0.93120  0.88680  0.47710  Biso   1.000  H
  C177     1.0000 0.07550  0.67210  0.98584  Biso   1.000  C
  C178     1.0000 0.92450  0.32790  0.48584  Biso   1.000  C
  C179     1.0000 0.57550  0.32790  0.98584  Biso   1.000  C
  C180     1.0000 0.42450  0.67210  0.48584  Biso   1.000  C
  H145     1.0000 0.10490  0.61190  0.98570  Biso   1.000  H
  H146     1.0000 0.89510  0.38810  0.48570  Biso   1.000  H
  H147     1.0000 0.60490  0.38810  0.98570  Biso   1.000  H
  H148     1.0000 0.39510  0.61190  0.48570  Biso   1.000  H
  C181     1.0000 0.99430  0.67140  0.97589  Biso   1.000  C
  C182     1.0000 0.00570  0.32860  0.47589  Biso   1.000  C
  C183     1.0000 0.49430  0.32860  0.97589  Biso   1.000  C
  C184     1.0000 0.50570  0.67140  0.47589  Biso   1.000  C
  H149     1.0000 0.96930  0.61060  0.96910  Biso   1.000  H
  H150     1.0000 0.03070  0.38940  0.46910  Biso   1.000  H
  H151     1.0000 0.46930  0.38940  0.96910  Biso   1.000  H
  H152     1.0000 0.53070  0.61060  0.46910  Biso   1.000  H
  C185     1.0000 0.95040  0.76140  0.97608  Biso   1.000  C
  C186     1.0000 0.04960  0.23860  0.47608  Biso   1.000  C
  C187     1.0000 0.45040  0.23860  0.97608  Biso   1.000  C
  C188     1.0000 0.54960  0.76140  0.47608  Biso   1.000  C
  H153     1.0000 0.89600  0.76080  0.96940  Biso   1.000  H
  H154     1.0000 0.10400  0.23920  0.46940  Biso   1.000  H
  H155     1.0000 0.39600  0.23920  0.96940  Biso   1.000  H
  H156     1.0000 0.60400  0.76080  0.46940  Biso   1.000  H
  C189     1.0000 0.98770  0.85220  0.98620  Biso   1.000  C
  C190     1.0000 0.01230  0.14780  0.48620  Biso   1.000  C
  C191     1.0000 0.48770  0.14780  0.98620  Biso   1.000  C
  C192     1.0000 0.51230  0.85220  0.48620  Biso   1.000  C
  H157     1.0000 0.95830  0.91240  0.98630  Biso   1.000  H
  H158     1.0000 0.04170  0.08760  0.48630  Biso   1.000  H
  H159     1.0000 0.45830  0.08760  0.98630  Biso   1.000  H
  H160     1.0000 0.54170  0.91240  0.48630  Biso   1.000  H
  C193     1.0000 0.06890  0.85300  0.99614  Biso   1.000  C
  C194     1.0000 0.93110  0.14700  0.49614  Biso   1.000  C
  C195     1.0000 0.56890  0.14700  0.99614  Biso   1.000  C
  C196     1.0000 0.43110  0.85300  0.49614  Biso   1.000  C
  H161     1.0000 0.09390  0.91370  0.00290  Biso   1.000  H
  H162     1.0000 0.90610  0.08630  0.50290  Biso   1.000  H
  H163     1.0000 0.59390  0.08630  0.00290  Biso   1.000  H
  H164     1.0000 0.40610  0.91370  0.50290  Biso   1.000  H
  N69      1.0000 0.11280  0.76300  0.99596  Biso   1.000  N
  N70      1.0000 0.88720  0.23700  0.49596  Biso   1.000  N
  N71      1.0000 0.61280  0.23700  0.99596  Biso   1.000  N
  N72      1.0000 0.38720  0.76300  0.49596  Biso   1.000  N
  O41      1.0000 0.47490  0.91460  0.03990  Biso   1.000  O
  O42      1.0000 0.52510  0.08540  0.53990  Biso   1.000  O
  O43      1.0000 0.97490  0.08540  0.03990  Biso   1.000  O
  O44      1.0000 0.02510  0.91460  0.53990  Biso   1.000  O
  H165     1.0000 0.42710  0.92480  0.02820  Biso   1.000  H
  H166     1.0000 0.57290  0.07520  0.52820  Biso   1.000  H
  H167     1.0000 0.92710  0.07520  0.02820  Biso   1.000  H
  H168     1.0000 0.07290  0.92480  0.52820  Biso   1.000  H
  H169     1.0000 0.52090  0.91860  0.02610  Biso   1.000  H
  H170     1.0000 0.47910  0.08140  0.52610  Biso   1.000  H
  H171     1.0000 0.02090  0.08140  0.02610  Biso   1.000  H
  H172     1.0000 0.97910  0.91860  0.52610  Biso   1.000  H
  C197     1.0000 0.12000  0.61000  0.84490  Biso   1.000  C
  C198     1.0000 0.88000  0.39000  0.34490  Biso   1.000  C
  C199     1.0000 0.62000  0.39000  0.84490  Biso   1.000  C
  C200     1.0000 0.38000  0.61000  0.34490  Biso   1.000  C
  H173     1.0000 0.17370  0.58810  0.84620  Biso   1.000  H
  H174     1.0000 0.82630  0.41190  0.34620  Biso   1.000  H
  H175     1.0000 0.67370  0.41190  0.84620  Biso   1.000  H
  H176     1.0000 0.32630  0.58810  0.34620  Biso   1.000  H
  C201     1.0000 0.06900  0.58000  0.86850  Biso   1.000  C
  C202     1.0000 0.93100  0.42000  0.36850  Biso   1.000  C
  C203     1.0000 0.56900  0.42000  0.86850  Biso   1.000  C
  C204     1.0000 0.43100  0.58000  0.36850  Biso   1.000  C
  H177     1.0000 0.07700  0.53900  0.89020  Biso   1.000  H
  H178     1.0000 0.92300  0.46100  0.39020  Biso   1.000  H
  H179     1.0000 0.57700  0.46100  0.89020  Biso   1.000  H
  H180     1.0000 0.42300  0.53900  0.39020  Biso   1.000  H
  C205     1.0000 0.99900  0.61900  0.85590  Biso   1.000  C
  C206     1.0000 0.00100  0.38100  0.35590  Biso   1.000  C
  C207     1.0000 0.49900  0.38100  0.85590  Biso   1.000  C
  C208     1.0000 0.50100  0.61900  0.35590  Biso   1.000  C
  H181     1.0000 0.94830  0.61060  0.86710  Biso   1.000  H
  H182     1.0000 0.05170  0.38940  0.36710  Biso   1.000  H
  H183     1.0000 0.44830  0.38940  0.86710  Biso   1.000  H
  H184     1.0000 0.55170  0.61060  0.36710  Biso   1.000  H
  O45      1.0000 0.02000  0.90900  0.84390  Biso   1.000  O
  O46      1.0000 0.98000  0.09100  0.34390  Biso   1.000  O
  O47      1.0000 0.52000  0.09100  0.84390  Biso   1.000  O
  O48      1.0000 0.48000  0.90900  0.34390  Biso   1.000  O
  F37      1.0000 0.19200  0.04500  0.10640  Biso   1.000  F
  F38      1.0000 0.80800  0.95500  0.60640  Biso   1.000  F
  F39      1.0000 0.69200  0.95500  0.10640  Biso   1.000  F
  F40      1.0000 0.30800  0.04500  0.60640  Biso   1.000  F
  F41      1.0000 0.17500  0.15800  0.08480  Biso   1.000  F
  F42      1.0000 0.82500  0.84200  0.58480  Biso   1.000  F
  F43      1.0000 0.67500  0.84200  0.08480  Biso   1.000  F
  F44      1.0000 0.32500  0.15800  0.58480  Biso   1.000  F
  F45      1.0000 0.26000  0.07300  0.13230  Biso   1.000  F
  F46      1.0000 0.74000  0.92700  0.63230  Biso   1.000  F
  F47      1.0000 0.76000  0.92700  0.13230  Biso   1.000  F
  F48      1.0000 0.24000  0.07300  0.63230  Biso   1.000  F
  O49      1.0000 0.34630  0.06440  0.05560  Biso   1.000  O
  O50      1.0000 0.65370  0.93560  0.55560  Biso   1.000  O
  O51      1.0000 0.84630  0.93560  0.05560  Biso   1.000  O
  O52      1.0000 0.15370  0.06440  0.55560  Biso   1.000  O
  O53      1.0000 0.32900  0.93900  0.06830  Biso   1.000  O
  O54      1.0000 0.67100  0.06100  0.56830  Biso   1.000  O
  O55      1.0000 0.82900  0.06100  0.06830  Biso   1.000  O
  O56      1.0000 0.17100  0.93900  0.56830  Biso   1.000  O
  O57      1.0000 0.22520  0.93800  0.04310  Biso   1.000  O
  O58      1.0000 0.77480  0.06200  0.54310  Biso   1.000  O
  O59      1.0000 0.72520  0.06200  0.04310  Biso   1.000  O
  O60      1.0000 0.27480  0.93800  0.54310  Biso   1.000  O
