data_image0
_cell_length_a       8.5349
_cell_length_b       8.848
_cell_length_c       11.968
_cell_angle_alpha    102.81
_cell_angle_beta     93.96
_cell_angle_gamma    117.86

_symmetry_space_group_name_H-M    "P 1"
_symmetry_int_tables_number       1

loop_
  _symmetry_equiv_pos_as_xyz
  'x, y, z'

loop_
  _atom_site_label
  _atom_site_occupancy
  _atom_site_fract_x
  _atom_site_fract_y
  _atom_site_fract_z
  _atom_site_thermal_displace_type
  _atom_site_B_iso_or_equiv
  _atom_site_type_symbol
  C1       1.0000 0.56290  0.34190  0.39590  Biso   1.000  C
  C2       1.0000 0.43710  0.65810  0.60410  Biso   1.000  C
  H1       1.0000 0.67690  0.41310  0.37830  Biso   1.000  H
  H2       1.0000 0.32310  0.58690  0.62170  Biso   1.000  H
  C3       1.0000 0.40710  0.32980  0.34090  Biso   1.000  C
  C4       1.0000 0.59290  0.67020  0.65910  Biso   1.000  C
  H3       1.0000 0.41410  0.39370  0.28560  Biso   1.000  H
  H4       1.0000 0.58590  0.60630  0.71440  Biso   1.000  H
  C5       1.0000 0.54950  0.24890  0.47640  Biso   1.000  C
  C6       1.0000 0.45050  0.75110  0.52360  Biso   1.000  C
  H5       1.0000 0.65470  0.25690  0.51600  Biso   1.000  H
  H6       1.0000 0.34530  0.74310  0.48400  Biso   1.000  H
  C7       1.0000 0.06910  0.21180  0.31260  Biso   1.000  C
  C8       1.0000 0.93090  0.78820  0.68740  Biso   1.000  C
  H7       1.0000 0.97810  0.08480  0.27490  Biso   1.000  H
  H8       1.0000 0.02190  0.91520  0.72510  Biso   1.000  H
  H9       1.0000 0.09430  0.27390  0.25110  Biso   1.000  H
  H10      1.0000 0.90570  0.72610  0.74890  Biso   1.000  H
  C9       1.0000 0.38010  0.14300  0.49920  Biso   1.000  C
  C10      1.0000 0.61990  0.85700  0.50080  Biso   1.000  C
  H11      1.0000 0.37080  0.07700  0.55360  Biso   1.000  H
  H12      1.0000 0.62920  0.92300  0.44640  Biso   1.000  H
  C11      1.0000 0.99200  0.29430  0.40220  Biso   1.000  C
  C12      1.0000 0.00800  0.70570  0.59780  Biso   1.000  C
  H13      1.0000 0.08560  0.41850  0.44460  Biso   1.000  H
  H14      1.0000 0.91440  0.58150  0.55540  Biso   1.000  H
  H15      1.0000 0.88870  0.29730  0.36180  Biso   1.000  H
  H16      1.0000 0.11130  0.70270  0.63820  Biso   1.000  H
  C13      1.0000 0.24030  0.22390  0.36700  Biso   1.000  C
  C14      1.0000 0.75970  0.77610  0.63300  Biso   1.000  C
  N1       1.0000 0.22830  0.13210  0.44560  Biso   1.000  N
  N2       1.0000 0.77170  0.86790  0.55440  Biso   1.000  N
  O1       1.0000 0.05000  0.26570  0.85430  Biso   1.000  O
  O2       1.0000 0.95000  0.73430  0.14570  Biso   1.000  O
  O3       1.0000 0.33680  0.47950  0.82190  Biso   1.000  O
  O4       1.0000 0.66320  0.52050  0.17810  Biso   1.000  O
  O5       1.0000 0.05840  0.39730  0.69520  Biso   1.000  O
  O6       1.0000 0.94160  0.60270  0.30480  Biso   1.000  O
  O7       1.0000 0.93260  0.19170  0.48410  Biso   1.000  O
  O8       1.0000 0.06740  0.80830  0.51590  Biso   1.000  O
  O9       1.0000 0.16290  0.18400  0.68340  Biso   1.000  O
  O10      1.0000 0.83710  0.81600  0.31660  Biso   1.000  O
  S1       1.0000 0.15272  0.33069  0.76366  Biso   1.000  S
  S2       1.0000 0.84728  0.66931  0.23634  Biso   1.000  S
  Cu1      1.0000 0.00000  0.00000  0.50000  Biso   1.000  Cu
  H17      1.0000 0.92700  0.26300  0.54350  Biso   1.000  H
  H18      1.0000 0.07300  0.73700  0.45650  Biso   1.000  H
  C15      1.0000 0.22490  0.57170  0.11540  Biso   1.000  C
  C16      1.0000 0.77510  0.42830  0.88460  Biso   1.000  C
  H19      1.0000 0.12980  0.51850  0.16000  Biso   1.000  H
  H20      1.0000 0.87020  0.48150  0.84000  Biso   1.000  H
  H21      1.0000 0.18020  0.61740  0.05980  Biso   1.000  H
  H22      1.0000 0.81980  0.38260  0.94020  Biso   1.000  H
  C17      1.0000 0.39750  0.72450  0.19900  Biso   1.000  C
  C18      1.0000 0.60250  0.27550  0.80100  Biso   1.000  C
  H23      1.0000 0.36510  0.79780  0.25750  Biso   1.000  H
  H24      1.0000 0.63490  0.20220  0.74250  Biso   1.000  H
  H25      1.0000 0.45610  0.67410  0.24130  Biso   1.000  H
  H26      1.0000 0.54390  0.32590  0.75870  Biso   1.000  H
  C19      1.0000 0.59160  0.02480  0.16860  Biso   1.000  C
  C20      1.0000 0.40840  0.97520  0.83140  Biso   1.000  C
  H27      1.0000 0.55220  0.07630  0.23080  Biso   1.000  H
  H28      1.0000 0.44780  0.92370  0.76920  Biso   1.000  H
  C21      1.0000 0.76420  0.05230  0.01960  Biso   1.000  C
  C22      1.0000 0.23580  0.94770  0.98040  Biso   1.000  C
  H29      1.0000 0.84590  0.12180  0.97760  Biso   1.000  H
  H30      1.0000 0.15410  0.87820  0.02240  Biso   1.000  H
  C23      1.0000 0.52970  0.84210  0.13760  Biso   1.000  C
  C24      1.0000 0.47030  0.15790  0.86240  Biso   1.000  C
  C25      1.0000 0.69800  0.87040  0.99160  Biso   1.000  C
  C26      1.0000 0.30200  0.12960  0.00840  Biso   1.000  C
  H31      1.0000 0.73470  0.81670  0.92880  Biso   1.000  H
  H32      1.0000 0.26530  0.18330  0.07120  Biso   1.000  H
  C27      1.0000 0.70970  0.13220  0.10990  Biso   1.000  C
  C28      1.0000 0.29030  0.86780  0.89010  Biso   1.000  C
  H33      1.0000 0.75220  0.25690  0.13080  Biso   1.000  H
  H34      1.0000 0.24780  0.74310  0.86920  Biso   1.000  H
  N3       1.0000 0.58360  0.76510  0.04920  Biso   1.000  N
  N4       1.0000 0.41640  0.23490  0.95080  Biso   1.000  N
  O11      1.0000 0.26350  0.43870  0.05240  Biso   1.000  O
  O12      1.0000 0.73650  0.56130  0.94760  Biso   1.000  O
  Cu2      1.0000 0.50000  0.50000  0.00000  Biso   1.000  Cu
  H35      1.0000 0.16210  0.34600  0.01800  Biso   1.000  H
  H36      1.0000 0.83790  0.65400  0.98200  Biso   1.000  H
