data_image0
_cell_length_a       8.506
_cell_length_b       8.8174
_cell_length_c       11.9537
_cell_angle_alpha    102.771
_cell_angle_beta     94.061
_cell_angle_gamma    117.823

_symmetry_space_group_name_H-M    "P 1"
_symmetry_int_tables_number       1

loop_
  _symmetry_equiv_pos_as_xyz
  'x, y, z'

loop_
  _atom_site_label
  _atom_site_occupancy
  _atom_site_fract_x
  _atom_site_fract_y
  _atom_site_fract_z
  _atom_site_thermal_displace_type
  _atom_site_B_iso_or_equiv
  _atom_site_type_symbol
  Cu1      1.0000 0.50000  0.00000  0.00000  Biso   1.000  Cu
  Cu2      1.0000 0.00000  0.50000  0.50000  Biso   1.000  Cu
  S1       1.0000 0.15279  0.83062  0.76370  Biso   1.000  S
  S2       1.0000 0.84721  0.16938  0.23630  Biso   1.000  S
  O1       1.0000 0.73629  0.06187  0.94693  Biso   1.000  O
  O2       1.0000 0.26371  0.93813  0.05307  Biso   1.000  O
  O3       1.0000 0.93265  0.69120  0.48497  Biso   1.000  O
  O4       1.0000 0.06735  0.30880  0.51503  Biso   1.000  O
  O5       1.0000 0.33641  0.97915  0.82215  Biso   1.000  O
  O6       1.0000 0.66359  0.02085  0.17785  Biso   1.000  O
  O7       1.0000 0.04928  0.76524  0.85407  Biso   1.000  O
  O8       1.0000 0.95072  0.23476  0.14593  Biso   1.000  O
  O9       1.0000 0.05733  0.89631  0.69507  Biso   1.000  O
  O10      1.0000 0.94267  0.10369  0.30493  Biso   1.000  O
  O11      1.0000 0.16331  0.68401  0.68391  Biso   1.000  O
  O12      1.0000 0.83669  0.31599  0.31609  Biso   1.000  O
  N1       1.0000 0.41589  0.73467  0.95076  Biso   1.000  N
  N2       1.0000 0.58411  0.26533  0.04924  Biso   1.000  N
  N3       1.0000 0.22871  0.63146  0.44591  Biso   1.000  N
  N4       1.0000 0.77129  0.36854  0.55409  Biso   1.000  N
  C1       1.0000 0.77500  0.92820  0.88505  Biso   1.000  C
  C2       1.0000 0.22500  0.07180  0.11495  Biso   1.000  C
  C3       1.0000 0.60350  0.77640  0.80157  Biso   1.000  C
  C4       1.0000 0.39650  0.22360  0.19843  Biso   1.000  C
  C5       1.0000 0.47010  0.65770  0.86252  Biso   1.000  C
  C6       1.0000 0.52990  0.34230  0.13748  Biso   1.000  C
  C7       1.0000 0.40920  0.47570  0.83192  Biso   1.000  C
  C8       1.0000 0.59080  0.52430  0.16808  Biso   1.000  C
  C9       1.0000 0.29090  0.36770  0.89013  Biso   1.000  C
  C10      1.0000 0.70910  0.63230  0.10987  Biso   1.000  C
  C11      1.0000 0.23570  0.44690  0.98101  Biso   1.000  C
  C12      1.0000 0.76430  0.55310  0.01899  Biso   1.000  C
  C13      1.0000 0.30210  0.62900  0.00836  Biso   1.000  C
  C14      1.0000 0.69790  0.37100  0.99164  Biso   1.000  C
  C15      1.0000 0.99160  0.79300  0.40241  Biso   1.000  C
  C16      1.0000 0.00840  0.20700  0.59759  Biso   1.000  C
  C17      1.0000 0.06920  0.71140  0.31249  Biso   1.000  C
  C18      1.0000 0.93080  0.28860  0.68751  Biso   1.000  C
  C19      1.0000 0.24050  0.72360  0.36701  Biso   1.000  C
  C20      1.0000 0.75950  0.27640  0.63299  Biso   1.000  C
  C21      1.0000 0.40690  0.82930  0.34080  Biso   1.000  C
  C22      1.0000 0.59310  0.17070  0.65920  Biso   1.000  C
  C23      1.0000 0.56290  0.84240  0.39591  Biso   1.000  C
  C24      1.0000 0.43710  0.15760  0.60409  Biso   1.000  C
  C25      1.0000 0.54990  0.74860  0.47731  Biso   1.000  C
  C26      1.0000 0.45010  0.25140  0.52269  Biso   1.000  C
  C27      1.0000 0.38090  0.64530  0.49957  Biso   1.000  C
  C28      1.0000 0.61910  0.35470  0.50043  Biso   1.000  C
  H1       1.0000 0.81000  0.12000  0.00800  Biso   1.000  H
  H2       1.0000 0.19000  0.88000  0.99200  Biso   1.000  H
  H3       1.0000 0.81790  0.88320  0.94010  Biso   1.000  H
  H4       1.0000 0.18210  0.11680  0.05990  Biso   1.000  H
  H5       1.0000 0.86910  0.97990  0.84170  Biso   1.000  H
  H6       1.0000 0.13090  0.02010  0.15830  Biso   1.000  H
  H7       1.0000 0.97100  0.76100  0.55300  Biso   1.000  H
  H8       1.0000 0.02900  0.23900  0.44700  Biso   1.000  H
  H9       1.0000 0.54610  0.82630  0.76000  Biso   1.000  H
  H10      1.0000 0.45390  0.17370  0.24000  Biso   1.000  H
  H11      1.0000 0.63560  0.70470  0.74420  Biso   1.000  H
  H12      1.0000 0.36440  0.29530  0.25580  Biso   1.000  H
  H13      1.0000 0.44860  0.42550  0.77130  Biso   1.000  H
  H14      1.0000 0.55140  0.57450  0.22870  Biso   1.000  H
  H15      1.0000 0.24920  0.24520  0.86910  Biso   1.000  H
  H16      1.0000 0.75080  0.75480  0.13090  Biso   1.000  H
  H17      1.0000 0.15590  0.37870  0.02240  Biso   1.000  H
  H18      1.0000 0.84410  0.62130  0.97760  Biso   1.000  H
  H19      1.0000 0.26650  0.68190  0.07000  Biso   1.000  H
  H20      1.0000 0.73350  0.31810  0.93000  Biso   1.000  H
  H21      1.0000 0.08330  0.91530  0.44380  Biso   1.000  H
  H22      1.0000 0.91670  0.08470  0.55620  Biso   1.000  H
  H23      1.0000 0.88960  0.79550  0.36280  Biso   1.000  H
  H24      1.0000 0.11040  0.20450  0.63720  Biso   1.000  H
  H25      1.0000 0.98000  0.58670  0.27510  Biso   1.000  H
  H26      1.0000 0.02000  0.41330  0.72490  Biso   1.000  H
  H27      1.0000 0.09400  0.77320  0.25260  Biso   1.000  H
  H28      1.0000 0.90600  0.22680  0.74740  Biso   1.000  H
  H29      1.0000 0.41330  0.89120  0.28610  Biso   1.000  H
  H30      1.0000 0.58670  0.10880  0.71390  Biso   1.000  H
  H31      1.0000 0.67470  0.91290  0.37880  Biso   1.000  H
  H32      1.0000 0.32530  0.08710  0.62120  Biso   1.000  H
  H33      1.0000 0.65270  0.75520  0.51590  Biso   1.000  H
  H34      1.0000 0.34730  0.24480  0.48410  Biso   1.000  H
  H35      1.0000 0.37210  0.58250  0.55410  Biso   1.000  H
  H36      1.0000 0.62790  0.41750  0.44590  Biso   1.000  H
