data_image0
_cell_length_a       18.6057
_cell_length_b       11.2046
_cell_length_c       18.7297
_cell_angle_alpha    90
_cell_angle_beta     103.224
_cell_angle_gamma    90

_symmetry_space_group_name_H-M    "P 1"
_symmetry_int_tables_number       1

loop_
  _symmetry_equiv_pos_as_xyz
  'x, y, z'

loop_
  _atom_site_label
  _atom_site_occupancy
  _atom_site_fract_x
  _atom_site_fract_y
  _atom_site_fract_z
  _atom_site_thermal_displace_type
  _atom_site_B_iso_or_equiv
  _atom_site_type_symbol
  C1       1.0000 0.90720  0.89680  0.55710  Biso   1.000  C
  C2       1.0000 0.09280  0.39680  0.94290  Biso   1.000  C
  C3       1.0000 0.09280  0.10320  0.44290  Biso   1.000  C
  C4       1.0000 0.90720  0.60320  0.05710  Biso   1.000  C
  H1       1.0000 0.88930  0.82060  0.56860  Biso   1.000  H
  H2       1.0000 0.11070  0.32060  0.93140  Biso   1.000  H
  H3       1.0000 0.11070  0.17940  0.43140  Biso   1.000  H
  H4       1.0000 0.88930  0.67940  0.06860  Biso   1.000  H
  H5       1.0000 0.95290  0.91450  0.59130  Biso   1.000  H
  H6       1.0000 0.04710  0.41450  0.90870  Biso   1.000  H
  H7       1.0000 0.04710  0.08550  0.40870  Biso   1.000  H
  H8       1.0000 0.95290  0.58550  0.09130  Biso   1.000  H
  H9       1.0000 0.91520  0.89510  0.50830  Biso   1.000  H
  H10      1.0000 0.08480  0.39510  0.99170  Biso   1.000  H
  H11      1.0000 0.08480  0.10490  0.49170  Biso   1.000  H
  H12      1.0000 0.91520  0.60490  0.00830  Biso   1.000  H
  C5       1.0000 0.85210  0.99030  0.56200  Biso   1.000  C
  C6       1.0000 0.14790  0.49030  0.93800  Biso   1.000  C
  C7       1.0000 0.14790  0.00970  0.43800  Biso   1.000  C
  C8       1.0000 0.85210  0.50970  0.06200  Biso   1.000  C
  C9       1.0000 0.86380  0.11800  0.54830  Biso   1.000  C
  C10      1.0000 0.13620  0.61800  0.95170  Biso   1.000  C
  C11      1.0000 0.13620  0.88200  0.45170  Biso   1.000  C
  C12      1.0000 0.86380  0.38200  0.04830  Biso   1.000  C
  C13      1.0000 0.93590  0.15590  0.53490  Biso   1.000  C
  C14      1.0000 0.06410  0.65590  0.96510  Biso   1.000  C
  C15      1.0000 0.06410  0.84410  0.46510  Biso   1.000  C
  C16      1.0000 0.93590  0.34410  0.03490  Biso   1.000  C
  H13      1.0000 0.93510  0.24030  0.52600  Biso   1.000  H
  H14      1.0000 0.06490  0.74030  0.97400  Biso   1.000  H
  H15      1.0000 0.06490  0.75970  0.47400  Biso   1.000  H
  H16      1.0000 0.93510  0.25970  0.02600  Biso   1.000  H
  H17      1.0000 0.94490  0.11430  0.49300  Biso   1.000  H
  H18      1.0000 0.05510  0.61430  0.00700  Biso   1.000  H
  H19      1.0000 0.05510  0.88570  0.50700  Biso   1.000  H
  H20      1.0000 0.94490  0.38570  0.99300  Biso   1.000  H
  H21      1.0000 0.97440  0.13750  0.57710  Biso   1.000  H
  H22      1.0000 0.02560  0.63750  0.92290  Biso   1.000  H
  H23      1.0000 0.02560  0.86250  0.42290  Biso   1.000  H
  H24      1.0000 0.97440  0.36250  0.07710  Biso   1.000  H
  C17      1.0000 0.51090  0.99610  0.60380  Biso   1.000  C
  C18      1.0000 0.48910  0.49610  0.89620  Biso   1.000  C
  C19      1.0000 0.48910  0.00390  0.39620  Biso   1.000  C
  C20      1.0000 0.51090  0.50390  0.10380  Biso   1.000  C
  H25      1.0000 0.52210  0.91310  0.61300  Biso   1.000  H
  H26      1.0000 0.47790  0.41310  0.88700  Biso   1.000  H
  H27      1.0000 0.47790  0.08690  0.38700  Biso   1.000  H
  H28      1.0000 0.52210  0.58690  0.11300  Biso   1.000  H
  H29      1.0000 0.46900  0.00390  0.56320  Biso   1.000  H
  H30      1.0000 0.53100  0.50390  0.93680  Biso   1.000  H
  H31      1.0000 0.53100  0.99610  0.43680  Biso   1.000  H
  H32      1.0000 0.46900  0.49610  0.06320  Biso   1.000  H
  H33      1.0000 0.49980  0.03170  0.64660  Biso   1.000  H
  H34      1.0000 0.50020  0.53170  0.85340  Biso   1.000  H
  H35      1.0000 0.50020  0.96830  0.35340  Biso   1.000  H
  H36      1.0000 0.49980  0.46830  0.14660  Biso   1.000  H
  C21      1.0000 0.57610  0.05770  0.58600  Biso   1.000  C
  C22      1.0000 0.42390  0.55770  0.91400  Biso   1.000  C
  C23      1.0000 0.42390  0.94230  0.41400  Biso   1.000  C
  C24      1.0000 0.57610  0.44230  0.08600  Biso   1.000  C
  C25      1.0000 0.57750  0.18710  0.56940  Biso   1.000  C
  C26      1.0000 0.42250  0.68710  0.93060  Biso   1.000  C
  C27      1.0000 0.42250  0.81290  0.43060  Biso   1.000  C
  C28      1.0000 0.57750  0.31290  0.06940  Biso   1.000  C
  C29      1.0000 0.50760  0.25570  0.55980  Biso   1.000  C
  C30      1.0000 0.49240  0.75570  0.94020  Biso   1.000  C
  C31      1.0000 0.49240  0.74430  0.44020  Biso   1.000  C
  C32      1.0000 0.50760  0.24430  0.05980  Biso   1.000  C
  H37      1.0000 0.51640  0.33740  0.54880  Biso   1.000  H
  H38      1.0000 0.48360  0.83740  0.95120  Biso   1.000  H
  H39      1.0000 0.48360  0.66260  0.45120  Biso   1.000  H
  H40      1.0000 0.51640  0.16260  0.04880  Biso   1.000  H
  H41      1.0000 0.49020  0.25210  0.60420  Biso   1.000  H
  H42      1.0000 0.50980  0.75210  0.89580  Biso   1.000  H
  H43      1.0000 0.50980  0.74790  0.39580  Biso   1.000  H
  H44      1.0000 0.49020  0.24790  0.10420  Biso   1.000  H
  H45      1.0000 0.47120  0.22200  0.52020  Biso   1.000  H
  H46      1.0000 0.52880  0.72200  0.97980  Biso   1.000  H
  H47      1.0000 0.52880  0.77800  0.47980  Biso   1.000  H
  H48      1.0000 0.47120  0.27800  0.02020  Biso   1.000  H
  C33      1.0000 0.00170  0.55500  0.61830  Biso   1.000  C
  C34      1.0000 0.99830  0.05500  0.88170  Biso   1.000  C
  C35      1.0000 0.99830  0.44500  0.38170  Biso   1.000  C
  C36      1.0000 0.00170  0.94500  0.11830  Biso   1.000  C
  H49      1.0000 0.97880  0.50380  0.57850  Biso   1.000  H
  H50      1.0000 0.02120  0.00380  0.92150  Biso   1.000  H
  H51      1.0000 0.02120  0.49620  0.42150  Biso   1.000  H
  H52      1.0000 0.97880  0.99620  0.07850  Biso   1.000  H
  H53      1.0000 0.03380  0.50870  0.65560  Biso   1.000  H
  H54      1.0000 0.96620  0.00870  0.84440  Biso   1.000  H
  H55      1.0000 0.96620  0.49130  0.34440  Biso   1.000  H
  H56      1.0000 0.03380  0.99130  0.15560  Biso   1.000  H
  H57      1.0000 0.02990  0.61530  0.60060  Biso   1.000  H
  H58      1.0000 0.97010  0.11530  0.89940  Biso   1.000  H
  H59      1.0000 0.97010  0.38470  0.39940  Biso   1.000  H
  H60      1.0000 0.02990  0.88470  0.10060  Biso   1.000  H
  C37      1.0000 0.94380  0.61280  0.64970  Biso   1.000  C
  C38      1.0000 0.05620  0.11280  0.85030  Biso   1.000  C
  C39      1.0000 0.05620  0.38720  0.35030  Biso   1.000  C
  C40      1.0000 0.94380  0.88720  0.14970  Biso   1.000  C
  C41      1.0000 0.96680  0.69540  0.71130  Biso   1.000  C
  C42      1.0000 0.03320  0.19540  0.78870  Biso   1.000  C
  C43      1.0000 0.03320  0.30460  0.28870  Biso   1.000  C
  C44      1.0000 0.96680  0.80460  0.21130  Biso   1.000  C
  C45      1.0000 0.04470  0.71780  0.74940  Biso   1.000  C
  C46      1.0000 0.95530  0.21780  0.75060  Biso   1.000  C
  C47      1.0000 0.95530  0.28220  0.25060  Biso   1.000  C
  C48      1.0000 0.04470  0.78220  0.24940  Biso   1.000  C
  H61      1.0000 0.04630  0.77480  0.78800  Biso   1.000  H
  H62      1.0000 0.95370  0.27480  0.71200  Biso   1.000  H
  H63      1.0000 0.95370  0.22520  0.21200  Biso   1.000  H
  H64      1.0000 0.04630  0.72520  0.28800  Biso   1.000  H
  H65      1.0000 0.07120  0.74870  0.71510  Biso   1.000  H
  H66      1.0000 0.92880  0.24870  0.78490  Biso   1.000  H
  H67      1.0000 0.92880  0.25130  0.28490  Biso   1.000  H
  H68      1.0000 0.07120  0.75130  0.21510  Biso   1.000  H
  H69      1.0000 0.06710  0.64450  0.76980  Biso   1.000  H
  H70      1.0000 0.93290  0.14450  0.73020  Biso   1.000  H
  H71      1.0000 0.93290  0.35550  0.23020  Biso   1.000  H
  H72      1.0000 0.06710  0.85550  0.26980  Biso   1.000  H
  C49      1.0000 0.58690  0.63510  0.68040  Biso   1.000  C
  C50      1.0000 0.41310  0.13510  0.81960  Biso   1.000  C
  C51      1.0000 0.41310  0.36490  0.31960  Biso   1.000  C
  C52      1.0000 0.58690  0.86490  0.18040  Biso   1.000  C
  H73      1.0000 0.57380  0.57850  0.64110  Biso   1.000  H
  H74      1.0000 0.42620  0.07850  0.85890  Biso   1.000  H
  H75      1.0000 0.42620  0.42150  0.35890  Biso   1.000  H
  H76      1.0000 0.57380  0.92150  0.14110  Biso   1.000  H
  H77      1.0000 0.55610  0.70440  0.66930  Biso   1.000  H
  H78      1.0000 0.44390  0.20440  0.83070  Biso   1.000  H
  H79      1.0000 0.44390  0.29560  0.33070  Biso   1.000  H
  H80      1.0000 0.55610  0.79560  0.16930  Biso   1.000  H
  H81      1.0000 0.58020  0.59950  0.72510  Biso   1.000  H
  H82      1.0000 0.41980  0.09950  0.77490  Biso   1.000  H
  H83      1.0000 0.41980  0.40050  0.27490  Biso   1.000  H
  H84      1.0000 0.58020  0.90050  0.22510  Biso   1.000  H
  C53      1.0000 0.66460  0.66990  0.68930  Biso   1.000  C
  C54      1.0000 0.33540  0.16990  0.81070  Biso   1.000  C
  C55      1.0000 0.33540  0.33010  0.31070  Biso   1.000  C
  C56      1.0000 0.66460  0.83010  0.18930  Biso   1.000  C
  C57      1.0000 0.69670  0.75880  0.74570  Biso   1.000  C
  C58      1.0000 0.30330  0.25880  0.75430  Biso   1.000  C
  C59      1.0000 0.30330  0.24120  0.25430  Biso   1.000  C
  C60      1.0000 0.69670  0.74120  0.24570  Biso   1.000  C
  C61      1.0000 0.64400  0.82400  0.78600  Biso   1.000  C
  C62      1.0000 0.35600  0.32400  0.71400  Biso   1.000  C
  C63      1.0000 0.35600  0.17600  0.21400  Biso   1.000  C
  C64      1.0000 0.64400  0.67600  0.28600  Biso   1.000  C
  H85      1.0000 0.67210  0.87980  0.82090  Biso   1.000  H
  H86      1.0000 0.32790  0.37980  0.67910  Biso   1.000  H
  H87      1.0000 0.32790  0.12020  0.17910  Biso   1.000  H
  H88      1.0000 0.67210  0.62020  0.32090  Biso   1.000  H
  H89      1.0000 0.62070  0.76720  0.81150  Biso   1.000  H
  H90      1.0000 0.37930  0.26720  0.68850  Biso   1.000  H
  H91      1.0000 0.37930  0.23280  0.18850  Biso   1.000  H
  H92      1.0000 0.62070  0.73280  0.31150  Biso   1.000  H
  H93      1.0000 0.60730  0.86690  0.75120  Biso   1.000  H
  H94      1.0000 0.39270  0.36690  0.74880  Biso   1.000  H
  H95      1.0000 0.39270  0.13310  0.24880  Biso   1.000  H
  H96      1.0000 0.60730  0.63310  0.25120  Biso   1.000  H
  C65      1.0000 0.66500  0.80400  0.81000  Biso   1.000  C
  C66      1.0000 0.33500  0.30400  0.69000  Biso   1.000  C
  C67      1.0000 0.33500  0.19600  0.19000  Biso   1.000  C
  C68      1.0000 0.66500  0.69600  0.31000  Biso   1.000  C
  H97      1.0000 0.69870  0.86020  0.83830  Biso   1.000  H
  H98      1.0000 0.30130  0.36020  0.66170  Biso   1.000  H
  H99      1.0000 0.30130  0.13980  0.16170  Biso   1.000  H
  H100     1.0000 0.69870  0.63980  0.33830  Biso   1.000  H
  H101     1.0000 0.65780  0.73820  0.83980  Biso   1.000  H
  H102     1.0000 0.34220  0.23820  0.66020  Biso   1.000  H
  H103     1.0000 0.34220  0.26180  0.16020  Biso   1.000  H
  H104     1.0000 0.65780  0.76180  0.33980  Biso   1.000  H
  H105     1.0000 0.61840  0.84290  0.79040  Biso   1.000  H
  H106     1.0000 0.38160  0.34290  0.70960  Biso   1.000  H
  H107     1.0000 0.38160  0.15710  0.20960  Biso   1.000  H
  H108     1.0000 0.61840  0.65710  0.29040  Biso   1.000  H
  C69      1.0000 0.81660  0.31300  0.53010  Biso   1.000  C
  C70      1.0000 0.18340  0.81300  0.96990  Biso   1.000  C
  C71      1.0000 0.18340  0.68700  0.46990  Biso   1.000  C
  C72      1.0000 0.81660  0.18700  0.03010  Biso   1.000  C
  C73      1.0000 0.83920  0.39500  0.58550  Biso   1.000  C
  C74      1.0000 0.16080  0.89500  0.91450  Biso   1.000  C
  C75      1.0000 0.16080  0.60500  0.41450  Biso   1.000  C
  C76      1.0000 0.83920  0.10500  0.08550  Biso   1.000  C
  H109     1.0000 0.84810  0.37130  0.63430  Biso   1.000  H
  H110     1.0000 0.15190  0.87130  0.86570  Biso   1.000  H
  H111     1.0000 0.15190  0.62870  0.36570  Biso   1.000  H
  H112     1.0000 0.84810  0.12870  0.13430  Biso   1.000  H
  C77      1.0000 0.84850  0.51370  0.56770  Biso   1.000  C
  C78      1.0000 0.15150  0.01370  0.93230  Biso   1.000  C
  C79      1.0000 0.15150  0.48630  0.43230  Biso   1.000  C
  C80      1.0000 0.84850  0.98630  0.06770  Biso   1.000  C
  C81      1.0000 0.83390  0.54900  0.49510  Biso   1.000  C
  C82      1.0000 0.16610  0.04900  0.00490  Biso   1.000  C
  C83      1.0000 0.16610  0.45100  0.50490  Biso   1.000  C
  C84      1.0000 0.83390  0.95100  0.99510  Biso   1.000  C
  H113     1.0000 0.83960  0.62840  0.48310  Biso   1.000  H
  H114     1.0000 0.16040  0.12840  0.01690  Biso   1.000  H
  H115     1.0000 0.16040  0.37160  0.51690  Biso   1.000  H
  H116     1.0000 0.83960  0.87160  0.98310  Biso   1.000  H
  C85      1.0000 0.81090  0.46540  0.44090  Biso   1.000  C
  C86      1.0000 0.18910  0.96540  0.05910  Biso   1.000  C
  C87      1.0000 0.18910  0.53460  0.55910  Biso   1.000  C
  C88      1.0000 0.81090  0.03460  0.94090  Biso   1.000  C
  H117     1.0000 0.80150  0.48910  0.39210  Biso   1.000  H
  H118     1.0000 0.19850  0.98910  0.10790  Biso   1.000  H
  H119     1.0000 0.19850  0.51090  0.60790  Biso   1.000  H
  H120     1.0000 0.80150  0.01090  0.89210  Biso   1.000  H
  C89      1.0000 0.80140  0.34780  0.45720  Biso   1.000  C
  C90      1.0000 0.19860  0.84780  0.04280  Biso   1.000  C
  C91      1.0000 0.19860  0.65220  0.54280  Biso   1.000  C
  C92      1.0000 0.80140  0.15220  0.95720  Biso   1.000  C
  H121     1.0000 0.78500  0.29250  0.42000  Biso   1.000  H
  H122     1.0000 0.21500  0.79250  0.08000  Biso   1.000  H
  H123     1.0000 0.21500  0.70750  0.58000  Biso   1.000  H
  H124     1.0000 0.78500  0.20750  0.92000  Biso   1.000  H
  C93      1.0000 0.64470  0.35440  0.54780  Biso   1.000  C
  C94      1.0000 0.35530  0.85440  0.95220  Biso   1.000  C
  C95      1.0000 0.35530  0.64560  0.45220  Biso   1.000  C
  C96      1.0000 0.64470  0.14560  0.04780  Biso   1.000  C
  C97      1.0000 0.62270  0.39700  0.47710  Biso   1.000  C
  C98      1.0000 0.37730  0.89700  0.02290  Biso   1.000  C
  C99      1.0000 0.37730  0.60300  0.52290  Biso   1.000  C
  C100     1.0000 0.62270  0.10300  0.97710  Biso   1.000  C
  H125     1.0000 0.60310  0.34490  0.43900  Biso   1.000  H
  H126     1.0000 0.39690  0.84490  0.06100  Biso   1.000  H
  H127     1.0000 0.39690  0.65510  0.56100  Biso   1.000  H
  H128     1.0000 0.60310  0.15510  0.93900  Biso   1.000  H
  C101     1.0000 0.62950  0.51560  0.46280  Biso   1.000  C
  C102     1.0000 0.37050  0.01560  0.03720  Biso   1.000  C
  C103     1.0000 0.37050  0.48440  0.53720  Biso   1.000  C
  C104     1.0000 0.62950  0.98440  0.96280  Biso   1.000  C
  H129     1.0000 0.61480  0.54370  0.41500  Biso   1.000  H
  H130     1.0000 0.38520  0.04370  0.08500  Biso   1.000  H
  H131     1.0000 0.38520  0.45630  0.58500  Biso   1.000  H
  H132     1.0000 0.61480  0.95630  0.91500  Biso   1.000  H
  C105     1.0000 0.65870  0.59470  0.52000  Biso   1.000  C
  C106     1.0000 0.34130  0.09470  0.98000  Biso   1.000  C
  C107     1.0000 0.34130  0.40530  0.48000  Biso   1.000  C
  C108     1.0000 0.65870  0.90530  0.02000  Biso   1.000  C
  H133     1.0000 0.66430  0.67520  0.51060  Biso   1.000  H
  H134     1.0000 0.33570  0.17520  0.98940  Biso   1.000  H
  H135     1.0000 0.33570  0.32480  0.48940  Biso   1.000  H
  H136     1.0000 0.66430  0.82480  0.01060  Biso   1.000  H
  C109     1.0000 0.67880  0.55080  0.59080  Biso   1.000  C
  C110     1.0000 0.32120  0.05080  0.90920  Biso   1.000  C
  C111     1.0000 0.32120  0.44920  0.40920  Biso   1.000  C
  C112     1.0000 0.67880  0.94920  0.09080  Biso   1.000  C
  C113     1.0000 0.67300  0.43090  0.60530  Biso   1.000  C
  C114     1.0000 0.32700  0.93090  0.89470  Biso   1.000  C
  C115     1.0000 0.32700  0.56910  0.39470  Biso   1.000  C
  C116     1.0000 0.67300  0.06910  0.10530  Biso   1.000  C
  H137     1.0000 0.68790  0.40200  0.65290  Biso   1.000  H
  H138     1.0000 0.31210  0.90200  0.84710  Biso   1.000  H
  H139     1.0000 0.31210  0.59800  0.34710  Biso   1.000  H
  H140     1.0000 0.68790  0.09800  0.15290  Biso   1.000  H
  N1       1.0000 0.87380  0.59680  0.62600  Biso   1.000  N
  N2       1.0000 0.12620  0.09680  0.87400  Biso   1.000  N
  N3       1.0000 0.12620  0.40320  0.37400  Biso   1.000  N
  N4       1.0000 0.87380  0.90320  0.12600  Biso   1.000  N
  N5       1.0000 0.70750  0.63250  0.64900  Biso   1.000  N
  N6       1.0000 0.29250  0.13250  0.85100  Biso   1.000  N
  N7       1.0000 0.29250  0.36750  0.35100  Biso   1.000  N
  N8       1.0000 0.70750  0.86750  0.14900  Biso   1.000  N
  N9       1.0000 0.91200  0.74720  0.72970  Biso   1.000  N
  N10      1.0000 0.08800  0.24720  0.77030  Biso   1.000  N
  N11      1.0000 0.08800  0.25280  0.27030  Biso   1.000  N
  N12      1.0000 0.91200  0.75280  0.22970  Biso   1.000  N
  N13      1.0000 0.76350  0.78250  0.74660  Biso   1.000  N
  N14      1.0000 0.23650  0.28250  0.75340  Biso   1.000  N
  N15      1.0000 0.23650  0.21750  0.25340  Biso   1.000  N
  N16      1.0000 0.76350  0.71750  0.24660  Biso   1.000  N
  N17      1.0000 0.80891  0.18910  0.54790  Biso   1.000  N
  N18      1.0000 0.19109  0.68910  0.95210  Biso   1.000  N
  N19      1.0000 0.19109  0.81090  0.45210  Biso   1.000  N
  N20      1.0000 0.80891  0.31090  0.04790  Biso   1.000  N
  N21      1.0000 0.63937  0.22990  0.56260  Biso   1.000  N
  N22      1.0000 0.36063  0.72990  0.93740  Biso   1.000  N
  N23      1.0000 0.36063  0.77010  0.43740  Biso   1.000  N
  N24      1.0000 0.63937  0.27010  0.06260  Biso   1.000  N
  N25      1.0000 0.78830  0.96770  0.57500  Biso   1.000  N
  N26      1.0000 0.21170  0.46770  0.92500  Biso   1.000  N
  N27      1.0000 0.21170  0.03230  0.42500  Biso   1.000  N
  N28      1.0000 0.78830  0.53230  0.07500  Biso   1.000  N
  N29      1.0000 0.63650  0.00590  0.58320  Biso   1.000  N
  N30      1.0000 0.36350  0.50590  0.91680  Biso   1.000  N
  N31      1.0000 0.36350  0.99410  0.41680  Biso   1.000  N
  N32      1.0000 0.63650  0.49410  0.08320  Biso   1.000  N
  O1       1.0000 0.76920  0.85560  0.58510  Biso   1.000  O
  O2       1.0000 0.23080  0.35560  0.91490  Biso   1.000  O
  O3       1.0000 0.23080  0.14440  0.41490  Biso   1.000  O
  O4       1.0000 0.76920  0.64440  0.08510  Biso   1.000  O
  O5       1.0000 0.64130  0.88680  0.59580  Biso   1.000  O
  O6       1.0000 0.35870  0.38680  0.90420  Biso   1.000  O
  O7       1.0000 0.35870  0.11320  0.40420  Biso   1.000  O
  O8       1.0000 0.64130  0.61320  0.09580  Biso   1.000  O
  O9       1.0000 0.91600  0.84530  0.77590  Biso   1.000  O
  O10      1.0000 0.08400  0.34530  0.72410  Biso   1.000  O
  O11      1.0000 0.08400  0.15470  0.22410  Biso   1.000  O
  O12      1.0000 0.91600  0.65470  0.27590  Biso   1.000  O
  O13      1.0000 0.93520  0.80400  0.79430  Biso   1.000  O
  O14      1.0000 0.06480  0.30400  0.70570  Biso   1.000  O
  O15      1.0000 0.06480  0.19600  0.20570  Biso   1.000  O
  O16      1.0000 0.93520  0.69600  0.29430  Biso   1.000  O
  O17      1.0000 0.79380  0.88430  0.78240  Biso   1.000  O
  O18      1.0000 0.20620  0.38430  0.71760  Biso   1.000  O
  O19      1.0000 0.20620  0.11570  0.21760  Biso   1.000  O
  O20      1.0000 0.79380  0.61570  0.28240  Biso   1.000  O
  O21      1.0000 0.81010  0.83050  0.81560  Biso   1.000  O
  O22      1.0000 0.18990  0.33050  0.68440  Biso   1.000  O
  O23      1.0000 0.18990  0.16950  0.18440  Biso   1.000  O
  O24      1.0000 0.81010  0.66950  0.31560  Biso   1.000  O
  O25      1.0000 0.82280  0.49210  0.75980  Biso   1.000  O
  O26      1.0000 0.17720  0.99210  0.74020  Biso   1.000  O
  O27      1.0000 0.17720  0.50790  0.24020  Biso   1.000  O
  O28      1.0000 0.82280  0.00790  0.25980  Biso   1.000  O
  O29      1.0000 0.91950  0.51560  0.85090  Biso   1.000  O
  O30      1.0000 0.08050  0.01560  0.64910  Biso   1.000  O
  O31      1.0000 0.08050  0.48440  0.14910  Biso   1.000  O
  O32      1.0000 0.91950  0.98440  0.35090  Biso   1.000  O
  O33      1.0000 0.80440  0.52690  0.87230  Biso   1.000  O
  O34      1.0000 0.19560  0.02690  0.62770  Biso   1.000  O
  O35      1.0000 0.19560  0.47310  0.12770  Biso   1.000  O
  O36      1.0000 0.80440  0.97310  0.37230  Biso   1.000  O
  O37      1.0000 0.84920  0.35680  0.85360  Biso   1.000  O
  O38      1.0000 0.15080  0.85680  0.64640  Biso   1.000  O
  O39      1.0000 0.15080  0.64320  0.14640  Biso   1.000  O
  O40      1.0000 0.84920  0.14320  0.35360  Biso   1.000  O
  O41      1.0000 0.55370  0.30600  0.71990  Biso   1.000  O
  O42      1.0000 0.44630  0.80600  0.78010  Biso   1.000  O
  O43      1.0000 0.44630  0.69400  0.28010  Biso   1.000  O
  O44      1.0000 0.55370  0.19400  0.21990  Biso   1.000  O
  O45      1.0000 0.66750  0.29030  0.76820  Biso   1.000  O
  O46      1.0000 0.33250  0.79030  0.73180  Biso   1.000  O
  O47      1.0000 0.33250  0.70970  0.23180  Biso   1.000  O
  O48      1.0000 0.66750  0.20970  0.26820  Biso   1.000  O
  O49      1.0000 0.58670  0.13690  0.76680  Biso   1.000  O
  O50      1.0000 0.41330  0.63690  0.73320  Biso   1.000  O
  O51      1.0000 0.41330  0.86310  0.23320  Biso   1.000  O
  O52      1.0000 0.58670  0.36310  0.26680  Biso   1.000  O
  O53      1.0000 0.58220  0.29290  0.83790  Biso   1.000  O
  O54      1.0000 0.41780  0.79290  0.66210  Biso   1.000  O
  O55      1.0000 0.41780  0.70710  0.16210  Biso   1.000  O
  O56      1.0000 0.58220  0.20710  0.33790  Biso   1.000  O
  O57      1.0000 0.68230  0.05540  0.43590  Biso   1.000  O
  O58      1.0000 0.31770  0.55540  0.06410  Biso   1.000  O
  O59      1.0000 0.31770  0.94460  0.56410  Biso   1.000  O
  O60      1.0000 0.68230  0.44460  0.93590  Biso   1.000  O
  O61      1.0000 0.76270  0.12630  0.70330  Biso   1.000  O
  O62      1.0000 0.23730  0.62630  0.79670  Biso   1.000  O
  O63      1.0000 0.23730  0.87370  0.29670  Biso   1.000  O
  O64      1.0000 0.76270  0.37370  0.20330  Biso   1.000  O
  Cl1      1.0000 0.60105  0.25160  0.77547  Biso   1.000  Cl
  Cl2      1.0000 0.39895  0.75160  0.72453  Biso   1.000  Cl
  Cl3      1.0000 0.39895  0.74840  0.22453  Biso   1.000  Cl
  Cl4      1.0000 0.60105  0.24840  0.27547  Biso   1.000  Cl
  Cl5      1.0000 0.84901  0.47910  0.83390  Biso   1.000  Cl
  Cl6      1.0000 0.15099  0.97910  0.66610  Biso   1.000  Cl
  Cl7      1.0000 0.15099  0.52090  0.16610  Biso   1.000  Cl
  Cl8      1.0000 0.84901  0.02090  0.33390  Biso   1.000  Cl
  Cu1      1.0000 0.71917  0.10501  0.56737  Biso   1.000  Cu
  Cu2      1.0000 0.28083  0.60501  0.93263  Biso   1.000  Cu
  Cu3      1.0000 0.28083  0.89499  0.43263  Biso   1.000  Cu
  Cu4      1.0000 0.71917  0.39499  0.06737  Biso   1.000  Cu
  Cu5      1.0000 0.81199  0.69031  0.68168  Biso   1.000  Cu
  Cu6      1.0000 0.18801  0.19031  0.81832  Biso   1.000  Cu
  Cu7      1.0000 0.18801  0.30969  0.31832  Biso   1.000  Cu
  Cu8      1.0000 0.81199  0.80969  0.18168  Biso   1.000  Cu
  H141     1.0000 0.70500  0.86500  0.59300  Biso   1.000  H
  H142     1.0000 0.29500  0.36500  0.90700  Biso   1.000  H
  H143     1.0000 0.29500  0.13500  0.40700  Biso   1.000  H
  H144     1.0000 0.70500  0.63500  0.09300  Biso   1.000  H
