data_image0
_cell_length_a       9.611
_cell_length_b       9.674
_cell_length_c       10.878
_cell_angle_alpha    107.109
_cell_angle_beta     114.993
_cell_angle_gamma    95.996

_symmetry_space_group_name_H-M    "P 1"
_symmetry_int_tables_number       1

loop_
  _symmetry_equiv_pos_as_xyz
  'x, y, z'

loop_
  _atom_site_label
  _atom_site_occupancy
  _atom_site_fract_x
  _atom_site_fract_y
  _atom_site_fract_z
  _atom_site_thermal_displace_type
  _atom_site_B_iso_or_equiv
  _atom_site_type_symbol
  Cu1      1.0000 0.94139  0.61581  0.61995  Biso   1.000  Cu
  Cu2      1.0000 0.05861  0.38419  0.38005  Biso   1.000  Cu
  O1       1.0000 0.78450  0.40070  0.65050  Biso   1.000  O
  O2       1.0000 0.21550  0.59930  0.34950  Biso   1.000  O
  O3       1.0000 0.90300  0.39680  0.51560  Biso   1.000  O
  O4       1.0000 0.09700  0.60320  0.48440  Biso   1.000  O
  C1       1.0000 0.82350  0.32990  0.56170  Biso   1.000  C
  C2       1.0000 0.17650  0.67010  0.43830  Biso   1.000  C
  C3       1.0000 0.77320  0.15990  0.49730  Biso   1.000  C
  C4       1.0000 0.22680  0.84010  0.50270  Biso   1.000  C
  H1       1.0000 0.84810  0.12290  0.46350  Biso   1.000  H
  H2       1.0000 0.15190  0.87710  0.53650  Biso   1.000  H
  H3       1.0000 0.66610  0.12550  0.41110  Biso   1.000  H
  H4       1.0000 0.33390  0.87450  0.58890  Biso   1.000  H
  C5       1.0000 0.76960  0.09270  0.60650  Biso   1.000  C
  C6       1.0000 0.23040  0.90730  0.39350  Biso   1.000  C
  H5       1.0000 0.72510  0.98270  0.55590  Biso   1.000  H
  H6       1.0000 0.27490  0.01730  0.44410  Biso   1.000  H
  H7       1.0000 0.69850  0.13310  0.64360  Biso   1.000  H
  H8       1.0000 0.30150  0.86690  0.35640  Biso   1.000  H
  C7       1.0000 0.93430  0.12680  0.73520  Biso   1.000  C
  C8       1.0000 0.06570  0.87320  0.26480  Biso   1.000  C
  H9       1.0000 0.97440  0.23630  0.79150  Biso   1.000  H
  H10      1.0000 0.02560  0.76370  0.20850  Biso   1.000  H
  H11      1.0000 0.00810  0.09530  0.69750  Biso   1.000  H
  H12      1.0000 0.99190  0.90470  0.30250  Biso   1.000  H
  C9       1.0000 0.93320  0.04680  0.83720  Biso   1.000  C
  C10      1.0000 0.06680  0.95320  0.16280  Biso   1.000  C
  H13      1.0000 0.03750  0.08610  0.92720  Biso   1.000  H
  H14      1.0000 0.96250  0.91390  0.07280  Biso   1.000  H
  H15      1.0000 0.85060  0.06900  0.86570  Biso   1.000  H
  H16      1.0000 0.14940  0.93100  0.13430  Biso   1.000  H
  C11      1.0000 0.90100  0.87880  0.76650  Biso   1.000  C
  C12      1.0000 0.09900  0.12120  0.23350  Biso   1.000  C
  O5       1.0000 0.99170  0.83360  0.71170  Biso   1.000  O
  O6       1.0000 0.00830  0.16640  0.28830  Biso   1.000  O
  O7       1.0000 0.79700  0.79190  0.76510  Biso   1.000  O
  O8       1.0000 0.20300  0.20810  0.23490  Biso   1.000  O
  N1       1.0000 0.12030  0.62340  0.80790  Biso   1.000  N
  N2       1.0000 0.87970  0.37660  0.19210  Biso   1.000  N
  C13      1.0000 0.09340  0.60860  0.91480  Biso   1.000  C
  C14      1.0000 0.90660  0.39140  0.08520  Biso   1.000  C
  H17      1.0000 0.98730  0.59320  0.89980  Biso   1.000  H
  H18      1.0000 0.01270  0.40680  0.10020  Biso   1.000  H
  C15      1.0000 0.21250  0.61440  0.04610  Biso   1.000  C
  C16      1.0000 0.78750  0.38560  0.95390  Biso   1.000  C
  H19      1.0000 0.18790  0.60240  0.11880  Biso   1.000  H
  H20      1.0000 0.81210  0.39760  0.88120  Biso   1.000  H
  C17      1.0000 0.36920  0.63820  0.07040  Biso   1.000  C
  C18      1.0000 0.63080  0.36180  0.92960  Biso   1.000  C
  C19      1.0000 0.39750  0.66080  0.96210  Biso   1.000  C
  C20      1.0000 0.60250  0.33920  0.03790  Biso   1.000  C
  H21      1.0000 0.50310  0.68250  0.97630  Biso   1.000  H
  H22      1.0000 0.49690  0.31750  0.02370  Biso   1.000  H
  C21      1.0000 0.27110  0.65160  0.83310  Biso   1.000  C
  C22      1.0000 0.72890  0.34840  0.16690  Biso   1.000  C
  H23      1.0000 0.29230  0.66590  0.75940  Biso   1.000  H
  H24      1.0000 0.70770  0.33410  0.24060  Biso   1.000  H
  C23      1.0000 0.50020  0.63680  0.20470  Biso   1.000  C
  C24      1.0000 0.49980  0.36320  0.79530  Biso   1.000  C
  C25      1.0000 0.47630  0.54300  0.27360  Biso   1.000  C
  C26      1.0000 0.52370  0.45700  0.72640  Biso   1.000  C
  H25      1.0000 0.37290  0.48230  0.23840  Biso   1.000  H
  H26      1.0000 0.62710  0.51770  0.76160  Biso   1.000  H
  C27      1.0000 0.60440  0.53940  0.39340  Biso   1.000  C
  C28      1.0000 0.39560  0.46060  0.60660  Biso   1.000  C
  H27      1.0000 0.58680  0.47460  0.43920  Biso   1.000  H
  H28      1.0000 0.41320  0.52540  0.56080  Biso   1.000  H
  C29      1.0000 0.77510  0.71430  0.38360  Biso   1.000  C
  C30      1.0000 0.22490  0.28570  0.61640  Biso   1.000  C
  H29      1.0000 0.87960  0.77480  0.42220  Biso   1.000  H
  H30      1.0000 0.12040  0.22520  0.57780  Biso   1.000  H
  C31      1.0000 0.65410  0.72490  0.26340  Biso   1.000  C
  C32      1.0000 0.34590  0.27510  0.73660  Biso   1.000  C
  H31      1.0000 0.67530  0.79160  0.22080  Biso   1.000  H
  H32      1.0000 0.32470  0.20840  0.77920  Biso   1.000  H
  N3       1.0000 0.75270  0.62290  0.44860  Biso   1.000  N
  N4       1.0000 0.24730  0.37710  0.55140  Biso   1.000  N
  O9       1.0000 0.30980  0.01020  0.86400  Biso   1.000  O
  O10      1.0000 0.69020  0.98980  0.13600  Biso   1.000  O
  H33      1.0000 0.37000  0.97400  0.84300  Biso   1.000  H
  H34      1.0000 0.63000  0.02600  0.15700  Biso   1.000  H
  H35      1.0000 0.23900  0.96100  0.82500  Biso   1.000  H
  H36      1.0000 0.76100  0.03900  0.17500  Biso   1.000  H
  O11      1.0000 0.44550  0.12430  0.16690  Biso   1.000  O
  O12      1.0000 0.55450  0.87570  0.83310  Biso   1.000  O
  H37      1.0000 0.40900  0.09200  0.08600  Biso   1.000  H
  H38      1.0000 0.59100  0.90800  0.91400  Biso   1.000  H
  H39      1.0000 0.37800  0.15100  0.19500  Biso   1.000  H
  H40      1.0000 0.62200  0.84900  0.80500  Biso   1.000  H
