data_image0
_cell_length_a       15.0633
_cell_length_b       14.5216
_cell_length_c       21.9097
_cell_angle_alpha    90
_cell_angle_beta     95.005
_cell_angle_gamma    90

_symmetry_space_group_name_H-M    "P 1"
_symmetry_int_tables_number       1

loop_
  _symmetry_equiv_pos_as_xyz
  'x, y, z'

loop_
  _atom_site_label
  _atom_site_occupancy
  _atom_site_fract_x
  _atom_site_fract_y
  _atom_site_fract_z
  _atom_site_thermal_displace_type
  _atom_site_B_iso_or_equiv
  _atom_site_type_symbol
  Cu1      1.0000 0.77987  0.40077  0.77130  Biso   1.000  Cu
  Cu2      1.0000 0.72013  0.90077  0.22870  Biso   1.000  Cu
  Cu3      1.0000 0.22013  0.59923  0.22870  Biso   1.000  Cu
  Cu4      1.0000 0.27987  0.09923  0.77130  Biso   1.000  Cu
  Cu5      1.0000 0.10667  0.72893  0.71539  Biso   1.000  Cu
  Cu6      1.0000 0.39333  0.22893  0.28461  Biso   1.000  Cu
  Cu7      1.0000 0.89333  0.27107  0.28461  Biso   1.000  Cu
  Cu8      1.0000 0.60667  0.77107  0.71539  Biso   1.000  Cu
  Cl1      1.0000 0.78245  0.15172  0.54757  Biso   1.000  Cl
  Cl2      1.0000 0.71755  0.65172  0.45243  Biso   1.000  Cl
  Cl3      1.0000 0.21755  0.84828  0.45243  Biso   1.000  Cl
  Cl4      1.0000 0.28245  0.34828  0.54757  Biso   1.000  Cl
  Cl5      1.0000 0.92370  0.23877  0.03145  Biso   1.000  Cl
  Cl6      1.0000 0.57630  0.73877  0.96855  Biso   1.000  Cl
  Cl7      1.0000 0.07630  0.76123  0.96855  Biso   1.000  Cl
  Cl8      1.0000 0.42370  0.26123  0.03145  Biso   1.000  Cl
  N1       1.0000 0.81850  0.25380  0.77667  Biso   1.000  N
  N2       1.0000 0.68150  0.75380  0.22333  Biso   1.000  N
  N3       1.0000 0.18150  0.74620  0.22333  Biso   1.000  N
  N4       1.0000 0.31850  0.24620  0.77667  Biso   1.000  N
  O1       1.0000 0.59050  0.35320  0.75329  Biso   1.000  O
  O2       1.0000 0.90950  0.85320  0.24671  Biso   1.000  O
  O3       1.0000 0.40950  0.64680  0.24671  Biso   1.000  O
  O4       1.0000 0.09050  0.14680  0.75329  Biso   1.000  O
  C1       1.0000 0.01980  0.37530  0.79410  Biso   1.000  C
  C2       1.0000 0.48020  0.87530  0.20590  Biso   1.000  C
  C3       1.0000 0.98020  0.62470  0.20590  Biso   1.000  C
  C4       1.0000 0.51980  0.12470  0.79410  Biso   1.000  C
  H1       1.0000 0.99310  0.31790  0.79740  Biso   1.000  H
  H2       1.0000 0.50690  0.81790  0.20260  Biso   1.000  H
  H3       1.0000 0.00690  0.68210  0.20260  Biso   1.000  H
  H4       1.0000 0.49310  0.18210  0.79740  Biso   1.000  H
  C5       1.0000 0.65730  0.38590  0.66700  Biso   1.000  C
  C6       1.0000 0.84270  0.88590  0.33300  Biso   1.000  C
  C7       1.0000 0.34270  0.61410  0.33300  Biso   1.000  C
  C8       1.0000 0.15730  0.11410  0.66700  Biso   1.000  C
  O5       1.0000 0.23720  0.87640  0.74867  Biso   1.000  O
  O6       1.0000 0.26280  0.37640  0.25133  Biso   1.000  O
  O7       1.0000 0.76280  0.12360  0.25133  Biso   1.000  O
  O8       1.0000 0.73720  0.62360  0.74867  Biso   1.000  O
  N5       1.0000 0.99890  0.80570  0.76170  Biso   1.000  N
  N6       1.0000 0.50110  0.30570  0.23830  Biso   1.000  N
  N7       1.0000 0.00110  0.19430  0.23830  Biso   1.000  N
  N8       1.0000 0.49890  0.69430  0.76170  Biso   1.000  N
  N9       1.0000 0.80830  0.42910  0.68338  Biso   1.000  N
  N10      1.0000 0.69170  0.92910  0.31662  Biso   1.000  N
  N11      1.0000 0.19170  0.57090  0.31662  Biso   1.000  N
  N12      1.0000 0.30830  0.07090  0.68338  Biso   1.000  N
  O9       1.0000 0.13310  0.90890  0.65940  Biso   1.000  O
  O10      1.0000 0.36690  0.40890  0.34060  Biso   1.000  O
  O11      1.0000 0.86690  0.09110  0.34060  Biso   1.000  O
  O12      1.0000 0.63310  0.59110  0.65940  Biso   1.000  O
  H5       1.0000 0.16430  0.91010  0.69200  Biso   1.000  H
  H6       1.0000 0.33570  0.41010  0.30800  Biso   1.000  H
  H7       1.0000 0.83570  0.08990  0.30800  Biso   1.000  H
  H8       1.0000 0.66430  0.58990  0.69200  Biso   1.000  H
  C9       1.0000 0.20560  0.65810  0.81940  Biso   1.000  C
  C10      1.0000 0.29440  0.15810  0.18060  Biso   1.000  C
  C11      1.0000 0.79440  0.34190  0.18060  Biso   1.000  C
  C12      1.0000 0.70560  0.84190  0.81940  Biso   1.000  C
  N13      1.0000 0.66200  0.37990  0.72587  Biso   1.000  N
  N14      1.0000 0.83800  0.87990  0.27413  Biso   1.000  N
  N15      1.0000 0.33800  0.62010  0.27413  Biso   1.000  N
  N16      1.0000 0.16200  0.12010  0.72587  Biso   1.000  N
  C13      1.0000 0.91950  0.54520  0.66610  Biso   1.000  C
  C14      1.0000 0.58050  0.04520  0.33390  Biso   1.000  C
  C15      1.0000 0.08050  0.45480  0.33390  Biso   1.000  C
  C16      1.0000 0.41950  0.95480  0.66610  Biso   1.000  C
  H9       1.0000 0.88390  0.58990  0.68210  Biso   1.000  H
  H10      1.0000 0.61610  0.08990  0.31790  Biso   1.000  H
  H11      1.0000 0.11610  0.41010  0.31790  Biso   1.000  H
  H12      1.0000 0.38390  0.91010  0.68210  Biso   1.000  H
  C17      1.0000 0.99030  0.94880  0.81600  Biso   1.000  C
  C18      1.0000 0.50970  0.44880  0.18400  Biso   1.000  C
  C19      1.0000 0.00970  0.05120  0.18400  Biso   1.000  C
  C20      1.0000 0.49030  0.55120  0.81600  Biso   1.000  C
  H13      1.0000 0.01120  0.98520  0.84910  Biso   1.000  H
  H14      1.0000 0.48880  0.48520  0.15090  Biso   1.000  H
  H15      1.0000 0.98880  0.01480  0.15090  Biso   1.000  H
  H16      1.0000 0.51120  0.51480  0.84910  Biso   1.000  H
  C21      1.0000 0.85490  0.11850  0.72230  Biso   1.000  C
  C22      1.0000 0.64510  0.61850  0.27770  Biso   1.000  C
  C23      1.0000 0.14510  0.88150  0.27770  Biso   1.000  C
  C24      1.0000 0.35490  0.38150  0.72230  Biso   1.000  C
  H17      1.0000 0.85690  0.08890  0.68480  Biso   1.000  H
  H18      1.0000 0.64310  0.58890  0.31520  Biso   1.000  H
  H19      1.0000 0.14310  0.91110  0.31520  Biso   1.000  H
  H20      1.0000 0.35690  0.41110  0.68480  Biso   1.000  H
  C25      1.0000 0.10030  0.54530  0.78580  Biso   1.000  C
  C26      1.0000 0.39970  0.04530  0.21420  Biso   1.000  C
  C27      1.0000 0.89970  0.45470  0.21420  Biso   1.000  C
  C28      1.0000 0.60030  0.95470  0.78580  Biso   1.000  C
  O13      1.0000 0.64140  0.39620  0.85830  Biso   1.000  O
  O14      1.0000 0.85860  0.89620  0.14170  Biso   1.000  O
  O15      1.0000 0.35860  0.60380  0.14170  Biso   1.000  O
  O16      1.0000 0.14140  0.10380  0.85830  Biso   1.000  O
  H21      1.0000 0.61640  0.37670  0.82610  Biso   1.000  H
  H22      1.0000 0.88360  0.87670  0.17390  Biso   1.000  H
  H23      1.0000 0.38360  0.62330  0.17390  Biso   1.000  H
  H24      1.0000 0.11640  0.12330  0.82610  Biso   1.000  H
  C29      1.0000 0.88560  0.07470  0.77630  Biso   1.000  C
  C30      1.0000 0.61440  0.57470  0.22370  Biso   1.000  C
  C31      1.0000 0.11440  0.92530  0.22370  Biso   1.000  C
  C32      1.0000 0.38560  0.42530  0.77630  Biso   1.000  C
  N17      1.0000 0.72620  0.41480  0.85051  Biso   1.000  N
  N18      1.0000 0.77380  0.91480  0.14949  Biso   1.000  N
  N19      1.0000 0.27380  0.58520  0.14949  Biso   1.000  N
  N20      1.0000 0.22620  0.08520  0.85051  Biso   1.000  N
  C33      1.0000 0.01600  0.54040  0.80510  Biso   1.000  C
  C34      1.0000 0.48400  0.04040  0.19490  Biso   1.000  C
  C35      1.0000 0.98400  0.45960  0.19490  Biso   1.000  C
  C36      1.0000 0.51600  0.95960  0.80510  Biso   1.000  C
  H25      1.0000 0.98640  0.59370  0.81540  Biso   1.000  H
  H26      1.0000 0.51360  0.09370  0.18460  Biso   1.000  H
  H27      1.0000 0.01360  0.40630  0.18460  Biso   1.000  H
  H28      1.0000 0.48640  0.90630  0.81540  Biso   1.000  H
  C37      1.0000 0.84880  0.21240  0.82850  Biso   1.000  C
  C38      1.0000 0.65120  0.71240  0.17150  Biso   1.000  C
  C39      1.0000 0.15120  0.78760  0.17150  Biso   1.000  C
  C40      1.0000 0.34880  0.28760  0.82850  Biso   1.000  C
  H29      1.0000 0.84730  0.24440  0.86520  Biso   1.000  H
  H30      1.0000 0.65270  0.74440  0.13480  Biso   1.000  H
  H31      1.0000 0.15270  0.75560  0.13480  Biso   1.000  H
  H32      1.0000 0.34730  0.25560  0.86520  Biso   1.000  H
  N21      1.0000 0.14140  0.63370  0.78068  Biso   1.000  N
  N22      1.0000 0.35860  0.13370  0.21932  Biso   1.000  N
  N23      1.0000 0.85860  0.36630  0.21932  Biso   1.000  N
  N24      1.0000 0.64140  0.86630  0.78068  Biso   1.000  N
  C41      1.0000 0.82150  0.20640  0.72500  Biso   1.000  C
  C42      1.0000 0.67850  0.70640  0.27500  Biso   1.000  C
  C43      1.0000 0.17850  0.79360  0.27500  Biso   1.000  C
  C44      1.0000 0.32150  0.29360  0.72500  Biso   1.000  C
  H33      1.0000 0.79970  0.23430  0.68850  Biso   1.000  H
  H34      1.0000 0.70030  0.73430  0.31150  Biso   1.000  H
  H35      1.0000 0.20030  0.76570  0.31150  Biso   1.000  H
  H36      1.0000 0.29970  0.26570  0.68850  Biso   1.000  H
  N25      1.0000 0.88620  0.44680  0.82641  Biso   1.000  N
  N26      1.0000 0.61380  0.94680  0.17359  Biso   1.000  N
  N27      1.0000 0.11380  0.55320  0.17359  Biso   1.000  N
  N28      1.0000 0.38620  0.05320  0.82641  Biso   1.000  N
  C45      1.0000 0.89250  0.45440  0.66280  Biso   1.000  C
  C46      1.0000 0.60750  0.95440  0.33720  Biso   1.000  C
  C47      1.0000 0.10750  0.54560  0.33720  Biso   1.000  C
  C48      1.0000 0.39250  0.04560  0.66280  Biso   1.000  C
  C49      1.0000 0.92150  0.97890  0.77400  Biso   1.000  C
  C50      1.0000 0.57850  0.47890  0.22600  Biso   1.000  C
  C51      1.0000 0.07850  0.02110  0.22600  Biso   1.000  C
  C52      1.0000 0.42150  0.52110  0.77400  Biso   1.000  C
  C53      1.0000 0.74060  0.41740  0.64330  Biso   1.000  C
  C54      1.0000 0.75940  0.91740  0.35670  Biso   1.000  C
  C55      1.0000 0.25940  0.58260  0.35670  Biso   1.000  C
  C56      1.0000 0.24060  0.08260  0.64330  Biso   1.000  C
  N29      1.0000 0.02980  0.66440  0.64745  Biso   1.000  N
  N30      1.0000 0.47020  0.16440  0.35255  Biso   1.000  N
  N31      1.0000 0.97020  0.33560  0.35255  Biso   1.000  N
  N32      1.0000 0.52980  0.83560  0.64745  Biso   1.000  N
  N33      1.0000 0.20890  0.79170  0.76200  Biso   1.000  N
  N34      1.0000 0.29110  0.29170  0.23800  Biso   1.000  N
  N35      1.0000 0.79110  0.20830  0.23800  Biso   1.000  N
  N36      1.0000 0.70890  0.70830  0.76200  Biso   1.000  N
  C57      1.0000 0.86930  0.46220  0.88190  Biso   1.000  C
  C58      1.0000 0.63070  0.96220  0.11810  Biso   1.000  C
  C59      1.0000 0.13070  0.53780  0.11810  Biso   1.000  C
  C60      1.0000 0.36930  0.03780  0.88190  Biso   1.000  C
  C61      1.0000 0.01390  0.71360  0.59820  Biso   1.000  C
  C62      1.0000 0.48610  0.21360  0.40180  Biso   1.000  C
  C63      1.0000 0.98610  0.28640  0.40180  Biso   1.000  C
  C64      1.0000 0.51390  0.78640  0.59820  Biso   1.000  C
  C65      1.0000 0.97510  0.45430  0.80920  Biso   1.000  C
  C66      1.0000 0.52490  0.95430  0.19080  Biso   1.000  C
  C67      1.0000 0.02490  0.54570  0.19080  Biso   1.000  C
  C68      1.0000 0.47510  0.04570  0.80920  Biso   1.000  C
  C69      1.0000 0.02660  0.86210  0.80650  Biso   1.000  C
  C70      1.0000 0.47340  0.36210  0.19350  Biso   1.000  C
  C71      1.0000 0.97340  0.13790  0.19350  Biso   1.000  C
  C72      1.0000 0.52660  0.63790  0.80650  Biso   1.000  C
  H37      1.0000 0.07370  0.84270  0.83370  Biso   1.000  H
  H38      1.0000 0.42630  0.34270  0.16630  Biso   1.000  H
  H39      1.0000 0.92630  0.15730  0.16630  Biso   1.000  H
  H40      1.0000 0.57370  0.65730  0.83370  Biso   1.000  H
  C73      1.0000 0.00120  0.56870  0.64500  Biso   1.000  C
  C74      1.0000 0.49880  0.06870  0.35500  Biso   1.000  C
  C75      1.0000 0.99880  0.43130  0.35500  Biso   1.000  C
  C76      1.0000 0.50120  0.93130  0.64500  Biso   1.000  C
  C77      1.0000 0.04750  0.80890  0.60140  Biso   1.000  C
  C78      1.0000 0.45250  0.30890  0.39860  Biso   1.000  C
  C79      1.0000 0.95250  0.19110  0.39860  Biso   1.000  C
  C80      1.0000 0.54750  0.69110  0.60140  Biso   1.000  C
  C81      1.0000 0.88250  0.12370  0.83010  Biso   1.000  C
  C82      1.0000 0.61750  0.62370  0.16990  Biso   1.000  C
  C83      1.0000 0.11750  0.87630  0.16990  Biso   1.000  C
  C84      1.0000 0.38250  0.37630  0.83010  Biso   1.000  C
  H41      1.0000 0.90290  0.09720  0.86730  Biso   1.000  H
  H42      1.0000 0.59710  0.59720  0.13270  Biso   1.000  H
  H43      1.0000 0.09710  0.90280  0.13270  Biso   1.000  H
  H44      1.0000 0.40290  0.40280  0.86730  Biso   1.000  H
  C85      1.0000 0.88930  0.91680  0.72970  Biso   1.000  C
  C86      1.0000 0.61070  0.41680  0.27030  Biso   1.000  C
  C87      1.0000 0.11070  0.08320  0.27030  Biso   1.000  C
  C88      1.0000 0.38930  0.58320  0.72970  Biso   1.000  C
  H45      1.0000 0.84070  0.93290  0.70260  Biso   1.000  H
  H46      1.0000 0.65930  0.43290  0.29740  Biso   1.000  H
  H47      1.0000 0.15930  0.06710  0.29740  Biso   1.000  H
  H48      1.0000 0.34070  0.56710  0.70260  Biso   1.000  H
  C89      1.0000 0.24510  0.75040  0.80930  Biso   1.000  C
  C90      1.0000 0.25490  0.25040  0.19070  Biso   1.000  C
  C91      1.0000 0.75490  0.24960  0.19070  Biso   1.000  C
  C92      1.0000 0.74510  0.74960  0.80930  Biso   1.000  C
  C93      1.0000 0.77530  0.44650  0.89530  Biso   1.000  C
  C94      1.0000 0.72470  0.94650  0.10470  Biso   1.000  C
  C95      1.0000 0.22470  0.55350  0.10470  Biso   1.000  C
  C96      1.0000 0.27530  0.05350  0.89530  Biso   1.000  C
  N37      1.0000 0.09890  0.82480  0.65030  Biso   1.000  N
  N38      1.0000 0.40110  0.32480  0.34970  Biso   1.000  N
  N39      1.0000 0.90110  0.17520  0.34970  Biso   1.000  N
  N40      1.0000 0.59890  0.67520  0.65030  Biso   1.000  N
  C97      1.0000 0.14460  0.46700  0.77010  Biso   1.000  C
  C98      1.0000 0.35540  0.96700  0.22990  Biso   1.000  C
  C99      1.0000 0.85540  0.53300  0.22990  Biso   1.000  C
  C100     1.0000 0.64460  0.03300  0.77010  Biso   1.000  C
  H49      1.0000 0.20150  0.47140  0.75690  Biso   1.000  H
  H50      1.0000 0.29850  0.97140  0.24310  Biso   1.000  H
  H51      1.0000 0.79850  0.52860  0.24310  Biso   1.000  H
  H52      1.0000 0.70150  0.02860  0.75690  Biso   1.000  H
  C101     1.0000 0.94650  0.38760  0.63870  Biso   1.000  C
  C102     1.0000 0.55350  0.88760  0.36130  Biso   1.000  C
  C103     1.0000 0.05350  0.61240  0.36130  Biso   1.000  C
  C104     1.0000 0.44650  0.11240  0.63870  Biso   1.000  C
  H53      1.0000 0.92780  0.32660  0.63610  Biso   1.000  H
  H54      1.0000 0.57220  0.82660  0.36390  Biso   1.000  H
  H55      1.0000 0.07220  0.67340  0.36390  Biso   1.000  H
  H56      1.0000 0.42780  0.17340  0.63610  Biso   1.000  H
  C105     1.0000 0.05570  0.50150  0.62290  Biso   1.000  C
  C106     1.0000 0.44430  0.00150  0.37710  Biso   1.000  C
  C107     1.0000 0.94430  0.49850  0.37710  Biso   1.000  C
  C108     1.0000 0.55570  0.99850  0.62290  Biso   1.000  C
  H57      1.0000 0.11150  0.51700  0.61090  Biso   1.000  H
  H58      1.0000 0.38850  0.01700  0.38910  Biso   1.000  H
  H59      1.0000 0.88850  0.48300  0.38910  Biso   1.000  H
  H60      1.0000 0.61150  0.98300  0.61090  Biso   1.000  H
  C109     1.0000 0.92710  0.83350  0.72520  Biso   1.000  C
  C110     1.0000 0.57290  0.33350  0.27480  Biso   1.000  C
  C111     1.0000 0.07290  0.16650  0.27480  Biso   1.000  C
  C112     1.0000 0.42710  0.66650  0.72520  Biso   1.000  C
  H61      1.0000 0.90260  0.79310  0.69550  Biso   1.000  H
  H62      1.0000 0.59740  0.29310  0.30450  Biso   1.000  H
  H63      1.0000 0.09740  0.20690  0.30450  Biso   1.000  H
  H64      1.0000 0.40260  0.70690  0.69550  Biso   1.000  H
  C113     1.0000 0.24140  0.60360  0.87360  Biso   1.000  C
  C114     1.0000 0.25860  0.10360  0.12640  Biso   1.000  C
  C115     1.0000 0.75860  0.39640  0.12640  Biso   1.000  C
  C116     1.0000 0.74140  0.89640  0.87360  Biso   1.000  C
  H65      1.0000 0.21020  0.54600  0.87430  Biso   1.000  H
  H66      1.0000 0.28980  0.04600  0.12570  Biso   1.000  H
  H67      1.0000 0.78980  0.45400  0.12570  Biso   1.000  H
  H68      1.0000 0.71020  0.95400  0.87430  Biso   1.000  H
  H69      1.0000 0.23330  0.63740  0.91030  Biso   1.000  H
  H70      1.0000 0.26670  0.13740  0.08970  Biso   1.000  H
  H71      1.0000 0.76670  0.36260  0.08970  Biso   1.000  H
  H72      1.0000 0.73330  0.86260  0.91030  Biso   1.000  H
  H73      1.0000 0.30370  0.59220  0.87100  Biso   1.000  H
  H74      1.0000 0.19630  0.09220  0.12900  Biso   1.000  H
  H75      1.0000 0.69630  0.40780  0.12900  Biso   1.000  H
  H76      1.0000 0.80370  0.90780  0.87100  Biso   1.000  H
  C117     1.0000 0.10480  0.38210  0.77400  Biso   1.000  C
  C118     1.0000 0.39520  0.88210  0.22600  Biso   1.000  C
  C119     1.0000 0.89520  0.61790  0.22600  Biso   1.000  C
  C120     1.0000 0.60480  0.11790  0.77400  Biso   1.000  C
  H77      1.0000 0.13460  0.32920  0.76330  Biso   1.000  H
  H78      1.0000 0.36540  0.82920  0.23670  Biso   1.000  H
  H79      1.0000 0.86540  0.67080  0.23670  Biso   1.000  H
  H80      1.0000 0.63460  0.17080  0.76330  Biso   1.000  H
  C121     1.0000 0.93500  0.49020  0.93350  Biso   1.000  C
  C122     1.0000 0.56500  0.99020  0.06650  Biso   1.000  C
  C123     1.0000 0.06500  0.50980  0.06650  Biso   1.000  C
  C124     1.0000 0.43500  0.00980  0.93350  Biso   1.000  C
  H81      1.0000 0.99270  0.49760  0.91860  Biso   1.000  H
  H82      1.0000 0.50730  0.99760  0.08140  Biso   1.000  H
  H83      1.0000 0.00730  0.50240  0.08140  Biso   1.000  H
  H84      1.0000 0.49270  0.00240  0.91860  Biso   1.000  H
  H85      1.0000 0.93800  0.44350  0.96460  Biso   1.000  H
  H86      1.0000 0.56200  0.94350  0.03540  Biso   1.000  H
  H87      1.0000 0.06200  0.55650  0.03540  Biso   1.000  H
  H88      1.0000 0.43800  0.05650  0.96460  Biso   1.000  H
  H89      1.0000 0.91670  0.54730  0.95040  Biso   1.000  H
  H90      1.0000 0.58330  0.04730  0.04960  Biso   1.000  H
  H91      1.0000 0.08330  0.45270  0.04960  Biso   1.000  H
  H92      1.0000 0.41670  0.95270  0.95040  Biso   1.000  H
  C125     1.0000 0.57470  0.36490  0.62750  Biso   1.000  C
  C126     1.0000 0.92530  0.86490  0.37250  Biso   1.000  C
  C127     1.0000 0.42530  0.63510  0.37250  Biso   1.000  C
  C128     1.0000 0.07470  0.13510  0.62750  Biso   1.000  C
  H93      1.0000 0.52880  0.34610  0.65250  Biso   1.000  H
  H94      1.0000 0.97120  0.84610  0.34750  Biso   1.000  H
  H95      1.0000 0.47120  0.65390  0.34750  Biso   1.000  H
  H96      1.0000 0.02880  0.15390  0.65250  Biso   1.000  H
  H97      1.0000 0.58630  0.31620  0.59960  Biso   1.000  H
  H98      1.0000 0.91370  0.81620  0.40040  Biso   1.000  H
  H99      1.0000 0.41370  0.68380  0.40040  Biso   1.000  H
  H100     1.0000 0.08630  0.18380  0.59960  Biso   1.000  H
  H101     1.0000 0.55570  0.41890  0.60470  Biso   1.000  H
  H102     1.0000 0.94430  0.91890  0.39530  Biso   1.000  H
  H103     1.0000 0.44430  0.58110  0.39530  Biso   1.000  H
  H104     1.0000 0.05570  0.08110  0.60470  Biso   1.000  H
  C129     1.0000 0.02670  0.41220  0.61910  Biso   1.000  C
  C130     1.0000 0.47330  0.91220  0.38090  Biso   1.000  C
  C131     1.0000 0.97330  0.58780  0.38090  Biso   1.000  C
  C132     1.0000 0.52670  0.08780  0.61910  Biso   1.000  C
  H105     1.0000 0.06210  0.36760  0.60280  Biso   1.000  H
  H106     1.0000 0.43790  0.86760  0.39720  Biso   1.000  H
  H107     1.0000 0.93790  0.63240  0.39720  Biso   1.000  H
  H108     1.0000 0.56210  0.13240  0.60280  Biso   1.000  H
  O17      1.0000 0.85750  0.19480  0.05930  Biso   1.000  O
  O18      1.0000 0.64250  0.69480  0.94070  Biso   1.000  O
  O19      1.0000 0.14250  0.80520  0.94070  Biso   1.000  O
  O20      1.0000 0.35750  0.30520  0.05930  Biso   1.000  O
  C133     1.0000 0.74350  0.43380  0.57670  Biso   1.000  C
  C134     1.0000 0.75650  0.93380  0.42330  Biso   1.000  C
  C135     1.0000 0.25650  0.56620  0.42330  Biso   1.000  C
  C136     1.0000 0.24350  0.06620  0.57670  Biso   1.000  C
  H109     1.0000 0.80230  0.45350  0.56870  Biso   1.000  H
  H110     1.0000 0.69770  0.95350  0.43130  Biso   1.000  H
  H111     1.0000 0.19770  0.54650  0.43130  Biso   1.000  H
  H112     1.0000 0.30230  0.04650  0.56870  Biso   1.000  H
  H113     1.0000 0.70120  0.48070  0.56350  Biso   1.000  H
  H114     1.0000 0.79880  0.98070  0.43650  Biso   1.000  H
  H115     1.0000 0.29880  0.51930  0.43650  Biso   1.000  H
  H116     1.0000 0.20120  0.01930  0.56350  Biso   1.000  H
  H117     1.0000 0.72900  0.37790  0.55460  Biso   1.000  H
  H118     1.0000 0.77100  0.87790  0.44540  Biso   1.000  H
  H119     1.0000 0.27100  0.62210  0.44540  Biso   1.000  H
  H120     1.0000 0.22900  0.12210  0.55460  Biso   1.000  H
  C137     1.0000 0.31960  0.79070  0.85130  Biso   1.000  C
  C138     1.0000 0.18040  0.29070  0.14870  Biso   1.000  C
  C139     1.0000 0.68040  0.20930  0.14870  Biso   1.000  C
  C140     1.0000 0.81960  0.70930  0.85130  Biso   1.000  C
  H121     1.0000 0.33490  0.85030  0.83650  Biso   1.000  H
  H122     1.0000 0.16510  0.35030  0.16350  Biso   1.000  H
  H123     1.0000 0.66510  0.14970  0.16350  Biso   1.000  H
  H124     1.0000 0.83490  0.64970  0.83650  Biso   1.000  H
  H125     1.0000 0.37070  0.75100  0.85220  Biso   1.000  H
  H126     1.0000 0.12930  0.25100  0.14780  Biso   1.000  H
  H127     1.0000 0.62930  0.24900  0.14780  Biso   1.000  H
  H128     1.0000 0.87070  0.74900  0.85220  Biso   1.000  H
  H129     1.0000 0.30070  0.79630  0.89180  Biso   1.000  H
  H130     1.0000 0.19930  0.29630  0.10820  Biso   1.000  H
  H131     1.0000 0.69930  0.20370  0.10820  Biso   1.000  H
  H132     1.0000 0.80070  0.70370  0.89180  Biso   1.000  H
  C141     1.0000 0.96980  0.68050  0.53910  Biso   1.000  C
  C142     1.0000 0.53020  0.18050  0.46090  Biso   1.000  C
  C143     1.0000 0.03020  0.31950  0.46090  Biso   1.000  C
  C144     1.0000 0.46980  0.81950  0.53910  Biso   1.000  C
  H133     1.0000 0.95160  0.61760  0.54350  Biso   1.000  H
  H134     1.0000 0.54840  0.11760  0.45650  Biso   1.000  H
  H135     1.0000 0.04840  0.38240  0.45650  Biso   1.000  H
  H136     1.0000 0.45160  0.88240  0.54350  Biso   1.000  H
  H137     1.0000 0.01070  0.68440  0.50800  Biso   1.000  H
  H138     1.0000 0.48930  0.18440  0.49200  Biso   1.000  H
  H139     1.0000 0.98930  0.31560  0.49200  Biso   1.000  H
  H140     1.0000 0.51070  0.81560  0.50800  Biso   1.000  H
  H141     1.0000 0.91840  0.71790  0.52770  Biso   1.000  H
  H142     1.0000 0.58160  0.21790  0.47230  Biso   1.000  H
  H143     1.0000 0.08160  0.28210  0.47230  Biso   1.000  H
  H144     1.0000 0.41840  0.78210  0.52770  Biso   1.000  H
  C145     1.0000 0.02210  0.88230  0.55530  Biso   1.000  C
  C146     1.0000 0.47790  0.38230  0.44470  Biso   1.000  C
  C147     1.0000 0.97790  0.11770  0.44470  Biso   1.000  C
  C148     1.0000 0.52210  0.61770  0.55530  Biso   1.000  C
  H145     1.0000 0.05210  0.93850  0.56740  Biso   1.000  H
  H146     1.0000 0.44790  0.43850  0.43260  Biso   1.000  H
  H147     1.0000 0.94790  0.06150  0.43260  Biso   1.000  H
  H148     1.0000 0.55210  0.56150  0.56740  Biso   1.000  H
  H149     1.0000 0.95890  0.89180  0.55290  Biso   1.000  H
  H150     1.0000 0.54110  0.39180  0.44710  Biso   1.000  H
  H151     1.0000 0.04110  0.10820  0.44710  Biso   1.000  H
  H152     1.0000 0.45890  0.60820  0.55290  Biso   1.000  H
  H153     1.0000 0.03910  0.86350  0.51590  Biso   1.000  H
  H154     1.0000 0.46090  0.36350  0.48410  Biso   1.000  H
  H155     1.0000 0.96090  0.13650  0.48410  Biso   1.000  H
  H156     1.0000 0.53910  0.63650  0.51590  Biso   1.000  H
  O21      1.0000 0.90050  0.26890  0.97450  Biso   1.000  O
  O22      1.0000 0.59950  0.76890  0.02550  Biso   1.000  O
  O23      1.0000 0.09950  0.73110  0.02550  Biso   1.000  O
  O24      1.0000 0.40050  0.23110  0.97450  Biso   1.000  O
  C149     1.0000 0.74260  0.46580  0.95710  Biso   1.000  C
  C150     1.0000 0.75740  0.96580  0.04290  Biso   1.000  C
  C151     1.0000 0.25740  0.53420  0.04290  Biso   1.000  C
  C152     1.0000 0.24260  0.03420  0.95710  Biso   1.000  C
  H157     1.0000 0.68030  0.45140  0.95600  Biso   1.000  H
  H158     1.0000 0.81970  0.95140  0.04400  Biso   1.000  H
  H159     1.0000 0.31970  0.54860  0.04400  Biso   1.000  H
  H160     1.0000 0.18030  0.04860  0.95600  Biso   1.000  H
  H161     1.0000 0.75160  0.52970  0.96700  Biso   1.000  H
  H162     1.0000 0.74840  0.02970  0.03300  Biso   1.000  H
  H163     1.0000 0.24840  0.47030  0.03300  Biso   1.000  H
  H164     1.0000 0.25160  0.97030  0.96700  Biso   1.000  H
  H165     1.0000 0.77520  0.42850  0.98750  Biso   1.000  H
  H166     1.0000 0.72480  0.92850  0.01250  Biso   1.000  H
  H167     1.0000 0.22480  0.57150  0.01250  Biso   1.000  H
  H168     1.0000 0.27520  0.07150  0.98750  Biso   1.000  H
  O25      1.0000 0.76270  0.14690  0.48510  Biso   1.000  O
  O26      1.0000 0.73730  0.64690  0.51490  Biso   1.000  O
  O27      1.0000 0.23730  0.85310  0.51490  Biso   1.000  O
  O28      1.0000 0.26270  0.35310  0.48510  Biso   1.000  O
  O29      1.0000 0.85970  0.19200  0.56710  Biso   1.000  O
  O30      1.0000 0.64030  0.69200  0.43290  Biso   1.000  O
  O31      1.0000 0.14030  0.80800  0.43290  Biso   1.000  O
  O32      1.0000 0.35970  0.30800  0.56710  Biso   1.000  O
  O33      1.0000 0.71690  0.19600  0.57770  Biso   1.000  O
  O34      1.0000 0.78310  0.69600  0.42230  Biso   1.000  O
  O35      1.0000 0.28310  0.80400  0.42230  Biso   1.000  O
  O36      1.0000 0.21690  0.30400  0.57770  Biso   1.000  O
  O37      1.0000 0.95570  0.30680  0.06810  Biso   1.000  O
  O38      1.0000 0.54430  0.80680  0.93190  Biso   1.000  O
  O39      1.0000 0.04430  0.69320  0.93190  Biso   1.000  O
  O40      1.0000 0.45570  0.19320  0.06810  Biso   1.000  O
  O41      1.0000 0.99380  0.17550  0.03840  Biso   1.000  O
  O42      1.0000 0.50620  0.67550  0.96160  Biso   1.000  O
  O43      1.0000 0.00620  0.82450  0.96160  Biso   1.000  O
  O44      1.0000 0.49380  0.32450  0.03840  Biso   1.000  O
  O45      1.0000 0.79070  0.05890  0.56310  Biso   1.000  O
  O46      1.0000 0.70930  0.55890  0.43690  Biso   1.000  O
  O47      1.0000 0.20930  0.94110  0.43690  Biso   1.000  O
  O48      1.0000 0.29070  0.44110  0.56310  Biso   1.000  O
  O49      1.0000 0.83690  0.67950  0.05650  Biso   1.000  O
  O50      1.0000 0.66310  0.17950  0.94350  Biso   1.000  O
  O51      1.0000 0.16310  0.32050  0.94350  Biso   1.000  O
  O52      1.0000 0.33690  0.82050  0.05650  Biso   1.000  O
  O53      1.0000 0.95430  0.99650  0.96080  Biso   1.000  O
  O54      1.0000 0.54570  0.49650  0.03920  Biso   1.000  O
  O55      1.0000 0.04570  0.00350  0.03920  Biso   1.000  O
  O56      1.0000 0.45430  0.50350  0.96080  Biso   1.000  O
  O57      1.0000 0.77060  0.84660  0.59090  Biso   1.000  O
  O58      1.0000 0.72940  0.34660  0.40910  Biso   1.000  O
  O59      1.0000 0.22940  0.15340  0.40910  Biso   1.000  O
  O60      1.0000 0.27060  0.65340  0.59090  Biso   1.000  O
  O61      1.0000 0.74260  0.30540  0.41150  Biso   1.000  O
  O62      1.0000 0.75740  0.80540  0.58850  Biso   1.000  O
  O63      1.0000 0.25740  0.69460  0.58850  Biso   1.000  O
  O64      1.0000 0.24260  0.19460  0.41150  Biso   1.000  O
