data_image0
_cell_length_a       13.633
_cell_length_b       12.773
_cell_length_c       12.722
_cell_angle_alpha    90
_cell_angle_beta     99.65
_cell_angle_gamma    90

_symmetry_space_group_name_H-M    "P 1"
_symmetry_int_tables_number       1

loop_
  _symmetry_equiv_pos_as_xyz
  'x, y, z'

loop_
  _atom_site_label
  _atom_site_occupancy
  _atom_site_fract_x
  _atom_site_fract_y
  _atom_site_fract_z
  _atom_site_thermal_displace_type
  _atom_site_B_iso_or_equiv
  _atom_site_type_symbol
  Cu1      1.0000 0.00000  0.81138  0.25000  Biso   1.000  Cu
  Cu2      1.0000 0.50000  0.31138  0.25000  Biso   1.000  Cu
  Cu3      1.0000 0.00000  0.18862  0.75000  Biso   1.000  Cu
  Cu4      1.0000 0.50000  0.68862  0.75000  Biso   1.000  Cu
  Cl1      1.0000 0.79924  0.09740  0.05102  Biso   1.000  Cl
  Cl2      1.0000 0.20076  0.09740  0.44898  Biso   1.000  Cl
  Cl3      1.0000 0.29924  0.59740  0.05102  Biso   1.000  Cl
  Cl4      1.0000 0.70076  0.59740  0.44898  Biso   1.000  Cl
  Cl5      1.0000 0.20076  0.90260  0.94898  Biso   1.000  Cl
  Cl6      1.0000 0.79924  0.90260  0.55102  Biso   1.000  Cl
  Cl7      1.0000 0.70076  0.40260  0.94898  Biso   1.000  Cl
  Cl8      1.0000 0.29924  0.40260  0.55102  Biso   1.000  Cl
  O1       1.0000 0.91730  0.91940  0.16244  Biso   1.000  O
  O2       1.0000 0.08270  0.91940  0.33756  Biso   1.000  O
  O3       1.0000 0.41730  0.41940  0.16244  Biso   1.000  O
  O4       1.0000 0.58270  0.41940  0.33756  Biso   1.000  O
  O5       1.0000 0.08270  0.08060  0.83756  Biso   1.000  O
  O6       1.0000 0.91730  0.08060  0.66244  Biso   1.000  O
  O7       1.0000 0.58270  0.58060  0.83756  Biso   1.000  O
  O8       1.0000 0.41730  0.58060  0.66244  Biso   1.000  O
  O9       1.0000 0.08567  0.84100  0.11748  Biso   1.000  O
  O10      1.0000 0.91433  0.84100  0.38252  Biso   1.000  O
  O11      1.0000 0.58567  0.34100  0.11748  Biso   1.000  O
  O12      1.0000 0.41433  0.34100  0.38252  Biso   1.000  O
  O13      1.0000 0.91433  0.15900  0.88252  Biso   1.000  O
  O14      1.0000 0.08567  0.15900  0.61748  Biso   1.000  O
  O15      1.0000 0.41433  0.65900  0.88252  Biso   1.000  O
  O16      1.0000 0.58567  0.65900  0.61748  Biso   1.000  O
  C1       1.0000 0.95199  0.96116  0.08587  Biso   1.000  C
  C2       1.0000 0.04801  0.96116  0.41413  Biso   1.000  C
  C3       1.0000 0.45199  0.46116  0.08587  Biso   1.000  C
  C4       1.0000 0.54801  0.46116  0.41413  Biso   1.000  C
  C5       1.0000 0.04801  0.03884  0.91413  Biso   1.000  C
  C6       1.0000 0.95199  0.03884  0.58587  Biso   1.000  C
  C7       1.0000 0.54801  0.53884  0.91413  Biso   1.000  C
  C8       1.0000 0.45199  0.53884  0.58587  Biso   1.000  C
  C9       1.0000 0.90837  0.04346  0.02449  Biso   1.000  C
  C10      1.0000 0.09163  0.04346  0.47551  Biso   1.000  C
  C11      1.0000 0.40837  0.54346  0.02449  Biso   1.000  C
  C12      1.0000 0.59163  0.54346  0.47551  Biso   1.000  C
  C13      1.0000 0.09163  0.95654  0.97551  Biso   1.000  C
  C14      1.0000 0.90837  0.95654  0.52449  Biso   1.000  C
  C15      1.0000 0.59163  0.45654  0.97551  Biso   1.000  C
  C16      1.0000 0.40837  0.45654  0.52449  Biso   1.000  C
  C17      1.0000 0.04938  0.91456  0.06060  Biso   1.000  C
  C18      1.0000 0.95062  0.91456  0.43940  Biso   1.000  C
  C19      1.0000 0.54938  0.41456  0.06060  Biso   1.000  C
  C20      1.0000 0.45062  0.41456  0.43940  Biso   1.000  C
  C21      1.0000 0.95062  0.08544  0.93940  Biso   1.000  C
  C22      1.0000 0.04938  0.08544  0.56060  Biso   1.000  C
  C23      1.0000 0.45062  0.58544  0.93940  Biso   1.000  C
  C24      1.0000 0.54938  0.58544  0.56060  Biso   1.000  C
  N1       1.0000 0.09161  0.30978  0.80085  Biso   1.000  N
  N2       1.0000 0.90839  0.30978  0.69915  Biso   1.000  N
  N3       1.0000 0.59161  0.80978  0.80085  Biso   1.000  N
  N4       1.0000 0.40839  0.80978  0.69915  Biso   1.000  N
  N5       1.0000 0.90839  0.69022  0.19915  Biso   1.000  N
  N6       1.0000 0.09161  0.69022  0.30085  Biso   1.000  N
  N7       1.0000 0.40839  0.19022  0.19915  Biso   1.000  N
  N8       1.0000 0.59161  0.19022  0.30085  Biso   1.000  N
  C25      1.0000 0.05548  0.40329  0.76314  Biso   1.000  C
  C26      1.0000 0.94452  0.40329  0.73686  Biso   1.000  C
  C27      1.0000 0.55548  0.90329  0.76314  Biso   1.000  C
  C28      1.0000 0.44452  0.90329  0.73686  Biso   1.000  C
  C29      1.0000 0.94452  0.59671  0.23686  Biso   1.000  C
  C30      1.0000 0.05548  0.59671  0.26314  Biso   1.000  C
  C31      1.0000 0.44452  0.09671  0.23686  Biso   1.000  C
  C32      1.0000 0.55548  0.09671  0.26314  Biso   1.000  C
  C33      1.0000 0.11972  0.48530  0.74884  Biso   1.000  C
  C34      1.0000 0.88028  0.48530  0.75116  Biso   1.000  C
  C35      1.0000 0.61972  0.98530  0.74884  Biso   1.000  C
  C36      1.0000 0.38028  0.98530  0.75116  Biso   1.000  C
  C37      1.0000 0.88028  0.51470  0.25116  Biso   1.000  C
  C38      1.0000 0.11972  0.51470  0.24884  Biso   1.000  C
  C39      1.0000 0.38028  0.01470  0.25116  Biso   1.000  C
  C40      1.0000 0.61972  0.01470  0.24884  Biso   1.000  C
  C41      1.0000 0.22103  0.47218  0.78480  Biso   1.000  C
  C42      1.0000 0.77897  0.47218  0.71520  Biso   1.000  C
  C43      1.0000 0.72103  0.97218  0.78480  Biso   1.000  C
  C44      1.0000 0.27897  0.97218  0.71520  Biso   1.000  C
  C45      1.0000 0.77897  0.52782  0.21520  Biso   1.000  C
  C46      1.0000 0.22103  0.52782  0.28480  Biso   1.000  C
  C47      1.0000 0.27897  0.02782  0.21520  Biso   1.000  C
  C48      1.0000 0.72103  0.02782  0.28480  Biso   1.000  C
  C49      1.0000 0.25628  0.37835  0.82860  Biso   1.000  C
  C50      1.0000 0.74372  0.37835  0.67140  Biso   1.000  C
  C51      1.0000 0.75628  0.87835  0.82860  Biso   1.000  C
  C52      1.0000 0.24372  0.87835  0.67140  Biso   1.000  C
  C53      1.0000 0.74372  0.62165  0.17140  Biso   1.000  C
  C54      1.0000 0.25628  0.62165  0.32860  Biso   1.000  C
  C55      1.0000 0.24372  0.12165  0.17140  Biso   1.000  C
  C56      1.0000 0.75628  0.12165  0.32860  Biso   1.000  C
  C57      1.0000 0.18989  0.29756  0.83232  Biso   1.000  C
  C58      1.0000 0.81011  0.29756  0.66768  Biso   1.000  C
  C59      1.0000 0.68989  0.79756  0.83232  Biso   1.000  C
  C60      1.0000 0.31011  0.79756  0.66768  Biso   1.000  C
  C61      1.0000 0.81011  0.70244  0.16768  Biso   1.000  C
  C62      1.0000 0.18989  0.70244  0.33232  Biso   1.000  C
  C63      1.0000 0.31011  0.20244  0.16768  Biso   1.000  C
  C64      1.0000 0.68989  0.20244  0.33232  Biso   1.000  C
  C65      1.0000 0.08805  0.58435  0.68993  Biso   1.000  C
  C66      1.0000 0.91195  0.58435  0.81007  Biso   1.000  C
  C67      1.0000 0.58805  0.08435  0.68993  Biso   1.000  C
  C68      1.0000 0.41195  0.08435  0.81007  Biso   1.000  C
  C69      1.0000 0.91195  0.41565  0.31007  Biso   1.000  C
  C70      1.0000 0.08805  0.41565  0.18993  Biso   1.000  C
  C71      1.0000 0.41195  0.91565  0.31007  Biso   1.000  C
  C72      1.0000 0.58805  0.91565  0.18993  Biso   1.000  C
  O17      1.0000 0.13059  0.66603  0.70920  Biso   1.000  O
  O18      1.0000 0.86941  0.66603  0.79080  Biso   1.000  O
  O19      1.0000 0.63059  0.16603  0.70920  Biso   1.000  O
  O20      1.0000 0.36941  0.16603  0.79080  Biso   1.000  O
  O21      1.0000 0.86941  0.33397  0.29080  Biso   1.000  O
  O22      1.0000 0.13059  0.33397  0.20920  Biso   1.000  O
  O23      1.0000 0.36941  0.83397  0.29080  Biso   1.000  O
  O24      1.0000 0.63059  0.83397  0.20920  Biso   1.000  O
  O25      1.0000 0.01085  0.56968  0.61336  Biso   1.000  O
  O26      1.0000 0.98915  0.56968  0.88664  Biso   1.000  O
  O27      1.0000 0.51085  0.06968  0.61336  Biso   1.000  O
  O28      1.0000 0.48915  0.06968  0.88664  Biso   1.000  O
  O29      1.0000 0.98915  0.43032  0.38664  Biso   1.000  O
  O30      1.0000 0.01085  0.43032  0.11336  Biso   1.000  O
  O31      1.0000 0.48915  0.93032  0.38664  Biso   1.000  O
  O32      1.0000 0.51085  0.93032  0.11336  Biso   1.000  O
  C73      1.0000 0.97360  0.66070  0.54990  Biso   1.000  C
  C74      1.0000 0.02640  0.66070  0.95010  Biso   1.000  C
  C75      1.0000 0.47360  0.16070  0.54990  Biso   1.000  C
  C76      1.0000 0.52640  0.16070  0.95010  Biso   1.000  C
  C77      1.0000 0.02640  0.33930  0.45010  Biso   1.000  C
  C78      1.0000 0.97360  0.33930  0.04990  Biso   1.000  C
  C79      1.0000 0.52640  0.83930  0.45010  Biso   1.000  C
  C80      1.0000 0.47360  0.83930  0.04990  Biso   1.000  C
  H1       1.0000 0.26630  0.51970  0.77440  Biso   1.000  H
  H2       1.0000 0.73370  0.51970  0.72560  Biso   1.000  H
  H3       1.0000 0.76630  0.01970  0.77440  Biso   1.000  H
  H4       1.0000 0.23370  0.01970  0.72560  Biso   1.000  H
  H5       1.0000 0.73370  0.48030  0.22560  Biso   1.000  H
  H6       1.0000 0.26630  0.48030  0.27440  Biso   1.000  H
  H7       1.0000 0.23370  0.98030  0.22560  Biso   1.000  H
  H8       1.0000 0.76630  0.98030  0.27440  Biso   1.000  H
  H9       1.0000 0.32500  0.36920  0.84880  Biso   1.000  H
  H10      1.0000 0.67500  0.36920  0.65120  Biso   1.000  H
  H11      1.0000 0.82500  0.86920  0.84880  Biso   1.000  H
  H12      1.0000 0.17500  0.86920  0.65120  Biso   1.000  H
  H13      1.0000 0.67500  0.63080  0.15120  Biso   1.000  H
  H14      1.0000 0.32500  0.63080  0.34880  Biso   1.000  H
  H15      1.0000 0.17500  0.13080  0.15120  Biso   1.000  H
  H16      1.0000 0.82500  0.13080  0.34880  Biso   1.000  H
  H17      1.0000 0.20930  0.23180  0.85670  Biso   1.000  H
  H18      1.0000 0.79070  0.23180  0.64330  Biso   1.000  H
  H19      1.0000 0.70930  0.73180  0.85670  Biso   1.000  H
  H20      1.0000 0.29070  0.73180  0.64330  Biso   1.000  H
  H21      1.0000 0.79070  0.76820  0.14330  Biso   1.000  H
  H22      1.0000 0.20930  0.76820  0.35670  Biso   1.000  H
  H23      1.0000 0.29070  0.26820  0.14330  Biso   1.000  H
  H24      1.0000 0.70930  0.26820  0.35670  Biso   1.000  H
  H25      1.0000 0.95150  0.70530  0.59550  Biso   1.000  H
  H26      1.0000 0.04850  0.70530  0.90450  Biso   1.000  H
  H27      1.0000 0.45150  0.20530  0.59550  Biso   1.000  H
  H28      1.0000 0.54850  0.20530  0.90450  Biso   1.000  H
  H29      1.0000 0.04850  0.29470  0.40450  Biso   1.000  H
  H30      1.0000 0.95150  0.29470  0.09550  Biso   1.000  H
  H31      1.0000 0.54850  0.79470  0.40450  Biso   1.000  H
  H32      1.0000 0.45150  0.79470  0.09550  Biso   1.000  H
  H33      1.0000 0.03220  0.68880  0.52340  Biso   1.000  H
  H34      1.0000 0.96780  0.68880  0.97660  Biso   1.000  H
  H35      1.0000 0.53220  0.18880  0.52340  Biso   1.000  H
  H36      1.0000 0.46780  0.18880  0.97660  Biso   1.000  H
  H37      1.0000 0.96780  0.31120  0.47660  Biso   1.000  H
  H38      1.0000 0.03220  0.31120  0.02340  Biso   1.000  H
  H39      1.0000 0.46780  0.81120  0.47660  Biso   1.000  H
  H40      1.0000 0.53220  0.81120  0.02340  Biso   1.000  H
  H41      1.0000 0.92120  0.64590  0.49010  Biso   1.000  H
  H42      1.0000 0.07880  0.64590  0.00990  Biso   1.000  H
  H43      1.0000 0.42120  0.14590  0.49010  Biso   1.000  H
  H44      1.0000 0.57880  0.14590  0.00990  Biso   1.000  H
  H45      1.0000 0.07880  0.35410  0.50990  Biso   1.000  H
  H46      1.0000 0.92120  0.35410  0.99010  Biso   1.000  H
  H47      1.0000 0.57880  0.85410  0.50990  Biso   1.000  H
  H48      1.0000 0.42120  0.85410  0.99010  Biso   1.000  H
