data_image0
_cell_length_a       10.561
_cell_length_b       13.546
_cell_length_c       16.103
_cell_angle_alpha    90
_cell_angle_beta     97.77
_cell_angle_gamma    90

_symmetry_space_group_name_H-M    "P 1"
_symmetry_int_tables_number       1

loop_
  _symmetry_equiv_pos_as_xyz
  'x, y, z'

loop_
  _atom_site_label
  _atom_site_occupancy
  _atom_site_fract_x
  _atom_site_fract_y
  _atom_site_fract_z
  _atom_site_thermal_displace_type
  _atom_site_B_iso_or_equiv
  _atom_site_type_symbol
  Nb1      1.0000 0.00000  0.50000  0.00000  Biso   1.000  Nb
  Nb2      1.0000 0.00000  0.50000  0.50000  Biso   1.000  Nb
  Nb3      1.0000 0.50000  0.00000  0.00000  Biso   1.000  Nb
  Nb4      1.0000 0.50000  0.00000  0.50000  Biso   1.000  Nb
  Cu1      1.0000 0.25000  0.75000  0.00000  Biso   1.000  Cu
  Cu2      1.0000 0.75000  0.75000  0.50000  Biso   1.000  Cu
  Cu3      1.0000 0.75000  0.25000  0.00000  Biso   1.000  Cu
  Cu4      1.0000 0.25000  0.25000  0.50000  Biso   1.000  Cu
  F1       1.0000 0.95550  0.54170  0.10752  Biso   1.000  F
  F2       1.0000 0.04450  0.54170  0.39248  Biso   1.000  F
  F3       1.0000 0.45550  0.04170  0.10752  Biso   1.000  F
  F4       1.0000 0.54450  0.04170  0.39248  Biso   1.000  F
  F5       1.0000 0.04450  0.45830  0.89248  Biso   1.000  F
  F6       1.0000 0.95550  0.45830  0.60752  Biso   1.000  F
  F7       1.0000 0.54450  0.95830  0.89248  Biso   1.000  F
  F8       1.0000 0.45550  0.95830  0.60752  Biso   1.000  F
  F9       1.0000 0.13500  0.41900  0.05540  Biso   1.000  F
  F10      1.0000 0.86500  0.41900  0.44460  Biso   1.000  F
  F11      1.0000 0.63500  0.91900  0.05540  Biso   1.000  F
  F12      1.0000 0.36500  0.91900  0.44460  Biso   1.000  F
  F13      1.0000 0.86500  0.58100  0.94460  Biso   1.000  F
  F14      1.0000 0.13500  0.58100  0.55540  Biso   1.000  F
  F15      1.0000 0.36500  0.08100  0.94460  Biso   1.000  F
  F16      1.0000 0.63500  0.08100  0.55540  Biso   1.000  F
  F17      1.0000 0.11810  0.60940  0.00250  Biso   1.000  F
  F18      1.0000 0.88190  0.60940  0.49750  Biso   1.000  F
  F19      1.0000 0.61810  0.10940  0.00250  Biso   1.000  F
  F20      1.0000 0.38190  0.10940  0.49750  Biso   1.000  F
  F21      1.0000 0.88190  0.39060  0.99750  Biso   1.000  F
  F22      1.0000 0.11810  0.39060  0.50250  Biso   1.000  F
  F23      1.0000 0.38190  0.89060  0.99750  Biso   1.000  F
  F24      1.0000 0.61810  0.89060  0.50250  Biso   1.000  F
  N1       1.0000 0.09250  0.83530  0.96530  Biso   1.000  N
  N2       1.0000 0.90750  0.83530  0.53470  Biso   1.000  N
  N3       1.0000 0.59250  0.33530  0.96530  Biso   1.000  N
  N4       1.0000 0.40750  0.33530  0.53470  Biso   1.000  N
  N5       1.0000 0.90750  0.16470  0.03470  Biso   1.000  N
  N6       1.0000 0.09250  0.16470  0.46530  Biso   1.000  N
  N7       1.0000 0.40750  0.66470  0.03470  Biso   1.000  N
  N8       1.0000 0.59250  0.66470  0.46530  Biso   1.000  N
  N9       1.0000 0.26250  0.72890  0.87342  Biso   1.000  N
  N10      1.0000 0.73750  0.72890  0.62658  Biso   1.000  N
  N11      1.0000 0.76250  0.22890  0.87342  Biso   1.000  N
  N12      1.0000 0.23750  0.22890  0.62658  Biso   1.000  N
  N13      1.0000 0.73750  0.27110  0.12658  Biso   1.000  N
  N14      1.0000 0.26250  0.27110  0.37342  Biso   1.000  N
  N15      1.0000 0.23750  0.77110  0.12658  Biso   1.000  N
  N16      1.0000 0.76250  0.77110  0.37342  Biso   1.000  N
  C1       1.0000 0.97740  0.80760  0.98440  Biso   1.000  C
  C2       1.0000 0.02260  0.80760  0.51560  Biso   1.000  C
  C3       1.0000 0.47740  0.30760  0.98440  Biso   1.000  C
  C4       1.0000 0.52260  0.30760  0.51560  Biso   1.000  C
  C5       1.0000 0.02260  0.19240  0.01560  Biso   1.000  C
  C6       1.0000 0.97740  0.19240  0.48440  Biso   1.000  C
  C7       1.0000 0.52260  0.69240  0.01560  Biso   1.000  C
  C8       1.0000 0.47740  0.69240  0.48440  Biso   1.000  C
  C9       1.0000 0.86660  0.85900  0.95720  Biso   1.000  C
  C10      1.0000 0.13340  0.85900  0.54280  Biso   1.000  C
  C11      1.0000 0.36660  0.35900  0.95720  Biso   1.000  C
  C12      1.0000 0.63340  0.35900  0.54280  Biso   1.000  C
  C13      1.0000 0.13340  0.14100  0.04280  Biso   1.000  C
  C14      1.0000 0.86660  0.14100  0.45720  Biso   1.000  C
  C15      1.0000 0.63340  0.64100  0.04280  Biso   1.000  C
  C16      1.0000 0.36660  0.64100  0.45720  Biso   1.000  C
  C17      1.0000 0.87370  0.94240  0.90700  Biso   1.000  C
  C18      1.0000 0.12630  0.94240  0.59300  Biso   1.000  C
  C19      1.0000 0.37370  0.44240  0.90700  Biso   1.000  C
  C20      1.0000 0.62630  0.44240  0.59300  Biso   1.000  C
  C21      1.0000 0.12630  0.05760  0.09300  Biso   1.000  C
  C22      1.0000 0.87370  0.05760  0.40700  Biso   1.000  C
  C23      1.0000 0.62630  0.55760  0.09300  Biso   1.000  C
  C24      1.0000 0.37370  0.55760  0.40700  Biso   1.000  C
  C25      1.0000 0.99160  0.97090  0.88680  Biso   1.000  C
  C26      1.0000 0.00840  0.97090  0.61320  Biso   1.000  C
  C27      1.0000 0.49160  0.47090  0.88680  Biso   1.000  C
  C28      1.0000 0.50840  0.47090  0.61320  Biso   1.000  C
  C29      1.0000 0.00840  0.02910  0.11320  Biso   1.000  C
  C30      1.0000 0.99160  0.02910  0.38680  Biso   1.000  C
  C31      1.0000 0.50840  0.52910  0.11320  Biso   1.000  C
  C32      1.0000 0.49160  0.52910  0.38680  Biso   1.000  C
  C33      1.0000 0.09940  0.91670  0.91830  Biso   1.000  C
  C34      1.0000 0.90060  0.91670  0.58170  Biso   1.000  C
  C35      1.0000 0.59940  0.41670  0.91830  Biso   1.000  C
  C36      1.0000 0.40060  0.41670  0.58170  Biso   1.000  C
  C37      1.0000 0.90060  0.08330  0.08170  Biso   1.000  C
  C38      1.0000 0.09940  0.08330  0.41830  Biso   1.000  C
  C39      1.0000 0.40060  0.58330  0.08170  Biso   1.000  C
  C40      1.0000 0.59940  0.58330  0.41830  Biso   1.000  C
  C41      1.0000 0.18950  0.65700  0.83270  Biso   1.000  C
  C42      1.0000 0.81050  0.65700  0.66730  Biso   1.000  C
  C43      1.0000 0.68950  0.15700  0.83270  Biso   1.000  C
  C44      1.0000 0.31050  0.15700  0.66730  Biso   1.000  C
  C45      1.0000 0.81050  0.34300  0.16730  Biso   1.000  C
  C46      1.0000 0.18950  0.34300  0.33270  Biso   1.000  C
  C47      1.0000 0.31050  0.84300  0.16730  Biso   1.000  C
  C48      1.0000 0.68950  0.84300  0.33270  Biso   1.000  C
  C49      1.0000 0.18870  0.64040  0.74710  Biso   1.000  C
  C50      1.0000 0.81130  0.64040  0.75290  Biso   1.000  C
  C51      1.0000 0.68870  0.14040  0.74710  Biso   1.000  C
  C52      1.0000 0.31130  0.14040  0.75290  Biso   1.000  C
  C53      1.0000 0.81130  0.35960  0.25290  Biso   1.000  C
  C54      1.0000 0.18870  0.35960  0.24710  Biso   1.000  C
  C55      1.0000 0.31130  0.85960  0.25290  Biso   1.000  C
  C56      1.0000 0.68870  0.85960  0.24710  Biso   1.000  C
  C57      1.0000 0.26120  0.69960  0.70270  Biso   1.000  C
  C58      1.0000 0.73880  0.69960  0.79730  Biso   1.000  C
  C59      1.0000 0.76120  0.19960  0.70270  Biso   1.000  C
  C60      1.0000 0.23880  0.19960  0.79730  Biso   1.000  C
  C61      1.0000 0.73880  0.30040  0.29730  Biso   1.000  C
  C62      1.0000 0.26120  0.30040  0.20270  Biso   1.000  C
  C63      1.0000 0.23880  0.80040  0.29730  Biso   1.000  C
  C64      1.0000 0.76120  0.80040  0.20270  Biso   1.000  C
  C65      1.0000 0.33250  0.77670  0.74380  Biso   1.000  C
  C66      1.0000 0.66750  0.77670  0.75620  Biso   1.000  C
  C67      1.0000 0.83250  0.27670  0.74380  Biso   1.000  C
  C68      1.0000 0.16750  0.27670  0.75620  Biso   1.000  C
  C69      1.0000 0.66750  0.22330  0.25620  Biso   1.000  C
  C70      1.0000 0.33250  0.22330  0.24380  Biso   1.000  C
  C71      1.0000 0.16750  0.72330  0.25620  Biso   1.000  C
  C72      1.0000 0.83250  0.72330  0.24380  Biso   1.000  C
  C73      1.0000 0.33080  0.78650  0.83020  Biso   1.000  C
  C74      1.0000 0.66920  0.78650  0.66980  Biso   1.000  C
  C75      1.0000 0.83080  0.28650  0.83020  Biso   1.000  C
  C76      1.0000 0.16920  0.28650  0.66980  Biso   1.000  C
  C77      1.0000 0.66920  0.21350  0.16980  Biso   1.000  C
  C78      1.0000 0.33080  0.21350  0.33020  Biso   1.000  C
  C79      1.0000 0.16920  0.71350  0.16980  Biso   1.000  C
  C80      1.0000 0.83080  0.71350  0.33020  Biso   1.000  C
  H1       1.0000 0.97220  0.75040  0.01790  Biso   1.000  H
  H2       1.0000 0.02780  0.75040  0.48210  Biso   1.000  H
  H3       1.0000 0.47220  0.25040  0.01790  Biso   1.000  H
  H4       1.0000 0.52780  0.25040  0.48210  Biso   1.000  H
  H5       1.0000 0.02780  0.24960  0.98210  Biso   1.000  H
  H6       1.0000 0.97220  0.24960  0.51790  Biso   1.000  H
  H7       1.0000 0.52780  0.74960  0.98210  Biso   1.000  H
  H8       1.0000 0.47220  0.74960  0.51790  Biso   1.000  H
  H9       1.0000 0.78700  0.83800  0.97230  Biso   1.000  H
  H10      1.0000 0.21300  0.83800  0.52770  Biso   1.000  H
  H11      1.0000 0.28700  0.33800  0.97230  Biso   1.000  H
  H12      1.0000 0.71300  0.33800  0.52770  Biso   1.000  H
  H13      1.0000 0.21300  0.16200  0.02770  Biso   1.000  H
  H14      1.0000 0.78700  0.16200  0.47230  Biso   1.000  H
  H15      1.0000 0.71300  0.66200  0.02770  Biso   1.000  H
  H16      1.0000 0.28700  0.66200  0.47230  Biso   1.000  H
  H17      1.0000 0.79890  0.97890  0.88710  Biso   1.000  H
  H18      1.0000 0.20110  0.97890  0.61290  Biso   1.000  H
  H19      1.0000 0.29890  0.47890  0.88710  Biso   1.000  H
  H20      1.0000 0.70110  0.47890  0.61290  Biso   1.000  H
  H21      1.0000 0.20110  0.02110  0.11290  Biso   1.000  H
  H22      1.0000 0.79890  0.02110  0.38710  Biso   1.000  H
  H23      1.0000 0.70110  0.52110  0.11290  Biso   1.000  H
  H24      1.0000 0.29890  0.52110  0.38710  Biso   1.000  H
  H25      1.0000 0.99890  0.02670  0.85200  Biso   1.000  H
  H26      1.0000 0.00110  0.02670  0.64800  Biso   1.000  H
  H27      1.0000 0.49890  0.52670  0.85200  Biso   1.000  H
  H28      1.0000 0.50110  0.52670  0.64800  Biso   1.000  H
  H29      1.0000 0.00110  0.97330  0.14800  Biso   1.000  H
  H30      1.0000 0.99890  0.97330  0.35200  Biso   1.000  H
  H31      1.0000 0.50110  0.47330  0.14800  Biso   1.000  H
  H32      1.0000 0.49890  0.47330  0.35200  Biso   1.000  H
  H33      1.0000 0.18070  0.93790  0.90620  Biso   1.000  H
  H34      1.0000 0.81930  0.93790  0.59380  Biso   1.000  H
  H35      1.0000 0.68070  0.43790  0.90620  Biso   1.000  H
  H36      1.0000 0.31930  0.43790  0.59380  Biso   1.000  H
  H37      1.0000 0.81930  0.06210  0.09380  Biso   1.000  H
  H38      1.0000 0.18070  0.06210  0.40620  Biso   1.000  H
  H39      1.0000 0.31930  0.56210  0.09380  Biso   1.000  H
  H40      1.0000 0.68070  0.56210  0.40620  Biso   1.000  H
  H41      1.0000 0.13780  0.61710  0.86310  Biso   1.000  H
  H42      1.0000 0.86220  0.61710  0.63690  Biso   1.000  H
  H43      1.0000 0.63780  0.11710  0.86310  Biso   1.000  H
  H44      1.0000 0.36220  0.11710  0.63690  Biso   1.000  H
  H45      1.0000 0.86220  0.38290  0.13690  Biso   1.000  H
  H46      1.0000 0.13780  0.38290  0.36310  Biso   1.000  H
  H47      1.0000 0.36220  0.88290  0.13690  Biso   1.000  H
  H48      1.0000 0.63780  0.88290  0.36310  Biso   1.000  H
  H49      1.0000 0.13850  0.58870  0.71980  Biso   1.000  H
  H50      1.0000 0.86150  0.58870  0.78020  Biso   1.000  H
  H51      1.0000 0.63850  0.08870  0.71980  Biso   1.000  H
  H52      1.0000 0.36150  0.08870  0.78020  Biso   1.000  H
  H53      1.0000 0.86150  0.41130  0.28020  Biso   1.000  H
  H54      1.0000 0.13850  0.41130  0.21980  Biso   1.000  H
  H55      1.0000 0.36150  0.91130  0.28020  Biso   1.000  H
  H56      1.0000 0.63850  0.91130  0.21980  Biso   1.000  H
  H57      1.0000 0.26300  0.68820  0.64460  Biso   1.000  H
  H58      1.0000 0.73700  0.68820  0.85540  Biso   1.000  H
  H59      1.0000 0.76300  0.18820  0.64460  Biso   1.000  H
  H60      1.0000 0.23700  0.18820  0.85540  Biso   1.000  H
  H61      1.0000 0.73700  0.31180  0.35540  Biso   1.000  H
  H62      1.0000 0.26300  0.31180  0.14460  Biso   1.000  H
  H63      1.0000 0.23700  0.81180  0.35540  Biso   1.000  H
  H64      1.0000 0.76300  0.81180  0.14460  Biso   1.000  H
  H65      1.0000 0.38020  0.82080  0.71410  Biso   1.000  H
  H66      1.0000 0.61980  0.82080  0.78590  Biso   1.000  H
  H67      1.0000 0.88020  0.32080  0.71410  Biso   1.000  H
  H68      1.0000 0.11980  0.32080  0.78590  Biso   1.000  H
  H69      1.0000 0.61980  0.17920  0.28590  Biso   1.000  H
  H70      1.0000 0.38020  0.17920  0.21410  Biso   1.000  H
  H71      1.0000 0.11980  0.67920  0.28590  Biso   1.000  H
  H72      1.0000 0.88020  0.67920  0.21410  Biso   1.000  H
  H73      1.0000 0.38120  0.83690  0.85920  Biso   1.000  H
  H74      1.0000 0.61880  0.83690  0.64080  Biso   1.000  H
  H75      1.0000 0.88120  0.33690  0.85920  Biso   1.000  H
  H76      1.0000 0.11880  0.33690  0.64080  Biso   1.000  H
  H77      1.0000 0.61880  0.16310  0.14080  Biso   1.000  H
  H78      1.0000 0.38120  0.16310  0.35920  Biso   1.000  H
  H79      1.0000 0.11880  0.66310  0.14080  Biso   1.000  H
  H80      1.0000 0.88120  0.66310  0.35920  Biso   1.000  H
