data_image0
_cell_length_a       7.8448
_cell_length_b       9.0849
_cell_length_c       14.2672
_cell_angle_alpha    97.892
_cell_angle_beta     100.267
_cell_angle_gamma    97.698

_symmetry_space_group_name_H-M    "P 1"
_symmetry_int_tables_number       1

loop_
  _symmetry_equiv_pos_as_xyz
  'x, y, z'

loop_
  _atom_site_label
  _atom_site_occupancy
  _atom_site_fract_x
  _atom_site_fract_y
  _atom_site_fract_z
  _atom_site_thermal_displace_type
  _atom_site_B_iso_or_equiv
  _atom_site_type_symbol
  Cu1      1.0000 0.35922  0.70109  0.77392  Biso   1.000  Cu
  Cu2      1.0000 0.52928  0.46286  0.67450  Biso   1.000  Cu
  O1       1.0000 0.11520  0.47260  0.78950  Biso   1.000  O
  O2       1.0000 0.67910  0.88450  0.76730  Biso   1.000  O
  C1       1.0000 0.48210  0.90070  0.54810  Biso   1.000  C
  H1       1.0000 0.59320  0.95310  0.59270  Biso   1.000  H
  C2       1.0000 0.48400  0.73070  0.52410  Biso   1.000  C
  H2       1.0000 0.59580  0.70230  0.55680  Biso   1.000  H
  C3       1.0000 0.32490  0.65390  0.55640  Biso   1.000  C
  H3       1.0000 0.26180  0.56580  0.50680  Biso   1.000  H
  C4       1.0000 0.21280  0.78100  0.56210  Biso   1.000  C
  H4       1.0000 0.14440  0.77990  0.49570  Biso   1.000  H
  C5       1.0000 0.08570  0.78300  0.63100  Biso   1.000  C
  H5       1.0000 0.01390  0.86410  0.61940  Biso   1.000  H
  C6       1.0000 0.96250  0.63210  0.61120  Biso   1.000  C
  H6       1.0000 0.88990  0.61740  0.54530  Biso   1.000  H
  H7       1.0000 0.03260  0.54940  0.61450  Biso   1.000  H
  O3       1.0000 0.46470  0.95090  0.45703  Biso   1.000  O
  O4       1.0000 0.46140  0.70080  0.42102  Biso   1.000  O
  O5       1.0000 0.37590  0.60840  0.64670  Biso   1.000  O
  O6       1.0000 0.33680  0.91970  0.58930  Biso   1.000  O
  N1       1.0000 0.17890  0.81390  0.73250  Biso   1.000  N
  O7       1.0000 0.85080  0.62690  0.68007  Biso   1.000  O
  H8       1.0000 0.89470  0.58430  0.72510  Biso   1.000  H
  O8       1.0000 0.37600  0.77830  0.90700  Biso   1.000  O
  O9       1.0000 0.94890  0.09000  0.90910  Biso   1.000  O
  O10      1.0000 0.20780  0.16530  0.00992  Biso   1.000  O
  C7       1.0000 0.30300  0.88140  0.94550  Biso   1.000  C
  C8       1.0000 0.17840  0.94860  0.89200  Biso   1.000  C
  C9       1.0000 0.09970  0.07090  0.93670  Biso   1.000  C
  C10      1.0000 0.13590  0.28780  0.05850  Biso   1.000  C
  H9       1.0000 0.04820  0.24790  0.09460  Biso   1.000  H
  H10      1.0000 0.07870  0.34490  0.01100  Biso   1.000  H
  C11      1.0000 0.29010  0.38710  0.12660  Biso   1.000  C
  H11      1.0000 0.24980  0.47230  0.16130  Biso   1.000  H
  H12      1.0000 0.37590  0.42480  0.08980  Biso   1.000  H
  H13      1.0000 0.34500  0.32880  0.17310  Biso   1.000  H
  C12      1.0000 0.11870  0.90720  0.79080  Biso   1.000  C
  H14      1.0000 0.02430  0.95260  0.76260  Biso   1.000  H
  C13      1.0000 0.36090  0.91470  0.05420  Biso   1.000  C
  H15      1.0000 0.44820  0.85180  0.07460  Biso   1.000  H
  H16      1.0000 0.25920  0.89260  0.08410  Biso   1.000  H
  H17      1.0000 0.41270  0.02110  0.07440  Biso   1.000  H
  C14      1.0000 0.51840  0.84050  0.39260  Biso   1.000  C
  C15      1.0000 0.42000  0.83870  0.29110  Biso   1.000  C
  H18      1.0000 0.29340  0.82100  0.28950  Biso   1.000  H
  H19      1.0000 0.45000  0.75810  0.24700  Biso   1.000  H
  H20      1.0000 0.45270  0.93580  0.27110  Biso   1.000  H
  C16      1.0000 0.71380  0.86700  0.40110  Biso   1.000  C
  H21      1.0000 0.77120  0.86640  0.46790  Biso   1.000  H
  H22      1.0000 0.75040  0.96480  0.38300  Biso   1.000  H
  H23      1.0000 0.74730  0.78720  0.35800  Biso   1.000  H
  C17      1.0000 0.87630  0.61780  0.95700  Biso   1.000  C
  H24      1.0000 0.93930  0.69710  0.92760  Biso   1.000  H
  C18      1.0000 0.69150  0.64750  0.96390  Biso   1.000  C
  H25      1.0000 0.67230  0.75010  0.95100  Biso   1.000  H
  C19      1.0000 0.56840  0.52150  0.89130  Biso   1.000  C
  H26      1.0000 0.45780  0.49280  0.91490  Biso   1.000  H
  C20      1.0000 0.67730  0.39540  0.89300  Biso   1.000  C
  H27      1.0000 0.67320  0.35370  0.95400  Biso   1.000  H
  C21      1.0000 0.63980  0.26480  0.81030  Biso   1.000  C
  H28      1.0000 0.72860  0.19740  0.82500  Biso   1.000  H
  C22      1.0000 0.45880  0.17160  0.79970  Biso   1.000  C
  H29      1.0000 0.45440  0.07230  0.76010  Biso   1.000  H
  H30      1.0000 0.43980  0.15420  0.86440  Biso   1.000  H
  O11      1.0000 0.96310  0.61660  0.05189  Biso   1.000  O
  O12      1.0000 0.67840  0.62670  0.05975  Biso   1.000  O
  O13      1.0000 0.53050  0.56970  0.80150  Biso   1.000  O
  O14      1.0000 0.85600  0.47280  0.89943  Biso   1.000  O
  N2       1.0000 0.65830  0.31360  0.71780  Biso   1.000  N
  O15      1.0000 0.32040  0.24330  0.75580  Biso   1.000  O
  H31      1.0000 0.25220  0.18130  0.71140  Biso   1.000  H
  O16      1.0000 0.54260  0.39550  0.54249  Biso   1.000  O
  O17      1.0000 0.02560  0.13590  0.60180  Biso   1.000  O
  O18      1.0000 0.97710  0.23330  0.46574  Biso   1.000  O
  C23      1.0000 0.66470  0.33140  0.51310  Biso   1.000  C
  C24      1.0000 0.78510  0.26890  0.57500  Biso   1.000  C
  C25      1.0000 0.93650  0.20550  0.55050  Biso   1.000  C
  C26      1.0000 0.13010  0.17440  0.44180  Biso   1.000  C
  H32      1.0000 0.11480  0.06410  0.44010  Biso   1.000  H
  H33      1.0000 0.23670  0.22170  0.49040  Biso   1.000  H
  C27      1.0000 0.14580  0.21180  0.34400  Biso   1.000  C
  H34      1.0000 0.24700  0.17310  0.32430  Biso   1.000  H
  H35      1.0000 0.16190  0.32130  0.34700  Biso   1.000  H
  H36      1.0000 0.03870  0.16530  0.29700  Biso   1.000  H
  C28      1.0000 0.76020  0.24920  0.66890  Biso   1.000  C
  H37      1.0000 0.82520  0.18150  0.69910  Biso   1.000  H
  C29      1.0000 0.66340  0.33210  0.40770  Biso   1.000  C
  H38      1.0000 0.56820  0.38290  0.38040  Biso   1.000  H
  H39      1.0000 0.64530  0.22820  0.37370  Biso   1.000  H
  H40      1.0000 0.77600  0.38570  0.40020  Biso   1.000  H
  C30      1.0000 0.85020  0.65980  0.11700  Biso   1.000  C
  C31      1.0000 0.90080  0.82820  0.15510  Biso   1.000  C
  H41      1.0000 0.88990  0.88400  0.10070  Biso   1.000  H
  H42      1.0000 0.02240  0.84960  0.19120  Biso   1.000  H
  H43      1.0000 0.82260  0.85930  0.19780  Biso   1.000  H
  C32      1.0000 0.86130  0.56380  0.19480  Biso   1.000  C
  H44      1.0000 0.82660  0.45750  0.16540  Biso   1.000  H
  H45      1.0000 0.78250  0.59110  0.23810  Biso   1.000  H
  H46      1.0000 0.98220  0.58030  0.23160  Biso   1.000  H
  H47      1.0000 0.15800  0.41600  0.78600  Biso   1.000  H
  H48      1.0000 0.71600  0.76400  0.74300  Biso   1.000  H
  H49      1.0000 0.03000  0.43700  0.82000  Biso   1.000  H
  H50      1.0000 0.77700  0.96000  0.84200  Biso   1.000  H
