data_image0
_cell_length_a       10.4383
_cell_length_b       25.9592
_cell_length_c       15.8939
_cell_angle_alpha    90
_cell_angle_beta     102.435
_cell_angle_gamma    90

_symmetry_space_group_name_H-M    "P 1"
_symmetry_int_tables_number       1

loop_
  _symmetry_equiv_pos_as_xyz
  'x, y, z'

loop_
  _atom_site_label
  _atom_site_occupancy
  _atom_site_fract_x
  _atom_site_fract_y
  _atom_site_fract_z
  _atom_site_thermal_displace_type
  _atom_site_B_iso_or_equiv
  _atom_site_type_symbol
  Cu1      1.0000 0.52088  0.52825  0.25449  Biso   1.000  Cu
  Cu2      1.0000 0.47912  0.02825  0.74551  Biso   1.000  Cu
  O1       1.0000 0.51200  0.49459  0.36072  Biso   1.000  O
  O2       1.0000 0.48800  0.99459  0.63928  Biso   1.000  O
  O3       1.0000 0.46400  0.56088  0.14407  Biso   1.000  O
  O4       1.0000 0.53600  0.06088  0.85593  Biso   1.000  O
  O5       1.0000 0.44150  0.45869  0.05149  Biso   1.000  O
  O6       1.0000 0.55850  0.95869  0.94851  Biso   1.000  O
  O7       1.0000 0.51360  0.43238  0.45718  Biso   1.000  O
  O8       1.0000 0.48640  0.93238  0.54282  Biso   1.000  O
  O9       1.0000 0.60410  0.34208  0.43132  Biso   1.000  O
  O10      1.0000 0.39590  0.84208  0.56868  Biso   1.000  O
  O11      1.0000 0.62960  0.32536  0.29818  Biso   1.000  O
  O12      1.0000 0.37040  0.82536  0.70182  Biso   1.000  O
  O13      1.0000 0.38280  0.54524  0.91233  Biso   1.000  O
  O14      1.0000 0.61720  0.04524  0.08767  Biso   1.000  O
  O15      1.0000 0.29980  0.46420  0.91745  Biso   1.000  O
  O16      1.0000 0.70020  0.96420  0.08255  Biso   1.000  O
  O17      1.0000 0.87810  0.49290  0.21398  Biso   1.000  O
  O18      1.0000 0.12190  0.99290  0.78602  Biso   1.000  O
  H1       1.0000 0.87400  0.50460  0.26260  Biso   1.000  H
  H2       1.0000 0.12600  0.00460  0.73740  Biso   1.000  H
  N1       1.0000 0.60450  0.47081  0.21484  Biso   1.000  N
  N2       1.0000 0.39550  0.97081  0.78516  Biso   1.000  N
  C1       1.0000 0.53730  0.44823  0.38165  Biso   1.000  C
  C2       1.0000 0.46270  0.94823  0.61835  Biso   1.000  C
  C3       1.0000 0.58780  0.41149  0.33120  Biso   1.000  C
  C4       1.0000 0.41220  0.91149  0.66880  Biso   1.000  C
  C5       1.0000 0.61910  0.42635  0.25270  Biso   1.000  C
  C6       1.0000 0.38090  0.92635  0.74730  Biso   1.000  C
  H3       1.0000 0.65590  0.40010  0.22360  Biso   1.000  H
  H4       1.0000 0.34410  0.90010  0.77640  Biso   1.000  H
  C7       1.0000 0.65500  0.47623  0.13595  Biso   1.000  C
  C8       1.0000 0.34500  0.97623  0.86405  Biso   1.000  C
  H5       1.0000 0.68610  0.44160  0.12140  Biso   1.000  H
  H6       1.0000 0.31390  0.94160  0.87860  Biso   1.000  H
  C9       1.0000 0.54980  0.49395  0.06037  Biso   1.000  C
  C10      1.0000 0.45020  0.99395  0.93963  Biso   1.000  C
  H7       1.0000 0.58600  0.49160  0.00710  Biso   1.000  H
  H8       1.0000 0.41400  0.99160  0.99290  Biso   1.000  H
  C11      1.0000 0.48840  0.54779  0.06265  Biso   1.000  C
  C12      1.0000 0.51160  0.04779  0.93735  Biso   1.000  C
  H9       1.0000 0.54320  0.57470  0.04230  Biso   1.000  H
  H10      1.0000 0.45680  0.07470  0.95770  Biso   1.000  H
  C13      1.0000 0.35940  0.53978  0.99718  Biso   1.000  C
  C14      1.0000 0.64060  0.03978  0.00282  Biso   1.000  C
  H11      1.0000 0.28720  0.56250  0.00780  Biso   1.000  H
  H12      1.0000 0.71280  0.06250  0.99220  Biso   1.000  H
  C15      1.0000 0.32950  0.48255  0.00373  Biso   1.000  C
  C16      1.0000 0.67050  0.98255  0.99627  Biso   1.000  C
  H13      1.0000 0.25320  0.47740  0.03160  Biso   1.000  H
  H14      1.0000 0.74680  0.97740  0.96840  Biso   1.000  H
  C17      1.0000 0.32290  0.50374  0.85950  Biso   1.000  C
  C18      1.0000 0.67710  0.00374  0.14050  Biso   1.000  C
  C19      1.0000 0.19350  0.51920  0.80440  Biso   1.000  C
  C20      1.0000 0.80650  0.01920  0.19560  Biso   1.000  C
  H15      1.0000 0.13550  0.53140  0.84110  Biso   1.000  H
  H16      1.0000 0.86450  0.03140  0.15890  Biso   1.000  H
  H17      1.0000 0.15340  0.48950  0.77070  Biso   1.000  H
  H18      1.0000 0.84660  0.98950  0.22930  Biso   1.000  H
  H19      1.0000 0.20700  0.54690  0.76530  Biso   1.000  H
  H20      1.0000 0.79300  0.04690  0.23470  Biso   1.000  H
  C21      1.0000 0.42160  0.48442  0.80830  Biso   1.000  C
  C22      1.0000 0.57840  0.98442  0.19170  Biso   1.000  C
  H21      1.0000 0.50410  0.47540  0.84810  Biso   1.000  H
  H22      1.0000 0.49590  0.97540  0.15190  Biso   1.000  H
  H23      1.0000 0.43790  0.51150  0.76900  Biso   1.000  H
  H24      1.0000 0.56210  0.01150  0.23100  Biso   1.000  H
  H25      1.0000 0.38620  0.45390  0.77500  Biso   1.000  H
  H26      1.0000 0.61380  0.95390  0.22500  Biso   1.000  H
  C23      1.0000 0.77220  0.51263  0.15090  Biso   1.000  C
  C24      1.0000 0.22780  0.01263  0.84910  Biso   1.000  C
  H27      1.0000 0.80110  0.51770  0.09610  Biso   1.000  H
  H28      1.0000 0.19890  0.01770  0.90390  Biso   1.000  H
  H29      1.0000 0.74570  0.54660  0.17000  Biso   1.000  H
  H30      1.0000 0.25430  0.04660  0.83000  Biso   1.000  H
  C25      1.0000 0.44710  0.46876  0.50190  Biso   1.000  C
  C26      1.0000 0.55290  0.96876  0.49810  Biso   1.000  C
  H31      1.0000 0.35840  0.47640  0.46740  Biso   1.000  H
  H32      1.0000 0.64160  0.97640  0.53260  Biso   1.000  H
  H33      1.0000 0.49730  0.50130  0.51250  Biso   1.000  H
  H34      1.0000 0.50270  0.00130  0.48750  Biso   1.000  H
  C27      1.0000 0.43820  0.44377  0.58600  Biso   1.000  C
  C28      1.0000 0.56180  0.94377  0.41400  Biso   1.000  C
  H35      1.0000 0.39400  0.46720  0.61890  Biso   1.000  H
  H36      1.0000 0.60600  0.96720  0.38110  Biso   1.000  H
  H37      1.0000 0.52670  0.43620  0.61920  Biso   1.000  H
  H38      1.0000 0.47330  0.93620  0.38080  Biso   1.000  H
  H39      1.0000 0.38810  0.41170  0.57450  Biso   1.000  H
  H40      1.0000 0.61190  0.91170  0.42550  Biso   1.000  H
  C29      1.0000 0.60820  0.35616  0.35040  Biso   1.000  C
  C30      1.0000 0.39180  0.85616  0.64960  Biso   1.000  C
  C31      1.0000 0.60590  0.28653  0.44620  Biso   1.000  C
  C32      1.0000 0.39410  0.78653  0.55380  Biso   1.000  C
  H41      1.0000 0.64830  0.27910  0.50700  Biso   1.000  H
  H42      1.0000 0.35170  0.77910  0.49300  Biso   1.000  H
  H43      1.0000 0.65720  0.26930  0.40870  Biso   1.000  H
  H44      1.0000 0.34280  0.76930  0.59130  Biso   1.000  H
  C33      1.0000 0.46900  0.26655  0.42710  Biso   1.000  C
  C34      1.0000 0.53100  0.76655  0.57290  Biso   1.000  C
  H45      1.0000 0.47020  0.22920  0.43640  Biso   1.000  H
  H46      1.0000 0.52980  0.72920  0.56360  Biso   1.000  H
  H47      1.0000 0.42750  0.27410  0.36700  Biso   1.000  H
  H48      1.0000 0.57250  0.77410  0.63300  Biso   1.000  H
  H49      1.0000 0.41920  0.28320  0.46520  Biso   1.000  H
  H50      1.0000 0.58080  0.78320  0.53480  Biso   1.000  H
  Cu3      1.0000 0.42145  0.63028  0.17815  Biso   1.000  Cu
  Cu4      1.0000 0.57855  0.13029  0.82185  Biso   1.000  Cu
  O19      1.0000 0.35970  0.65365  0.06118  Biso   1.000  O
  O20      1.0000 0.64030  0.15365  0.93882  Biso   1.000  O
  O21      1.0000 0.47790  0.59647  0.28720  Biso   1.000  O
  O22      1.0000 0.52210  0.09647  0.71280  Biso   1.000  O
  O23      1.0000 0.33015  0.68390  0.36399  Biso   1.000  O
  O24      1.0000 0.66985  0.18390  0.63601  Biso   1.000  O
  O25      1.0000 0.26480  0.70371  0.95285  Biso   1.000  O
  O26      1.0000 0.73520  0.20371  0.04715  Biso   1.000  O
  O27      1.0000 0.23130  0.79746  0.97546  Biso   1.000  O
  O28      1.0000 0.76870  0.29746  0.02454  Biso   1.000  O
  O29      1.0000 0.32700  0.83432  0.09973  Biso   1.000  O
  O30      1.0000 0.67300  0.33432  0.90027  Biso   1.000  O
  O31      1.0000 0.41780  0.59128  0.50120  Biso   1.000  O
  O32      1.0000 0.58220  0.09128  0.49880  Biso   1.000  O
  O33      1.0000 0.26850  0.65506  0.48772  Biso   1.000  O
  O34      1.0000 0.73150  0.15506  0.51228  Biso   1.000  O
  O35      1.0000 0.71964  0.73616  0.26824  Biso   1.000  O
  O36      1.0000 0.28036  0.23616  0.73176  Biso   1.000  O
  H51      1.0000 0.80080  0.73820  0.28820  Biso   1.000  H
  H52      1.0000 0.19920  0.23820  0.71180  Biso   1.000  H
  N3       1.0000 0.44370  0.69996  0.22130  Biso   1.000  N
  N4       1.0000 0.55630  0.19996  0.77870  Biso   1.000  N
  C35      1.0000 0.32220  0.69792  0.03513  Biso   1.000  C
  C36      1.0000 0.67780  0.19792  0.96487  Biso   1.000  C
  C37      1.0000 0.33600  0.74289  0.08775  Biso   1.000  C
  C38      1.0000 0.66400  0.24289  0.91225  Biso   1.000  C
  C39      1.0000 0.40100  0.74001  0.17579  Biso   1.000  C
  C40      1.0000 0.59900  0.24001  0.82421  Biso   1.000  C
  H53      1.0000 0.41510  0.77200  0.20530  Biso   1.000  H
  H54      1.0000 0.58490  0.27200  0.79470  Biso   1.000  H
  C41      1.0000 0.51670  0.70904  0.31033  Biso   1.000  C
  C42      1.0000 0.48330  0.20904  0.68967  Biso   1.000  C
  H55      1.0000 0.50260  0.74570  0.32540  Biso   1.000  H
  H56      1.0000 0.49740  0.24570  0.67460  Biso   1.000  H
  C43      1.0000 0.46870  0.67487  0.37437  Biso   1.000  C
  C44      1.0000 0.53130  0.17487  0.62563  Biso   1.000  C
  H57      1.0000 0.51260  0.68650  0.43350  Biso   1.000  H
  H58      1.0000 0.48740  0.18650  0.56650  Biso   1.000  H
  C45      1.0000 0.48600  0.61609  0.37029  Biso   1.000  C
  C46      1.0000 0.51400  0.11609  0.62971  Biso   1.000  C
  H59      1.0000 0.57150  0.60580  0.40820  Biso   1.000  H
  H60      1.0000 0.42850  0.10580  0.59180  Biso   1.000  H
  C47      1.0000 0.37220  0.59725  0.40989  Biso   1.000  C
  C48      1.0000 0.62780  0.09725  0.59011  Biso   1.000  C
  H61      1.0000 0.33030  0.56520  0.38160  Biso   1.000  H
  H62      1.0000 0.66970  0.06520  0.61840  Biso   1.000  H
  C49      1.0000 0.27570  0.64287  0.40076  Biso   1.000  C
  C50      1.0000 0.72430  0.14287  0.59924  Biso   1.000  C
  H63      1.0000 0.18770  0.63320  0.36540  Biso   1.000  H
  H64      1.0000 0.81230  0.13320  0.63460  Biso   1.000  H
  C51      1.0000 0.31990  0.61258  0.54080  Biso   1.000  C
  C52      1.0000 0.68010  0.11258  0.45920  Biso   1.000  C
  C53      1.0000 0.21300  0.57340  0.54380  Biso   1.000  C
  C54      1.0000 0.78700  0.07340  0.45620  Biso   1.000  C
  H65      1.0000 0.17310  0.56220  0.48510  Biso   1.000  H
  H66      1.0000 0.82690  0.06220  0.51490  Biso   1.000  H
  H67      1.0000 0.14580  0.58910  0.57010  Biso   1.000  H
  H68      1.0000 0.85420  0.08910  0.42990  Biso   1.000  H
  H69      1.0000 0.25110  0.54360  0.57810  Biso   1.000  H
  H70      1.0000 0.74890  0.04360  0.42190  Biso   1.000  H
  C55      1.0000 0.38670  0.63213  0.62890  Biso   1.000  C
  C56      1.0000 0.61330  0.13213  0.37110  Biso   1.000  C
  H71      1.0000 0.45400  0.65740  0.62300  Biso   1.000  H
  H72      1.0000 0.54600  0.15740  0.37700  Biso   1.000  H
  H73      1.0000 0.42780  0.60320  0.66430  Biso   1.000  H
  H74      1.0000 0.57220  0.10320  0.33570  Biso   1.000  H
  H75      1.0000 0.32160  0.64840  0.65640  Biso   1.000  H
  H76      1.0000 0.67840  0.14840  0.34360  Biso   1.000  H
  C57      1.0000 0.66370  0.70089  0.31835  Biso   1.000  C
  C58      1.0000 0.33630  0.20089  0.68165  Biso   1.000  C
  H77      1.0000 0.70870  0.70450  0.37960  Biso   1.000  H
  H78      1.0000 0.29130  0.20450  0.62040  Biso   1.000  H
  H79      1.0000 0.67870  0.66540  0.30000  Biso   1.000  H
  H80      1.0000 0.32130  0.16540  0.70000  Biso   1.000  H
  C59      1.0000 0.25800  0.65907  0.89750  Biso   1.000  C
  C60      1.0000 0.74200  0.15907  0.10250  Biso   1.000  C
  H81      1.0000 0.20720  0.63110  0.91730  Biso   1.000  H
  H82      1.0000 0.79280  0.13110  0.08270  Biso   1.000  H
  H83      1.0000 0.34710  0.64610  0.89710  Biso   1.000  H
  H84      1.0000 0.65290  0.14610  0.10290  Biso   1.000  H
  C61      1.0000 0.19090  0.67717  0.80960  Biso   1.000  C
  C62      1.0000 0.80910  0.17717  0.19040  Biso   1.000  C
  H85      1.0000 0.18320  0.64840  0.76880  Biso   1.000  H
  H86      1.0000 0.81680  0.14840  0.23120  Biso   1.000  H
  H87      1.0000 0.24230  0.70490  0.79110  Biso   1.000  H
  H88      1.0000 0.75770  0.20490  0.20890  Biso   1.000  H
  H89      1.0000 0.10320  0.69000  0.81120  Biso   1.000  H
  H90      1.0000 0.89680  0.19000  0.18880  Biso   1.000  H
  C63      1.0000 0.29810  0.79445  0.05695  Biso   1.000  C
  C64      1.0000 0.70190  0.29445  0.94305  Biso   1.000  C
  C65      1.0000 0.20840  0.84851  0.93920  Biso   1.000  C
  C66      1.0000 0.79160  0.34851  0.06080  Biso   1.000  C
  H91      1.0000 0.29280  0.86640  0.94110  Biso   1.000  H
  H92      1.0000 0.70720  0.36640  0.05890  Biso   1.000  H
  H93      1.0000 0.15620  0.86910  0.97210  Biso   1.000  H
  H94      1.0000 0.84380  0.36910  0.02790  Biso   1.000  H
  C67      1.0000 0.13470  0.84212  0.84750  Biso   1.000  C
  C68      1.0000 0.86530  0.34212  0.15250  Biso   1.000  C
  H95      1.0000 0.11650  0.87610  0.82070  Biso   1.000  H
  H96      1.0000 0.88350  0.37610  0.17930  Biso   1.000  H
  H97      1.0000 0.05180  0.82420  0.84660  Biso   1.000  H
  H98      1.0000 0.94820  0.32420  0.15340  Biso   1.000  H
  H99      1.0000 0.18770  0.82190  0.81550  Biso   1.000  H
  H100     1.0000 0.81230  0.32190  0.18450  Biso   1.000  H
  Cu5      1.0000 0.00229  0.82795  0.18970  Biso   1.000  Cu
  Cu6      1.0000 0.99771  0.32795  0.81030  Biso   1.000  Cu
  O37      1.0000 0.94910  0.85438  0.07475  Biso   1.000  O
  O38      1.0000 0.05090  0.35438  0.92525  Biso   1.000  O
  O39      1.0000 0.00520  0.80030  0.30134  Biso   1.000  O
  O40      1.0000 0.99480  0.30030  0.69866  Biso   1.000  O
  O41      1.0000 0.00640  0.91080  0.36809  Biso   1.000  O
  O42      1.0000 0.99360  0.41080  0.63191  Biso   1.000  O
  O43      1.0000 0.91130  0.91009  0.96646  Biso   1.000  O
  O44      1.0000 0.08870  0.41009  0.03354  Biso   1.000  O
  O45      1.0000 0.17310  0.01254  0.10670  Biso   1.000  O
  O46      1.0000 0.82690  0.51254  0.89330  Biso   1.000  O
  O47      1.0000 0.99700  0.00816  0.99886  Biso   1.000  O
  O48      1.0000 0.00300  0.50816  0.00114  Biso   1.000  O
  O49      1.0000 0.99020  0.83635  0.51851  Biso   1.000  O
  O50      1.0000 0.00980  0.33635  0.48149  Biso   1.000  O
  O51      1.0000 0.89760  0.91515  0.48199  Biso   1.000  O
  O52      1.0000 0.10240  0.41515  0.51801  Biso   1.000  O
  O53      1.0000 0.39300  0.86208  0.26923  Biso   1.000  O
  O54      1.0000 0.60700  0.36208  0.73077  Biso   1.000  O
  H101     1.0000 0.36300  0.85160  0.21880  Biso   1.000  H
  H102     1.0000 0.63700  0.35160  0.78120  Biso   1.000  H
  N5       1.0000 0.11290  0.88564  0.22737  Biso   1.000  N
  N6       1.0000 0.88710  0.38564  0.77263  Biso   1.000  N
  C69      1.0000 0.96840  0.89863  0.04724  Biso   1.000  C
  C70      1.0000 0.03160  0.39863  0.95276  Biso   1.000  C
  C71      1.0000 0.05210  0.93653  0.09560  Biso   1.000  C
  C72      1.0000 0.94790  0.43653  0.90440  Biso   1.000  C
  C73      1.0000 0.12080  0.92629  0.18092  Biso   1.000  C
  C74      1.0000 0.87920  0.42629  0.81908  Biso   1.000  C
  H103     1.0000 0.17990  0.95230  0.20750  Biso   1.000  H
  H104     1.0000 0.82010  0.45230  0.79250  Biso   1.000  H
  C75      1.0000 0.19470  0.88567  0.31573  Biso   1.000  C
  C76      1.0000 0.80530  0.38567  0.68427  Biso   1.000  C
  H105     1.0000 0.23400  0.92080  0.32720  Biso   1.000  H
  H106     1.0000 0.76600  0.42080  0.67280  Biso   1.000  H
  C77      1.0000 0.11420  0.87532  0.38217  Biso   1.000  C
  C78      1.0000 0.88580  0.37532  0.61783  Biso   1.000  C
  H107     1.0000 0.17040  0.88230  0.44040  Biso   1.000  H
  H108     1.0000 0.82960  0.38230  0.55960  Biso   1.000  H
  C79      1.0000 0.30680  0.84740  0.32313  Biso   1.000  C
  C80      1.0000 0.69320  0.34740  0.67687  Biso   1.000  C
  H109     1.0000 0.35610  0.84580  0.38370  Biso   1.000  H
  H110     1.0000 0.64390  0.34580  0.61630  Biso   1.000  H
  H111     1.0000 0.27090  0.81270  0.30640  Biso   1.000  H
  H112     1.0000 0.72910  0.31270  0.69360  Biso   1.000  H
  C81      1.0000 0.05180  0.82137  0.38407  Biso   1.000  C
  C82      1.0000 0.94820  0.32137  0.61593  Biso   1.000  C
  H113     1.0000 0.11510  0.79720  0.42060  Biso   1.000  H
  H114     1.0000 0.88490  0.29720  0.57940  Biso   1.000  H
  C83      1.0000 0.93940  0.83427  0.42789  Biso   1.000  C
  C84      1.0000 0.06060  0.33427  0.57211  Biso   1.000  C
  H115     1.0000 0.86290  0.81040  0.41130  Biso   1.000  H
  H116     1.0000 0.13710  0.31040  0.58870  Biso   1.000  H
  C85      1.0000 0.90470  0.89063  0.40433  Biso   1.000  C
  C86      1.0000 0.09530  0.39063  0.59567  Biso   1.000  C
  H117     1.0000 0.81850  0.89290  0.36220  Biso   1.000  H
  H118     1.0000 0.18150  0.39290  0.63780  Biso   1.000  H
  C87      1.0000 0.93840  0.88076  0.55250  Biso   1.000  C
  C88      1.0000 0.06160  0.38076  0.44750  Biso   1.000  C
  C89      1.0000 0.82030  0.86600  0.58800  Biso   1.000  C
  C90      1.0000 0.17970  0.36600  0.41200  Biso   1.000  C
  H119     1.0000 0.75310  0.85080  0.54200  Biso   1.000  H
  H120     1.0000 0.24690  0.35080  0.45800  Biso   1.000  H
  H121     1.0000 0.78460  0.89680  0.61050  Biso   1.000  H
  H122     1.0000 0.21540  0.39680  0.38950  Biso   1.000  H
  H123     1.0000 0.84640  0.84090  0.63460  Biso   1.000  H
  H124     1.0000 0.15360  0.34090  0.36540  Biso   1.000  H
  C91      1.0000 0.04660  0.90509  0.61860  Biso   1.000  C
  C92      1.0000 0.95340  0.40509  0.38140  Biso   1.000  C
  H125     1.0000 0.12070  0.91330  0.59210  Biso   1.000  H
  H126     1.0000 0.87930  0.41330  0.40790  Biso   1.000  H
  H127     1.0000 0.07540  0.88100  0.66650  Biso   1.000  H
  H128     1.0000 0.92460  0.38100  0.33350  Biso   1.000  H
  H129     1.0000 0.01420  0.93680  0.64030  Biso   1.000  H
  H130     1.0000 0.98580  0.43680  0.35970  Biso   1.000  H
  C93      1.0000 0.81910  0.87158  0.92010  Biso   1.000  C
  C94      1.0000 0.18090  0.37158  0.07990  Biso   1.000  C
  H131     1.0000 0.74490  0.86670  0.94900  Biso   1.000  H
  H132     1.0000 0.25510  0.36670  0.05100  Biso   1.000  H
  H133     1.0000 0.86390  0.83810  0.91880  Biso   1.000  H
  H134     1.0000 0.13610  0.33810  0.08120  Biso   1.000  H
  C95      1.0000 0.77010  0.89149  0.82980  Biso   1.000  C
  C96      1.0000 0.22990  0.39149  0.17020  Biso   1.000  C
  H135     1.0000 0.70800  0.86670  0.79690  Biso   1.000  H
  H136     1.0000 0.29200  0.36670  0.20310  Biso   1.000  H
  H137     1.0000 0.84440  0.89600  0.80180  Biso   1.000  H
  H138     1.0000 0.15560  0.39600  0.19820  Biso   1.000  H
  H139     1.0000 0.72610  0.92470  0.83190  Biso   1.000  H
  H140     1.0000 0.27390  0.42470  0.16810  Biso   1.000  H
  C97      1.0000 0.06690  0.98727  0.06130  Biso   1.000  C
  C98      1.0000 0.93310  0.48727  0.93870  Biso   1.000  C
  C99      1.0000 0.18920  0.06637  0.08660  Biso   1.000  C
  C100     1.0000 0.81080  0.56637  0.91340  Biso   1.000  C
  H141     1.0000 0.15690  0.07220  0.02410  Biso   1.000  H
  H142     1.0000 0.84310  0.57220  0.97590  Biso   1.000  H
  H143     1.0000 0.28340  0.07560  0.10170  Biso   1.000  H
  H144     1.0000 0.71660  0.57560  0.89830  Biso   1.000  H
  C101     1.0000 0.11640  0.09870  0.13480  Biso   1.000  C
  C102     1.0000 0.88360  0.59870  0.86520  Biso   1.000  C
  H145     1.0000 0.12930  0.13500  0.12180  Biso   1.000  H
  H146     1.0000 0.87070  0.63500  0.87820  Biso   1.000  H
  H147     1.0000 0.14810  0.09270  0.19660  Biso   1.000  H
  H148     1.0000 0.85190  0.59270  0.80340  Biso   1.000  H
  H149     1.0000 0.02290  0.09030  0.11830  Biso   1.000  H
  H150     1.0000 0.97710  0.59030  0.88170  Biso   1.000  H
  Cu7      1.0000 0.95685  0.72866  0.27575  Biso   1.000  Cu
  Cu8      1.0000 0.04315  0.22866  0.72425  Biso   1.000  Cu
  O55      1.0000 0.98230  0.70952  0.39577  Biso   1.000  O
  O56      1.0000 0.01770  0.20952  0.60423  Biso   1.000  O
  O57      1.0000 0.94110  0.75840  0.16306  Biso   1.000  O
  O58      1.0000 0.05890  0.25840  0.83694  Biso   1.000  O
  O59      1.0000 0.74295  0.67197  0.09685  Biso   1.000  O
  O60      1.0000 0.25705  0.17197  0.90315  Biso   1.000  O
  O61      1.0000 0.95250  0.66495  0.50895  Biso   1.000  O
  O62      1.0000 0.04750  0.16495  0.49105  Biso   1.000  O
  O63      1.0000 0.86650  0.57406  0.49018  Biso   1.000  O
  O64      1.0000 0.13350  0.07406  0.50982  Biso   1.000  O
  O65      1.0000 0.84430  0.53543  0.36316  Biso   1.000  O
  O66      1.0000 0.15570  0.03543  0.63684  Biso   1.000  O
  O67      1.0000 0.74760  0.75150  0.94559  Biso   1.000  O
  O68      1.0000 0.25240  0.25150  0.05441  Biso   1.000  O
  O69      1.0000 0.59030  0.70011  0.97626  Biso   1.000  O
  O70      1.0000 0.40970  0.20011  0.02374  Biso   1.000  O
  O71      1.0000 0.19588  0.61721  0.19345  Biso   1.000  O
  O72      1.0000 0.80412  0.11721  0.80655  Biso   1.000  O
  H151     1.0000 0.26580  0.61610  0.17540  Biso   1.000  H
  H152     1.0000 0.73420  0.11610  0.82460  Biso   1.000  H
  N7       1.0000 0.95200  0.65796  0.23951  Biso   1.000  N
  N8       1.0000 0.04800  0.15796  0.76049  Biso   1.000  N
  C103     1.0000 0.95380  0.66761  0.42592  Biso   1.000  C
  C104     1.0000 0.04620  0.16761  0.57408  Biso   1.000  C
  C105     1.0000 0.92260  0.62137  0.37661  Biso   1.000  C
  C106     1.0000 0.07740  0.12137  0.62339  Biso   1.000  C
  C107     1.0000 0.93260  0.61982  0.28860  Biso   1.000  C
  C108     1.0000 0.06740  0.11982  0.71140  Biso   1.000  C
  H153     1.0000 0.92390  0.58680  0.26240  Biso   1.000  H
  H154     1.0000 0.07610  0.08680  0.73760  Biso   1.000  H
  C109     1.0000 0.96500  0.64506  0.15204  Biso   1.000  C
  C110     1.0000 0.03500  0.14506  0.84796  Biso   1.000  C
  H155     1.0000 0.93950  0.60810  0.14110  Biso   1.000  H
  H156     1.0000 0.06050  0.10810  0.85890  Biso   1.000  H
  C111     1.0000 0.87460  0.67761  0.08448  Biso   1.000  C
  C112     1.0000 0.12540  0.17761  0.91552  Biso   1.000  C
  H157     1.0000 0.87720  0.66310  0.02660  Biso   1.000  H
  H158     1.0000 0.12280  0.16310  0.97340  Biso   1.000  H
  C113     1.0000 0.89960  0.73548  0.08142  Biso   1.000  C
  C114     1.0000 0.10040  0.23548  0.91858  Biso   1.000  C
  H159     1.0000 0.96400  0.74280  0.04460  Biso   1.000  H
  H160     1.0000 0.03600  0.24280  0.95540  Biso   1.000  H
  C115     1.0000 0.76300  0.75482  0.03736  Biso   1.000  C
  C116     1.0000 0.23700  0.25482  0.96264  Biso   1.000  C
  H161     1.0000 0.74400  0.79010  0.05690  Biso   1.000  H
  H162     1.0000 0.25600  0.29010  0.94310  Biso   1.000  H
  C117     1.0000 0.66770  0.71410  0.05756  Biso   1.000  C
  C118     1.0000 0.33230  0.21410  0.94244  Biso   1.000  C
  H163     1.0000 0.61210  0.72840  0.09590  Biso   1.000  H
  H164     1.0000 0.38790  0.22840  0.90410  Biso   1.000  H
  C119     1.0000 0.61570  0.73519  0.91380  Biso   1.000  C
  C120     1.0000 0.38430  0.23519  0.08620  Biso   1.000  C
  C121     1.0000 0.52230  0.78026  0.90420  Biso   1.000  C
  C122     1.0000 0.47770  0.28026  0.09580  Biso   1.000  C
  H165     1.0000 0.52860  0.79690  0.96030  Biso   1.000  H
  H166     1.0000 0.47140  0.29690  0.03970  Biso   1.000  H
  H167     1.0000 0.43240  0.76800  0.88260  Biso   1.000  H
  H168     1.0000 0.56760  0.26800  0.11740  Biso   1.000  H
  H169     1.0000 0.54530  0.80510  0.86350  Biso   1.000  H
  H170     1.0000 0.45470  0.30510  0.13650  Biso   1.000  H
  C123     1.0000 0.60930  0.70770  0.82950  Biso   1.000  C
  C124     1.0000 0.39070  0.20770  0.17050  Biso   1.000  C
  H171     1.0000 0.67110  0.67870  0.83840  Biso   1.000  H
  H172     1.0000 0.32890  0.17870  0.16160  Biso   1.000  H
  H173     1.0000 0.63260  0.73160  0.78760  Biso   1.000  H
  H174     1.0000 0.36740  0.23160  0.21240  Biso   1.000  H
  H175     1.0000 0.52020  0.69470  0.80770  Biso   1.000  H
  H176     1.0000 0.47980  0.19470  0.19230  Biso   1.000  H
  C125     1.0000 0.10630  0.65126  0.14112  Biso   1.000  C
  C126     1.0000 0.89370  0.15126  0.85888  Biso   1.000  C
  H177     1.0000 0.10880  0.64520  0.08000  Biso   1.000  H
  H178     1.0000 0.89120  0.14520  0.92000  Biso   1.000  H
  H179     1.0000 0.13490  0.68720  0.15540  Biso   1.000  H
  H180     1.0000 0.86510  0.18720  0.84460  Biso   1.000  H
  C127     1.0000 0.98290  0.71117  0.56050  Biso   1.000  C
  C128     1.0000 0.01710  0.21117  0.43950  Biso   1.000  C
  H181     1.0000 0.95590  0.74210  0.52460  Biso   1.000  H
  H182     1.0000 0.04410  0.24210  0.47540  Biso   1.000  H
  H183     1.0000 0.07840  0.71330  0.58480  Biso   1.000  H
  H184     1.0000 0.92160  0.21330  0.41520  Biso   1.000  H
  C129     1.0000 0.91130  0.70840  0.62950  Biso   1.000  C
  C130     1.0000 0.08870  0.20840  0.37050  Biso   1.000  C
  H185     1.0000 0.93050  0.73910  0.66600  Biso   1.000  H
  H186     1.0000 0.06950  0.23910  0.33400  Biso   1.000  H
  H187     1.0000 0.93820  0.67750  0.66430  Biso   1.000  H
  H188     1.0000 0.06180  0.17750  0.33570  Biso   1.000  H
  H189     1.0000 0.81690  0.70680  0.60470  Biso   1.000  H
  H190     1.0000 0.18310  0.20680  0.39530  Biso   1.000  H
  C131     1.0000 0.87620  0.57367  0.40800  Biso   1.000  C
  C132     1.0000 0.12380  0.07367  0.59200  Biso   1.000  C
  C133     1.0000 0.82060  0.52696  0.52360  Biso   1.000  C
  C134     1.0000 0.17940  0.02696  0.47640  Biso   1.000  C
  H191     1.0000 0.88600  0.49900  0.52630  Biso   1.000  H
  H192     1.0000 0.11400  0.99900  0.47370  Biso   1.000  H
  H193     1.0000 0.73650  0.51560  0.48670  Biso   1.000  H
  H194     1.0000 0.26350  0.01560  0.51330  Biso   1.000  H
  C135     1.0000 0.80300  0.54060  0.61220  Biso   1.000  C
  C136     1.0000 0.19700  0.04060  0.38780  Biso   1.000  C
  H195     1.0000 0.77190  0.51030  0.63870  Biso   1.000  H
  H196     1.0000 0.22810  0.01030  0.36130  Biso   1.000  H
  H197     1.0000 0.73840  0.56840  0.60820  Biso   1.000  H
  H198     1.0000 0.26160  0.06840  0.39180  Biso   1.000  H
  H199     1.0000 0.88700  0.55200  0.64760  Biso   1.000  H
  H200     1.0000 0.11300  0.05200  0.35240  Biso   1.000  H
  O73      1.0000 0.12220  0.51766  0.17420  Biso   1.000  O
  O74      1.0000 0.87780  0.01766  0.82580  Biso   1.000  O
  O75      1.0000 0.65350  0.83708  0.27770  Biso   1.000  O
  O76      1.0000 0.34650  0.33708  0.72230  Biso   1.000  O
  O77      1.0000 0.60090  0.86223  0.09920  Biso   1.000  O
  O78      1.0000 0.39910  0.36223  0.90080  Biso   1.000  O
  H201     1.0000 0.59200  0.84250  0.28310  Biso   1.000  H
  H202     1.0000 0.40800  0.34250  0.71690  Biso   1.000  H
  H203     1.0000 0.66700  0.85300  0.20470  Biso   1.000  H
  H204     1.0000 0.33300  0.35300  0.79530  Biso   1.000  H
  H205     1.0000 0.08500  0.51520  0.12400  Biso   1.000  H
  H206     1.0000 0.91500  0.01520  0.87600  Biso   1.000  H
  H207     1.0000 0.06400  0.51900  0.20100  Biso   1.000  H
  H208     1.0000 0.93600  0.01900  0.79900  Biso   1.000  H
  H209     1.0000 0.47900  0.86000  0.06700  Biso   1.000  H
  H210     1.0000 0.52100  0.36000  0.93300  Biso   1.000  H
