data_image0
_cell_length_a       22.392
_cell_length_b       9.1191
_cell_length_c       13.0415
_cell_angle_alpha    90
_cell_angle_beta     121.317
_cell_angle_gamma    90

_symmetry_space_group_name_H-M    "P 1"
_symmetry_int_tables_number       1

loop_
  _symmetry_equiv_pos_as_xyz
  'x, y, z'

loop_
  _atom_site_label
  _atom_site_occupancy
  _atom_site_fract_x
  _atom_site_fract_y
  _atom_site_fract_z
  _atom_site_thermal_displace_type
  _atom_site_B_iso_or_equiv
  _atom_site_type_symbol
  Cu1      1.0000 0.70087  0.14544  0.12355  Biso   1.000  Cu
  Cu2      1.0000 0.29913  0.14544  0.37645  Biso   1.000  Cu
  Cu3      1.0000 0.20087  0.64544  0.12355  Biso   1.000  Cu
  Cu4      1.0000 0.79913  0.64544  0.37645  Biso   1.000  Cu
  Cu5      1.0000 0.29913  0.85456  0.87645  Biso   1.000  Cu
  Cu6      1.0000 0.70087  0.85456  0.62355  Biso   1.000  Cu
  Cu7      1.0000 0.79913  0.35456  0.87645  Biso   1.000  Cu
  Cu8      1.0000 0.20087  0.35456  0.62355  Biso   1.000  Cu
  O1       1.0000 0.78954  0.27280  0.16516  Biso   1.000  O
  O2       1.0000 0.21046  0.27280  0.33484  Biso   1.000  O
  O3       1.0000 0.28954  0.77280  0.16516  Biso   1.000  O
  O4       1.0000 0.71046  0.77280  0.33484  Biso   1.000  O
  O5       1.0000 0.21046  0.72720  0.83484  Biso   1.000  O
  O6       1.0000 0.78954  0.72720  0.66516  Biso   1.000  O
  O7       1.0000 0.71046  0.22720  0.83484  Biso   1.000  O
  O8       1.0000 0.28954  0.22720  0.66516  Biso   1.000  O
  O9       1.0000 0.70940  0.03980  0.99250  Biso   1.000  O
  O10      1.0000 0.29060  0.03980  0.50750  Biso   1.000  O
  O11      1.0000 0.20940  0.53980  0.99250  Biso   1.000  O
  O12      1.0000 0.79060  0.53980  0.50750  Biso   1.000  O
  O13      1.0000 0.29060  0.96020  0.00750  Biso   1.000  O
  O14      1.0000 0.70940  0.96020  0.49250  Biso   1.000  O
  O15      1.0000 0.79060  0.46020  0.00750  Biso   1.000  O
  O16      1.0000 0.20940  0.46020  0.49250  Biso   1.000  O
  H1       1.0000 0.70070  0.09700  0.93350  Biso   1.000  H
  H2       1.0000 0.29930  0.09700  0.56650  Biso   1.000  H
  H3       1.0000 0.20070  0.59700  0.93350  Biso   1.000  H
  H4       1.0000 0.79930  0.59700  0.56650  Biso   1.000  H
  H5       1.0000 0.29930  0.90300  0.06650  Biso   1.000  H
  H6       1.0000 0.70070  0.90300  0.43350  Biso   1.000  H
  H7       1.0000 0.79930  0.40300  0.06650  Biso   1.000  H
  H8       1.0000 0.20070  0.40300  0.43350  Biso   1.000  H
  H9       1.0000 0.68950  0.95660  0.96390  Biso   1.000  H
  H10      1.0000 0.31050  0.95660  0.53610  Biso   1.000  H
  H11      1.0000 0.18950  0.45660  0.96390  Biso   1.000  H
  H12      1.0000 0.81050  0.45660  0.53610  Biso   1.000  H
  H13      1.0000 0.31050  0.04340  0.03610  Biso   1.000  H
  H14      1.0000 0.68950  0.04340  0.46390  Biso   1.000  H
  H15      1.0000 0.81050  0.54340  0.03610  Biso   1.000  H
  H16      1.0000 0.18950  0.54340  0.46390  Biso   1.000  H
  O17      1.0000 0.80270  0.05740  0.24800  Biso   1.000  O
  O18      1.0000 0.19730  0.05740  0.25200  Biso   1.000  O
  O19      1.0000 0.30270  0.55740  0.24800  Biso   1.000  O
  O20      1.0000 0.69730  0.55740  0.25200  Biso   1.000  O
  O21      1.0000 0.19730  0.94260  0.75200  Biso   1.000  O
  O22      1.0000 0.80270  0.94260  0.74800  Biso   1.000  O
  O23      1.0000 0.69730  0.44260  0.75200  Biso   1.000  O
  O24      1.0000 0.30270  0.44260  0.74800  Biso   1.000  O
  O25      1.0000 0.70392  0.25000  0.26980  Biso   1.000  O
  O26      1.0000 0.29608  0.25000  0.23020  Biso   1.000  O
  O27      1.0000 0.20392  0.75000  0.26980  Biso   1.000  O
  O28      1.0000 0.79608  0.75000  0.23020  Biso   1.000  O
  O29      1.0000 0.29608  0.75000  0.73020  Biso   1.000  O
  O30      1.0000 0.70392  0.75000  0.76980  Biso   1.000  O
  O31      1.0000 0.79608  0.25000  0.73020  Biso   1.000  O
  O32      1.0000 0.20392  0.25000  0.76980  Biso   1.000  O
  H17      1.0000 0.69780  0.34310  0.25930  Biso   1.000  H
  H18      1.0000 0.30220  0.34310  0.24070  Biso   1.000  H
  H19      1.0000 0.19780  0.84310  0.25930  Biso   1.000  H
  H20      1.0000 0.80220  0.84310  0.24070  Biso   1.000  H
  H21      1.0000 0.30220  0.65690  0.74070  Biso   1.000  H
  H22      1.0000 0.69780  0.65690  0.75930  Biso   1.000  H
  H23      1.0000 0.80220  0.15690  0.74070  Biso   1.000  H
  H24      1.0000 0.19780  0.15690  0.75930  Biso   1.000  H
  H25      1.0000 0.66920  0.21140  0.27030  Biso   1.000  H
  H26      1.0000 0.33080  0.21140  0.22970  Biso   1.000  H
  H27      1.0000 0.16920  0.71140  0.27030  Biso   1.000  H
  H28      1.0000 0.83080  0.71140  0.22970  Biso   1.000  H
  H29      1.0000 0.33080  0.78860  0.72970  Biso   1.000  H
  H30      1.0000 0.66920  0.78860  0.77030  Biso   1.000  H
  H31      1.0000 0.83080  0.28860  0.72970  Biso   1.000  H
  H32      1.0000 0.16920  0.28860  0.77030  Biso   1.000  H
  O33      1.0000 0.66345  0.75840  0.00080  Biso   1.000  O
  O34      1.0000 0.33655  0.75840  0.49920  Biso   1.000  O
  O35      1.0000 0.16345  0.25840  0.00080  Biso   1.000  O
  O36      1.0000 0.83655  0.25840  0.49920  Biso   1.000  O
  O37      1.0000 0.33655  0.24160  0.99920  Biso   1.000  O
  O38      1.0000 0.66345  0.24160  0.50080  Biso   1.000  O
  O39      1.0000 0.83655  0.74160  0.99920  Biso   1.000  O
  O40      1.0000 0.16345  0.74160  0.50080  Biso   1.000  O
  H33      1.0000 0.68230  0.80150  0.96710  Biso   1.000  H
  H34      1.0000 0.31770  0.80150  0.53290  Biso   1.000  H
  H35      1.0000 0.18230  0.30150  0.96710  Biso   1.000  H
  H36      1.0000 0.81770  0.30150  0.53290  Biso   1.000  H
  H37      1.0000 0.31770  0.19850  0.03290  Biso   1.000  H
  H38      1.0000 0.68230  0.19850  0.46710  Biso   1.000  H
  H39      1.0000 0.81770  0.69850  0.03290  Biso   1.000  H
  H40      1.0000 0.18230  0.69850  0.46710  Biso   1.000  H
  H41      1.0000 0.64190  0.82680  0.01450  Biso   1.000  H
  H42      1.0000 0.35810  0.82680  0.48550  Biso   1.000  H
  H43      1.0000 0.14190  0.32680  0.01450  Biso   1.000  H
  H44      1.0000 0.85810  0.32680  0.48550  Biso   1.000  H
  H45      1.0000 0.35810  0.17320  0.98550  Biso   1.000  H
  H46      1.0000 0.64190  0.17320  0.51450  Biso   1.000  H
  H47      1.0000 0.85810  0.67320  0.98550  Biso   1.000  H
  H48      1.0000 0.14190  0.67320  0.51450  Biso   1.000  H
  O41      1.0000 0.85813  0.47820  0.37340  Biso   1.000  O
  O42      1.0000 0.14187  0.47820  0.12660  Biso   1.000  O
  O43      1.0000 0.35813  0.97820  0.37340  Biso   1.000  O
  O44      1.0000 0.64187  0.97820  0.12660  Biso   1.000  O
  O45      1.0000 0.14187  0.52180  0.62660  Biso   1.000  O
  O46      1.0000 0.85813  0.52180  0.87340  Biso   1.000  O
  O47      1.0000 0.64187  0.02180  0.62660  Biso   1.000  O
  O48      1.0000 0.35813  0.02180  0.87340  Biso   1.000  O
  O49      1.0000 0.50000  0.75580  0.75000  Biso   1.000  O
  O50      1.0000 0.00000  0.25580  0.75000  Biso   1.000  O
  O51      1.0000 0.50000  0.24420  0.25000  Biso   1.000  O
  O52      1.0000 0.00000  0.74420  0.25000  Biso   1.000  O
  H49      1.0000 0.46450  0.81430  0.72530  Biso   1.000  H
  H50      1.0000 0.53550  0.81430  0.77470  Biso   1.000  H
  H51      1.0000 0.96450  0.31430  0.72530  Biso   1.000  H
  H52      1.0000 0.03550  0.31430  0.77470  Biso   1.000  H
  H53      1.0000 0.53550  0.18570  0.27470  Biso   1.000  H
  H54      1.0000 0.46450  0.18570  0.22530  Biso   1.000  H
  H55      1.0000 0.03550  0.68570  0.27470  Biso   1.000  H
  H56      1.0000 0.96450  0.68570  0.22530  Biso   1.000  H
  O53      1.0000 0.89778  0.57570  0.26320  Biso   1.000  O
  O54      1.0000 0.10222  0.57570  0.23680  Biso   1.000  O
  O55      1.0000 0.39778  0.07570  0.26320  Biso   1.000  O
  O56      1.0000 0.60222  0.07570  0.23680  Biso   1.000  O
  O57      1.0000 0.10222  0.42430  0.73680  Biso   1.000  O
  O58      1.0000 0.89778  0.42430  0.76320  Biso   1.000  O
  O59      1.0000 0.60222  0.92430  0.73680  Biso   1.000  O
  O60      1.0000 0.39778  0.92430  0.76320  Biso   1.000  O
  N1       1.0000 0.12332  0.21710  0.50340  Biso   1.000  N
  N2       1.0000 0.87668  0.21710  0.99660  Biso   1.000  N
  N3       1.0000 0.62332  0.71710  0.50340  Biso   1.000  N
  N4       1.0000 0.37668  0.71710  0.99660  Biso   1.000  N
  N5       1.0000 0.87668  0.78290  0.49660  Biso   1.000  N
  N6       1.0000 0.12332  0.78290  0.00340  Biso   1.000  N
  N7       1.0000 0.37668  0.28290  0.49660  Biso   1.000  N
  N8       1.0000 0.62332  0.28290  0.00340  Biso   1.000  N
  N9       1.0000 0.07570  0.99790  0.43460  Biso   1.000  N
  N10      1.0000 0.92430  0.99790  0.06540  Biso   1.000  N
  N11      1.0000 0.57570  0.49790  0.43460  Biso   1.000  N
  N12      1.0000 0.42430  0.49790  0.06540  Biso   1.000  N
  N13      1.0000 0.92430  0.00210  0.56540  Biso   1.000  N
  N14      1.0000 0.07570  0.00210  0.93460  Biso   1.000  N
  N15      1.0000 0.42430  0.50210  0.56540  Biso   1.000  N
  N16      1.0000 0.57570  0.50210  0.93460  Biso   1.000  N
  H57      1.0000 0.07300  0.90520  0.42090  Biso   1.000  H
  H58      1.0000 0.92700  0.90520  0.07910  Biso   1.000  H
  H59      1.0000 0.57300  0.40520  0.42090  Biso   1.000  H
  H60      1.0000 0.42700  0.40520  0.07910  Biso   1.000  H
  H61      1.0000 0.92700  0.09480  0.57910  Biso   1.000  H
  H62      1.0000 0.07300  0.09480  0.92090  Biso   1.000  H
  H63      1.0000 0.42700  0.59480  0.57910  Biso   1.000  H
  H64      1.0000 0.57300  0.59480  0.92090  Biso   1.000  H
  C1       1.0000 0.90649  0.19570  0.30660  Biso   1.000  C
  C2       1.0000 0.09351  0.19570  0.19340  Biso   1.000  C
  C3       1.0000 0.40649  0.69570  0.30660  Biso   1.000  C
  C4       1.0000 0.59351  0.69570  0.19340  Biso   1.000  C
  C5       1.0000 0.09351  0.80430  0.69340  Biso   1.000  C
  C6       1.0000 0.90649  0.80430  0.80660  Biso   1.000  C
  C7       1.0000 0.59351  0.30430  0.69340  Biso   1.000  C
  C8       1.0000 0.40649  0.30430  0.80660  Biso   1.000  C
  C9       1.0000 0.93629  0.33710  0.34290  Biso   1.000  C
  C10      1.0000 0.06371  0.33710  0.15710  Biso   1.000  C
  C11      1.0000 0.43629  0.83710  0.34290  Biso   1.000  C
  C12      1.0000 0.56371  0.83710  0.15710  Biso   1.000  C
  C13      1.0000 0.06371  0.66290  0.65710  Biso   1.000  C
  C14      1.0000 0.93629  0.66290  0.84290  Biso   1.000  C
  C15      1.0000 0.56371  0.16290  0.65710  Biso   1.000  C
  C16      1.0000 0.43629  0.16290  0.84290  Biso   1.000  C
  C17      1.0000 0.00841  0.35650  0.40760  Biso   1.000  C
  C18      1.0000 0.99159  0.35650  0.09240  Biso   1.000  C
  C19      1.0000 0.50841  0.85650  0.40760  Biso   1.000  C
  C20      1.0000 0.49159  0.85650  0.09240  Biso   1.000  C
  C21      1.0000 0.99159  0.64350  0.59240  Biso   1.000  C
  C22      1.0000 0.00841  0.64350  0.90760  Biso   1.000  C
  C23      1.0000 0.49159  0.14350  0.59240  Biso   1.000  C
  C24      1.0000 0.50841  0.14350  0.90760  Biso   1.000  C
  H65      1.0000 0.02800  0.44950  0.43070  Biso   1.000  H
  H66      1.0000 0.97200  0.44950  0.06930  Biso   1.000  H
  H67      1.0000 0.52800  0.94950  0.43070  Biso   1.000  H
  H68      1.0000 0.47200  0.94950  0.06930  Biso   1.000  H
  H69      1.0000 0.97200  0.55050  0.56930  Biso   1.000  H
  H70      1.0000 0.02800  0.55050  0.93070  Biso   1.000  H
  H71      1.0000 0.47200  0.05050  0.56930  Biso   1.000  H
  H72      1.0000 0.52800  0.05050  0.93070  Biso   1.000  H
  C25      1.0000 0.05028  0.23220  0.43670  Biso   1.000  C
  C26      1.0000 0.94972  0.23220  0.06330  Biso   1.000  C
  C27      1.0000 0.55028  0.73220  0.43670  Biso   1.000  C
  C28      1.0000 0.44972  0.73220  0.06330  Biso   1.000  C
  C29      1.0000 0.94972  0.76780  0.56330  Biso   1.000  C
  C30      1.0000 0.05028  0.76780  0.93670  Biso   1.000  C
  C31      1.0000 0.44972  0.26780  0.56330  Biso   1.000  C
  C32      1.0000 0.55028  0.26780  0.93670  Biso   1.000  C
  C33      1.0000 0.13455  0.07630  0.49750  Biso   1.000  C
  C34      1.0000 0.86545  0.07630  0.00250  Biso   1.000  C
  C35      1.0000 0.63455  0.57630  0.49750  Biso   1.000  C
  C36      1.0000 0.36545  0.57630  0.00250  Biso   1.000  C
  C37      1.0000 0.86545  0.92370  0.50250  Biso   1.000  C
  C38      1.0000 0.13455  0.92370  0.99750  Biso   1.000  C
  C39      1.0000 0.36545  0.42370  0.50250  Biso   1.000  C
  C40      1.0000 0.63455  0.42370  0.99750  Biso   1.000  C
  H73      1.0000 0.17900  0.03530  0.53360  Biso   1.000  H
  H74      1.0000 0.82100  0.03530  0.96640  Biso   1.000  H
  H75      1.0000 0.67900  0.53530  0.53360  Biso   1.000  H
  H76      1.0000 0.32100  0.53530  0.96640  Biso   1.000  H
  H77      1.0000 0.82100  0.96470  0.46640  Biso   1.000  H
  H78      1.0000 0.17900  0.96470  0.03360  Biso   1.000  H
  H79      1.0000 0.32100  0.46470  0.46640  Biso   1.000  H
  H80      1.0000 0.67900  0.46470  0.03360  Biso   1.000  H
  C41      1.0000 0.02016  0.09380  0.39590  Biso   1.000  C
  C42      1.0000 0.97984  0.09380  0.10410  Biso   1.000  C
  C43      1.0000 0.52016  0.59380  0.39590  Biso   1.000  C
  C44      1.0000 0.47984  0.59380  0.10410  Biso   1.000  C
  C45      1.0000 0.97984  0.90620  0.60410  Biso   1.000  C
  C46      1.0000 0.02016  0.90620  0.89590  Biso   1.000  C
  C47      1.0000 0.47984  0.40620  0.60410  Biso   1.000  C
  C48      1.0000 0.52016  0.40620  0.89590  Biso   1.000  C
  C49      1.0000 0.94836  0.07270  0.33210  Biso   1.000  C
  C50      1.0000 0.05164  0.07270  0.16790  Biso   1.000  C
  C51      1.0000 0.44836  0.57270  0.33210  Biso   1.000  C
  C52      1.0000 0.55164  0.57270  0.16790  Biso   1.000  C
  C53      1.0000 0.05164  0.92730  0.66790  Biso   1.000  C
  C54      1.0000 0.94836  0.92730  0.83210  Biso   1.000  C
  C55      1.0000 0.55164  0.42730  0.66790  Biso   1.000  C
  C56      1.0000 0.44836  0.42730  0.83210  Biso   1.000  C
  H81      1.0000 0.92900  0.97970  0.30740  Biso   1.000  H
  H82      1.0000 0.07100  0.97970  0.19260  Biso   1.000  H
  H83      1.0000 0.42900  0.47970  0.30740  Biso   1.000  H
  H84      1.0000 0.57100  0.47970  0.19260  Biso   1.000  H
  H85      1.0000 0.07100  0.02030  0.69260  Biso   1.000  H
  H86      1.0000 0.92900  0.02030  0.80740  Biso   1.000  H
  H87      1.0000 0.57100  0.52030  0.69260  Biso   1.000  H
  H88      1.0000 0.42900  0.52030  0.80740  Biso   1.000  H
  C57      1.0000 0.82894  0.17370  0.23620  Biso   1.000  C
  C58      1.0000 0.17106  0.17370  0.26380  Biso   1.000  C
  C59      1.0000 0.32894  0.67370  0.23620  Biso   1.000  C
  C60      1.0000 0.67106  0.67370  0.26380  Biso   1.000  C
  C61      1.0000 0.17106  0.82630  0.76380  Biso   1.000  C
  C62      1.0000 0.82894  0.82630  0.73620  Biso   1.000  C
  C63      1.0000 0.67106  0.32630  0.76380  Biso   1.000  C
  C64      1.0000 0.32894  0.32630  0.73620  Biso   1.000  C
  C65      1.0000 0.89318  0.47460  0.32230  Biso   1.000  C
  C66      1.0000 0.10682  0.47460  0.17770  Biso   1.000  C
  C67      1.0000 0.39318  0.97460  0.32230  Biso   1.000  C
  C68      1.0000 0.60682  0.97460  0.17770  Biso   1.000  C
  C69      1.0000 0.10682  0.52540  0.67770  Biso   1.000  C
  C70      1.0000 0.89318  0.52540  0.82230  Biso   1.000  C
  C71      1.0000 0.60682  0.02540  0.67770  Biso   1.000  C
  C72      1.0000 0.39318  0.02540  0.82230  Biso   1.000  C
