data_image0
_cell_length_a       5.57
_cell_length_b       8.363
_cell_length_c       8.784
_cell_angle_alpha    76.804
_cell_angle_beta     81.5
_cell_angle_gamma    82.997

_symmetry_space_group_name_H-M    "P 1"
_symmetry_int_tables_number       1

loop_
  _symmetry_equiv_pos_as_xyz
  'x, y, z'

loop_
  _atom_site_label
  _atom_site_occupancy
  _atom_site_fract_x
  _atom_site_fract_y
  _atom_site_fract_z
  _atom_site_thermal_displace_type
  _atom_site_B_iso_or_equiv
  _atom_site_type_symbol
  Cu1      1.0000 0.58437  0.36088  0.93504  Biso   1.000  Cu
  Cu2      1.0000 0.41563  0.63912  0.06496  Biso   1.000  Cu
  O1       1.0000 0.38950  0.47310  0.76540  Biso   1.000  O
  O2       1.0000 0.61050  0.52690  0.23460  Biso   1.000  O
  O3       1.0000 0.63310  0.90120  0.84120  Biso   1.000  O
  O4       1.0000 0.36690  0.09880  0.15880  Biso   1.000  O
  O5       1.0000 0.22580  0.68470  0.87810  Biso   1.000  O
  O6       1.0000 0.77420  0.31530  0.12190  Biso   1.000  O
  O7       1.0000 0.71040  0.63000  0.91410  Biso   1.000  O
  O8       1.0000 0.28960  0.37000  0.08590  Biso   1.000  O
  N1       1.0000 0.78770  0.87840  0.23420  Biso   1.000  N
  N2       1.0000 0.21230  0.12160  0.76580  Biso   1.000  N
  H1       1.0000 0.65570  0.93880  0.21250  Biso   1.000  H
  H2       1.0000 0.34430  0.06120  0.78750  Biso   1.000  H
  N3       1.0000 0.14260  0.73380  0.19640  Biso   1.000  N
  N4       1.0000 0.85740  0.26620  0.80360  Biso   1.000  N
  C1       1.0000 0.08570  0.72930  0.35840  Biso   1.000  C
  C2       1.0000 0.91430  0.27070  0.64160  Biso   1.000  C
  C3       1.0000 0.10620  0.67070  0.63560  Biso   1.000  C
  C4       1.0000 0.89380  0.32930  0.36440  Biso   1.000  C
  C5       1.0000 0.75030  0.83500  0.53120  Biso   1.000  C
  C6       1.0000 0.24970  0.16500  0.46880  Biso   1.000  C
  H3       1.0000 0.59850  0.89320  0.54550  Biso   1.000  H
  H4       1.0000 0.40150  0.10680  0.45450  Biso   1.000  H
  C7       1.0000 0.73190  0.76800  0.81620  Biso   1.000  C
  C8       1.0000 0.26810  0.23200  0.18380  Biso   1.000  C
  C9       1.0000 0.87210  0.76090  0.65730  Biso   1.000  C
  C10      1.0000 0.12790  0.23910  0.34270  Biso   1.000  C
  C11      1.0000 0.85880  0.82100  0.38210  Biso   1.000  C
  C12      1.0000 0.14120  0.17900  0.61790  Biso   1.000  C
  C13      1.0000 0.21080  0.65590  0.48530  Biso   1.000  C
  C14      1.0000 0.78920  0.34410  0.51470  Biso   1.000  C
  H5       1.0000 0.36240  0.59760  0.47000  Biso   1.000  H
  H6       1.0000 0.63760  0.40240  0.53000  Biso   1.000  H
  C15      1.0000 0.95840  0.82410  0.13100  Biso   1.000  C
  C16      1.0000 0.04160  0.17590  0.86900  Biso   1.000  C
  H7       1.0000 0.94920  0.84740  0.02320  Biso   1.000  H
  H8       1.0000 0.05080  0.15260  0.97680  Biso   1.000  H
  C17      1.0000 0.24920  0.60330  0.77240  Biso   1.000  C
  C18      1.0000 0.75080  0.39670  0.22760  Biso   1.000  C
