data_image0
_cell_length_a       9.224
_cell_length_b       4.7369
_cell_length_c       15.189
_cell_angle_alpha    90
_cell_angle_beta     107.045
_cell_angle_gamma    90

_symmetry_space_group_name_H-M    "P 1"
_symmetry_int_tables_number       1

loop_
  _symmetry_equiv_pos_as_xyz
  'x, y, z'

loop_
  _atom_site_label
  _atom_site_occupancy
  _atom_site_fract_x
  _atom_site_fract_y
  _atom_site_fract_z
  _atom_site_thermal_displace_type
  _atom_site_B_iso_or_equiv
  _atom_site_type_symbol
  Cu1      1.0000 0.33401  0.06319  0.98793  Biso   1.000  Cu
  Cu2      1.0000 0.16599  0.56319  0.51207  Biso   1.000  Cu
  Cu3      1.0000 0.66599  0.93681  0.01207  Biso   1.000  Cu
  Cu4      1.0000 0.83401  0.43681  0.48793  Biso   1.000  Cu
  P1       1.0000 0.47746  0.56710  0.11158  Biso   1.000  P
  P2       1.0000 0.02254  0.06710  0.38842  Biso   1.000  P
  P3       1.0000 0.52254  0.43290  0.88842  Biso   1.000  P
  P4       1.0000 0.97746  0.93290  0.61158  Biso   1.000  P
  O1       1.0000 0.45680  0.24930  0.09750  Biso   1.000  O
  O2       1.0000 0.04320  0.74930  0.40250  Biso   1.000  O
  O3       1.0000 0.54320  0.75070  0.90250  Biso   1.000  O
  O4       1.0000 0.95680  0.25070  0.59750  Biso   1.000  O
  O5       1.0000 0.62330  0.67070  0.09600  Biso   1.000  O
  O6       1.0000 0.87670  0.17070  0.40400  Biso   1.000  O
  O7       1.0000 0.37670  0.32930  0.90400  Biso   1.000  O
  O8       1.0000 0.12330  0.82930  0.59600  Biso   1.000  O
  O9       1.0000 0.33450  0.72850  0.05962  Biso   1.000  O
  O10      1.0000 0.16550  0.22850  0.44038  Biso   1.000  O
  O11      1.0000 0.66550  0.27150  0.94038  Biso   1.000  O
  O12      1.0000 0.83450  0.77150  0.55962  Biso   1.000  O
  C1       1.0000 0.50100  0.63220  0.23360  Biso   1.000  C
  C2       1.0000 0.99900  0.13220  0.26640  Biso   1.000  C
  C3       1.0000 0.49900  0.36780  0.76640  Biso   1.000  C
  C4       1.0000 0.00100  0.86780  0.73360  Biso   1.000  C
  C5       1.0000 0.62140  0.51720  0.30120  Biso   1.000  C
  C6       1.0000 0.87860  0.01720  0.19880  Biso   1.000  C
  C7       1.0000 0.37860  0.48280  0.69880  Biso   1.000  C
  C8       1.0000 0.12140  0.98280  0.80120  Biso   1.000  C
  H1       1.0000 0.68730  0.39590  0.28360  Biso   1.000  H
  H2       1.0000 0.81270  0.89590  0.21640  Biso   1.000  H
  H3       1.0000 0.31270  0.60410  0.71640  Biso   1.000  H
  H4       1.0000 0.18730  0.10410  0.78360  Biso   1.000  H
  N1       1.0000 0.64710  0.57340  0.39100  Biso   1.000  N
  N2       1.0000 0.85290  0.07340  0.10900  Biso   1.000  N
  N3       1.0000 0.35290  0.42660  0.60900  Biso   1.000  N
  N4       1.0000 0.14710  0.92660  0.89100  Biso   1.000  N
  C9       1.0000 0.54920  0.74100  0.41570  Biso   1.000  C
  C10      1.0000 0.95080  0.24100  0.08430  Biso   1.000  C
  C11      1.0000 0.45080  0.25900  0.58430  Biso   1.000  C
  C12      1.0000 0.04920  0.75900  0.91570  Biso   1.000  C
  H5       1.0000 0.56550  0.77870  0.47790  Biso   1.000  H
  H6       1.0000 0.93450  0.27870  0.02210  Biso   1.000  H
  H7       1.0000 0.43450  0.22130  0.52210  Biso   1.000  H
  H8       1.0000 0.06550  0.72130  0.97790  Biso   1.000  H
  C13      1.0000 0.42460  0.86110  0.35280  Biso   1.000  C
  C14      1.0000 0.07540  0.36110  0.14720  Biso   1.000  C
  C15      1.0000 0.57540  0.13890  0.64720  Biso   1.000  C
  C16      1.0000 0.92460  0.63890  0.85280  Biso   1.000  C
  H9       1.0000 0.35740  0.97400  0.37220  Biso   1.000  H
  H10      1.0000 0.14260  0.47400  0.12780  Biso   1.000  H
  H11      1.0000 0.64260  0.02600  0.62780  Biso   1.000  H
  H12      1.0000 0.85740  0.52600  0.87220  Biso   1.000  H
  C17      1.0000 0.40280  0.80890  0.26090  Biso   1.000  C
  C18      1.0000 0.09720  0.30890  0.23910  Biso   1.000  C
  C19      1.0000 0.59720  0.19110  0.73910  Biso   1.000  C
  C20      1.0000 0.90280  0.69110  0.76090  Biso   1.000  C
  H13      1.0000 0.32210  0.89250  0.21700  Biso   1.000  H
  H14      1.0000 0.17790  0.39250  0.28300  Biso   1.000  H
  H15      1.0000 0.67790  0.10750  0.78300  Biso   1.000  H
  H16      1.0000 0.82210  0.60750  0.71700  Biso   1.000  H
