data_image0
_cell_length_a       8.2134
_cell_length_b       16.974
_cell_length_c       19.396
_cell_angle_alpha    90
_cell_angle_beta     101.13
_cell_angle_gamma    90

_symmetry_space_group_name_H-M    "P 1"
_symmetry_int_tables_number       1

loop_
  _symmetry_equiv_pos_as_xyz
  'x, y, z'

loop_
  _atom_site_label
  _atom_site_occupancy
  _atom_site_fract_x
  _atom_site_fract_y
  _atom_site_fract_z
  _atom_site_thermal_displace_type
  _atom_site_B_iso_or_equiv
  _atom_site_type_symbol
  C1       1.0000 0.44010  0.06590  0.12640  Biso   1.000  C
  C2       1.0000 0.05990  0.06590  0.87360  Biso   1.000  C
  C3       1.0000 0.94010  0.56590  0.62640  Biso   1.000  C
  C4       1.0000 0.55990  0.56590  0.37360  Biso   1.000  C
  C5       1.0000 0.55990  0.93410  0.87360  Biso   1.000  C
  C6       1.0000 0.94010  0.93410  0.12640  Biso   1.000  C
  C7       1.0000 0.05990  0.43410  0.37360  Biso   1.000  C
  C8       1.0000 0.44010  0.43410  0.62640  Biso   1.000  C
  C9       1.0000 0.32170  0.10550  0.16750  Biso   1.000  C
  C10      1.0000 0.17830  0.10550  0.83250  Biso   1.000  C
  C11      1.0000 0.82170  0.60550  0.66750  Biso   1.000  C
  C12      1.0000 0.67830  0.60550  0.33250  Biso   1.000  C
  C13      1.0000 0.67830  0.89450  0.83250  Biso   1.000  C
  C14      1.0000 0.82170  0.89450  0.16750  Biso   1.000  C
  C15      1.0000 0.17830  0.39450  0.33250  Biso   1.000  C
  C16      1.0000 0.32170  0.39450  0.66750  Biso   1.000  C
  H1       1.0000 0.23380  0.13160  0.13490  Biso   1.000  H
  H2       1.0000 0.26620  0.13160  0.86510  Biso   1.000  H
  H3       1.0000 0.73380  0.63160  0.63490  Biso   1.000  H
  H4       1.0000 0.76620  0.63160  0.36510  Biso   1.000  H
  H5       1.0000 0.76620  0.86840  0.86510  Biso   1.000  H
  H6       1.0000 0.73380  0.86840  0.13490  Biso   1.000  H
  H7       1.0000 0.26620  0.36840  0.36510  Biso   1.000  H
  H8       1.0000 0.23380  0.36840  0.63490  Biso   1.000  H
  H9       1.0000 0.27130  0.06570  0.19240  Biso   1.000  H
  H10      1.0000 0.22870  0.06570  0.80760  Biso   1.000  H
  H11      1.0000 0.77130  0.56570  0.69240  Biso   1.000  H
  H12      1.0000 0.72870  0.56570  0.30760  Biso   1.000  H
  H13      1.0000 0.72870  0.93430  0.80760  Biso   1.000  H
  H14      1.0000 0.77130  0.93430  0.19240  Biso   1.000  H
  H15      1.0000 0.22870  0.43430  0.30760  Biso   1.000  H
  H16      1.0000 0.27130  0.43430  0.69240  Biso   1.000  H
  C17      1.0000 0.50340  0.14970  0.28020  Biso   1.000  C
  C18      1.0000 0.99660  0.14970  0.71980  Biso   1.000  C
  C19      1.0000 0.00340  0.64970  0.78020  Biso   1.000  C
  C20      1.0000 0.49660  0.64970  0.21980  Biso   1.000  C
  C21      1.0000 0.49660  0.85030  0.71980  Biso   1.000  C
  C22      1.0000 0.00340  0.85030  0.28020  Biso   1.000  C
  C23      1.0000 0.99660  0.35030  0.21980  Biso   1.000  C
  C24      1.0000 0.50340  0.35030  0.78020  Biso   1.000  C
  H17      1.0000 0.52200  0.10240  0.30450  Biso   1.000  H
  H18      1.0000 0.97800  0.10240  0.69550  Biso   1.000  H
  H19      1.0000 0.02200  0.60240  0.80450  Biso   1.000  H
  H20      1.0000 0.47800  0.60240  0.19550  Biso   1.000  H
  H21      1.0000 0.47800  0.89760  0.69550  Biso   1.000  H
  H22      1.0000 0.02200  0.89760  0.30450  Biso   1.000  H
  H23      1.0000 0.97800  0.39760  0.19550  Biso   1.000  H
  H24      1.0000 0.52200  0.39760  0.80450  Biso   1.000  H
  C25      1.0000 0.57050  0.22390  0.30010  Biso   1.000  C
  C26      1.0000 0.92950  0.22390  0.69990  Biso   1.000  C
  C27      1.0000 0.07050  0.72390  0.80010  Biso   1.000  C
  C28      1.0000 0.42950  0.72390  0.19990  Biso   1.000  C
  C29      1.0000 0.42950  0.77610  0.69990  Biso   1.000  C
  C30      1.0000 0.07050  0.77610  0.30010  Biso   1.000  C
  C31      1.0000 0.92950  0.27610  0.19990  Biso   1.000  C
  C32      1.0000 0.57050  0.27610  0.80010  Biso   1.000  C
  C33      1.0000 0.69190  0.24670  0.36550  Biso   1.000  C
  C34      1.0000 0.80810  0.24670  0.63450  Biso   1.000  C
  C35      1.0000 0.19190  0.74670  0.86550  Biso   1.000  C
  C36      1.0000 0.30810  0.74670  0.13450  Biso   1.000  C
  C37      1.0000 0.30810  0.75330  0.63450  Biso   1.000  C
  C38      1.0000 0.19190  0.75330  0.36550  Biso   1.000  C
  C39      1.0000 0.80810  0.25330  0.13450  Biso   1.000  C
  C40      1.0000 0.69190  0.25330  0.86550  Biso   1.000  C
  H25      1.0000 0.74350  0.19960  0.38810  Biso   1.000  H
  H26      1.0000 0.75650  0.19960  0.61190  Biso   1.000  H
  H27      1.0000 0.24350  0.69960  0.88810  Biso   1.000  H
  H28      1.0000 0.25650  0.69960  0.11190  Biso   1.000  H
  H29      1.0000 0.25650  0.80040  0.61190  Biso   1.000  H
  H30      1.0000 0.24350  0.80040  0.38810  Biso   1.000  H
  H31      1.0000 0.75650  0.30040  0.11190  Biso   1.000  H
  H32      1.0000 0.74350  0.30040  0.88810  Biso   1.000  H
  H33      1.0000 0.77840  0.27930  0.35260  Biso   1.000  H
  H34      1.0000 0.72160  0.27930  0.64740  Biso   1.000  H
  H35      1.0000 0.27840  0.77930  0.85260  Biso   1.000  H
  H36      1.0000 0.22160  0.77930  0.14740  Biso   1.000  H
  H37      1.0000 0.22160  0.72070  0.64740  Biso   1.000  H
  H38      1.0000 0.27840  0.72070  0.35260  Biso   1.000  H
  H39      1.0000 0.72160  0.22070  0.14740  Biso   1.000  H
  H40      1.0000 0.77840  0.22070  0.85260  Biso   1.000  H
  C41      1.0000 0.51750  0.25870  0.45910  Biso   1.000  C
  C42      1.0000 0.98250  0.25870  0.54090  Biso   1.000  C
  C43      1.0000 0.01750  0.75870  0.95910  Biso   1.000  C
  C44      1.0000 0.48250  0.75870  0.04090  Biso   1.000  C
  C45      1.0000 0.48250  0.74130  0.54090  Biso   1.000  C
  C46      1.0000 0.01750  0.74130  0.45910  Biso   1.000  C
  C47      1.0000 0.98250  0.24130  0.04090  Biso   1.000  C
  C48      1.0000 0.51750  0.24130  0.95910  Biso   1.000  C
  H41      1.0000 0.49280  0.20580  0.46470  Biso   1.000  H
  H42      1.0000 0.00720  0.20580  0.53530  Biso   1.000  H
  H43      1.0000 0.99280  0.70580  0.96470  Biso   1.000  H
  H44      1.0000 0.50720  0.70580  0.03530  Biso   1.000  H
  H45      1.0000 0.50720  0.79420  0.53530  Biso   1.000  H
  H46      1.0000 0.99280  0.79420  0.46470  Biso   1.000  H
  H47      1.0000 0.00720  0.29420  0.03530  Biso   1.000  H
  H48      1.0000 0.49280  0.29420  0.96470  Biso   1.000  H
  C49      1.0000 0.46870  0.32180  0.49290  Biso   1.000  C
  C50      1.0000 0.03130  0.32180  0.50710  Biso   1.000  C
  C51      1.0000 0.96870  0.82180  0.99290  Biso   1.000  C
  C52      1.0000 0.53130  0.82180  0.00710  Biso   1.000  C
  C53      1.0000 0.53130  0.67820  0.50710  Biso   1.000  C
  C54      1.0000 0.96870  0.67820  0.49290  Biso   1.000  C
  C55      1.0000 0.03130  0.17820  0.00710  Biso   1.000  C
  C56      1.0000 0.46870  0.17820  0.99290  Biso   1.000  C
  H49      1.0000 0.40220  0.31900  0.52650  Biso   1.000  H
  H50      1.0000 0.09780  0.31900  0.47350  Biso   1.000  H
  H51      1.0000 0.90220  0.81900  0.02650  Biso   1.000  H
  H52      1.0000 0.59780  0.81900  0.97350  Biso   1.000  H
  H53      1.0000 0.59780  0.68100  0.47350  Biso   1.000  H
  H54      1.0000 0.90220  0.68100  0.52650  Biso   1.000  H
  H55      1.0000 0.09780  0.18100  0.97350  Biso   1.000  H
  H56      1.0000 0.40220  0.18100  0.02650  Biso   1.000  H
  C57      1.0000 0.61680  0.36890  0.42350  Biso   1.000  C
  C58      1.0000 0.88320  0.36890  0.57650  Biso   1.000  C
  C59      1.0000 0.11680  0.86890  0.92350  Biso   1.000  C
  C60      1.0000 0.38320  0.86890  0.07650  Biso   1.000  C
  C61      1.0000 0.38320  0.63110  0.57650  Biso   1.000  C
  C62      1.0000 0.11680  0.63110  0.42350  Biso   1.000  C
  C63      1.0000 0.88320  0.13110  0.07650  Biso   1.000  C
  C64      1.0000 0.61680  0.13110  0.92350  Biso   1.000  C
  H57      1.0000 0.67410  0.40310  0.39930  Biso   1.000  H
  H58      1.0000 0.82590  0.40310  0.60070  Biso   1.000  H
  H59      1.0000 0.17410  0.90310  0.89930  Biso   1.000  H
  H60      1.0000 0.32590  0.90310  0.10070  Biso   1.000  H
  H61      1.0000 0.32590  0.59690  0.60070  Biso   1.000  H
  H62      1.0000 0.17410  0.59690  0.39930  Biso   1.000  H
  H63      1.0000 0.82590  0.09690  0.10070  Biso   1.000  H
  H64      1.0000 0.67410  0.09690  0.89930  Biso   1.000  H
  Cu1      1.0000 0.50000  0.50000  0.50000  Biso   1.000  Cu
  Cu2      1.0000 0.00000  0.50000  0.50000  Biso   1.000  Cu
  Cu3      1.0000 0.00000  0.00000  0.00000  Biso   1.000  Cu
  Cu4      1.0000 0.50000  0.00000  0.00000  Biso   1.000  Cu
  N1       1.0000 0.53050  0.39060  0.47072  Biso   1.000  N
  N2       1.0000 0.96950  0.39060  0.52928  Biso   1.000  N
  N3       1.0000 0.03050  0.89060  0.97072  Biso   1.000  N
  N4       1.0000 0.46950  0.89060  0.02928  Biso   1.000  N
  N5       1.0000 0.46950  0.60940  0.52928  Biso   1.000  N
  N6       1.0000 0.03050  0.60940  0.47072  Biso   1.000  N
  N7       1.0000 0.96950  0.10940  0.02928  Biso   1.000  N
  N8       1.0000 0.53050  0.10940  0.97072  Biso   1.000  N
  N9       1.0000 0.61080  0.29030  0.41520  Biso   1.000  N
  N10      1.0000 0.88920  0.29030  0.58480  Biso   1.000  N
  N11      1.0000 0.11080  0.79030  0.91520  Biso   1.000  N
  N12      1.0000 0.38920  0.79030  0.08480  Biso   1.000  N
  N13      1.0000 0.38920  0.70970  0.58480  Biso   1.000  N
  N14      1.0000 0.11080  0.70970  0.41520  Biso   1.000  N
  N15      1.0000 0.88920  0.20970  0.08480  Biso   1.000  N
  N16      1.0000 0.61080  0.20970  0.91520  Biso   1.000  N
  N17      1.0000 0.40640  0.16320  0.21780  Biso   1.000  N
  N18      1.0000 0.09360  0.16320  0.78220  Biso   1.000  N
  N19      1.0000 0.90640  0.66320  0.71780  Biso   1.000  N
  N20      1.0000 0.59360  0.66320  0.28220  Biso   1.000  N
  N21      1.0000 0.59360  0.83680  0.78220  Biso   1.000  N
  N22      1.0000 0.90640  0.83680  0.21780  Biso   1.000  N
  N23      1.0000 0.09360  0.33680  0.28220  Biso   1.000  N
  N24      1.0000 0.40640  0.33680  0.71780  Biso   1.000  N
  N25      1.0000 0.41220  0.23910  0.19850  Biso   1.000  N
  N26      1.0000 0.08780  0.23910  0.80150  Biso   1.000  N
  N27      1.0000 0.91220  0.73910  0.69850  Biso   1.000  N
  N28      1.0000 0.58780  0.73910  0.30150  Biso   1.000  N
  N29      1.0000 0.58780  0.76090  0.80150  Biso   1.000  N
  N30      1.0000 0.91220  0.76090  0.19850  Biso   1.000  N
  N31      1.0000 0.08780  0.26090  0.30150  Biso   1.000  N
  N32      1.0000 0.41220  0.26090  0.69850  Biso   1.000  N
  N33      1.0000 0.51050  0.27520  0.24900  Biso   1.000  N
  N34      1.0000 0.98950  0.27520  0.75100  Biso   1.000  N
  N35      1.0000 0.01050  0.77520  0.74900  Biso   1.000  N
  N36      1.0000 0.48950  0.77520  0.25100  Biso   1.000  N
  N37      1.0000 0.48950  0.72480  0.75100  Biso   1.000  N
  N38      1.0000 0.01050  0.72480  0.24900  Biso   1.000  N
  N39      1.0000 0.98950  0.22480  0.25100  Biso   1.000  N
  N40      1.0000 0.51050  0.22480  0.74900  Biso   1.000  N
  O1       1.0000 0.58980  0.06840  0.14833  Biso   1.000  O
  O2       1.0000 0.91020  0.06840  0.85167  Biso   1.000  O
  O3       1.0000 0.08980  0.56840  0.64833  Biso   1.000  O
  O4       1.0000 0.41020  0.56840  0.35167  Biso   1.000  O
  O5       1.0000 0.41020  0.93160  0.85167  Biso   1.000  O
  O6       1.0000 0.08980  0.93160  0.14833  Biso   1.000  O
  O7       1.0000 0.91020  0.43160  0.35167  Biso   1.000  O
  O8       1.0000 0.58980  0.43160  0.64833  Biso   1.000  O
  O9       1.0000 0.36830  0.03580  0.06799  Biso   1.000  O
  O10      1.0000 0.13170  0.03580  0.93201  Biso   1.000  O
  O11      1.0000 0.86830  0.53580  0.56799  Biso   1.000  O
  O12      1.0000 0.63170  0.53580  0.43201  Biso   1.000  O
  O13      1.0000 0.63170  0.96420  0.93201  Biso   1.000  O
  O14      1.0000 0.86830  0.96420  0.06799  Biso   1.000  O
  O15      1.0000 0.13170  0.46420  0.43201  Biso   1.000  O
  O16      1.0000 0.36830  0.46420  0.56799  Biso   1.000  O
  O17      1.0000 0.17000  0.50980  0.10890  Biso   1.000  O
  O18      1.0000 0.33000  0.50980  0.89110  Biso   1.000  O
  O19      1.0000 0.67000  0.00980  0.60890  Biso   1.000  O
  O20      1.0000 0.83000  0.00980  0.39110  Biso   1.000  O
  O21      1.0000 0.83000  0.49020  0.89110  Biso   1.000  O
  O22      1.0000 0.67000  0.49020  0.10890  Biso   1.000  O
  O23      1.0000 0.33000  0.99020  0.39110  Biso   1.000  O
  O24      1.0000 0.17000  0.99020  0.60890  Biso   1.000  O
  H65      1.0000 0.15670  0.55560  0.09100  Biso   1.000  H
  H66      1.0000 0.34330  0.55560  0.90900  Biso   1.000  H
  H67      1.0000 0.65670  0.05560  0.59100  Biso   1.000  H
  H68      1.0000 0.84330  0.05560  0.40900  Biso   1.000  H
  H69      1.0000 0.84330  0.44440  0.90900  Biso   1.000  H
  H70      1.0000 0.65670  0.44440  0.09100  Biso   1.000  H
  H71      1.0000 0.34330  0.94440  0.40900  Biso   1.000  H
  H72      1.0000 0.15670  0.94440  0.59100  Biso   1.000  H
  H73      1.0000 0.25790  0.50850  0.14000  Biso   1.000  H
  H74      1.0000 0.24210  0.50850  0.86000  Biso   1.000  H
  H75      1.0000 0.75790  0.00850  0.64000  Biso   1.000  H
  H76      1.0000 0.74210  0.00850  0.36000  Biso   1.000  H
  H77      1.0000 0.74210  0.49150  0.86000  Biso   1.000  H
  H78      1.0000 0.75790  0.49150  0.14000  Biso   1.000  H
  H79      1.0000 0.24210  0.99150  0.36000  Biso   1.000  H
  H80      1.0000 0.25790  0.99150  0.64000  Biso   1.000  H
  O25      1.0000 0.37580  0.56400  0.76270  Biso   1.000  O
  O26      1.0000 0.12420  0.56400  0.23730  Biso   1.000  O
  O27      1.0000 0.87580  0.06400  0.26270  Biso   1.000  O
  O28      1.0000 0.62420  0.06400  0.73730  Biso   1.000  O
  O29      1.0000 0.62420  0.43600  0.23730  Biso   1.000  O
  O30      1.0000 0.87580  0.43600  0.76270  Biso   1.000  O
  O31      1.0000 0.12420  0.93600  0.73730  Biso   1.000  O
  O32      1.0000 0.37580  0.93600  0.26270  Biso   1.000  O
  H81      1.0000 0.32540  0.58350  0.79530  Biso   1.000  H
  H82      1.0000 0.17460  0.58350  0.20470  Biso   1.000  H
  H83      1.0000 0.82540  0.08350  0.29530  Biso   1.000  H
  H84      1.0000 0.67460  0.08350  0.70470  Biso   1.000  H
  H85      1.0000 0.67460  0.41650  0.20470  Biso   1.000  H
  H86      1.0000 0.82540  0.41650  0.79530  Biso   1.000  H
  H87      1.0000 0.17460  0.91650  0.70470  Biso   1.000  H
  H88      1.0000 0.32540  0.91650  0.29530  Biso   1.000  H
  H89      1.0000 0.43790  0.60240  0.75290  Biso   1.000  H
  H90      1.0000 0.06210  0.60240  0.24710  Biso   1.000  H
  H91      1.0000 0.93790  0.10240  0.25290  Biso   1.000  H
  H92      1.0000 0.56210  0.10240  0.74710  Biso   1.000  H
  H93      1.0000 0.56210  0.39760  0.24710  Biso   1.000  H
  H94      1.0000 0.93790  0.39760  0.75290  Biso   1.000  H
  H95      1.0000 0.06210  0.89760  0.74710  Biso   1.000  H
  H96      1.0000 0.43790  0.89760  0.25290  Biso   1.000  H
  O33      1.0000 0.67050  0.85870  0.41970  Biso   1.000  O
  O34      1.0000 0.82950  0.85870  0.58030  Biso   1.000  O
  O35      1.0000 0.17050  0.35870  0.91970  Biso   1.000  O
  O36      1.0000 0.32950  0.35870  0.08030  Biso   1.000  O
  O37      1.0000 0.32950  0.14130  0.58030  Biso   1.000  O
  O38      1.0000 0.17050  0.14130  0.41970  Biso   1.000  O
  O39      1.0000 0.82950  0.64130  0.08030  Biso   1.000  O
  O40      1.0000 0.67050  0.64130  0.91970  Biso   1.000  O
  H97      1.0000 0.66800  0.88520  0.45670  Biso   1.000  H
  H98      1.0000 0.83200  0.88520  0.54330  Biso   1.000  H
  H99      1.0000 0.16800  0.38520  0.95670  Biso   1.000  H
  H100     1.0000 0.33200  0.38520  0.04330  Biso   1.000  H
  H101     1.0000 0.33200  0.11480  0.54330  Biso   1.000  H
  H102     1.0000 0.16800  0.11480  0.45670  Biso   1.000  H
  H103     1.0000 0.83200  0.61480  0.04330  Biso   1.000  H
  H104     1.0000 0.66800  0.61480  0.95670  Biso   1.000  H
  H105     1.0000 0.61510  0.81650  0.42040  Biso   1.000  H
  H106     1.0000 0.88490  0.81650  0.57960  Biso   1.000  H
  H107     1.0000 0.11510  0.31650  0.92040  Biso   1.000  H
  H108     1.0000 0.38490  0.31650  0.07960  Biso   1.000  H
  H109     1.0000 0.38490  0.18350  0.57960  Biso   1.000  H
  H110     1.0000 0.11510  0.18350  0.42040  Biso   1.000  H
  H111     1.0000 0.88490  0.68350  0.07960  Biso   1.000  H
  H112     1.0000 0.61510  0.68350  0.92040  Biso   1.000  H
