data_image0
_cell_length_a       18.5636
_cell_length_b       18.5636
_cell_length_c       19.7224
_cell_angle_alpha    90
_cell_angle_beta     90
_cell_angle_gamma    120

_symmetry_space_group_name_H-M    "P 1"
_symmetry_int_tables_number       1

loop_
  _symmetry_equiv_pos_as_xyz
  'x, y, z'

loop_
  _atom_site_label
  _atom_site_occupancy
  _atom_site_fract_x
  _atom_site_fract_y
  _atom_site_fract_z
  _atom_site_thermal_displace_type
  _atom_site_B_iso_or_equiv
  _atom_site_type_symbol
  Cu1      1.0000 0.50000  0.00000  0.50000  Biso   1.000  Cu
  Cu2      1.0000 0.00000  0.50000  0.50000  Biso   1.000  Cu
  Cu3      1.0000 0.50000  0.50000  0.50000  Biso   1.000  Cu
  Cu4      1.0000 0.16667  0.33333  0.83333  Biso   1.000  Cu
  Cu5      1.0000 0.66667  0.83333  0.83333  Biso   1.000  Cu
  Cu6      1.0000 0.16667  0.83333  0.83333  Biso   1.000  Cu
  Cu7      1.0000 0.83333  0.66667  0.16667  Biso   1.000  Cu
  Cu8      1.0000 0.33333  0.16667  0.16667  Biso   1.000  Cu
  Cu9      1.0000 0.83333  0.16667  0.16667  Biso   1.000  Cu
  N1       1.0000 0.49041  0.00643  0.60119  Biso   1.000  N
  N2       1.0000 0.99357  0.48398  0.60119  Biso   1.000  N
  N3       1.0000 0.51602  0.50959  0.60119  Biso   1.000  N
  N4       1.0000 0.15708  0.33976  0.93452  Biso   1.000  N
  N5       1.0000 0.66024  0.81731  0.93452  Biso   1.000  N
  N6       1.0000 0.18269  0.84292  0.93452  Biso   1.000  N
  N7       1.0000 0.82374  0.67310  0.26786  Biso   1.000  N
  N8       1.0000 0.32690  0.15065  0.26786  Biso   1.000  N
  N9       1.0000 0.84935  0.17626  0.26786  Biso   1.000  N
  N10      1.0000 0.50959  0.99357  0.39881  Biso   1.000  N
  N11      1.0000 0.00643  0.51602  0.39881  Biso   1.000  N
  N12      1.0000 0.48398  0.49041  0.39881  Biso   1.000  N
  N13      1.0000 0.17626  0.32690  0.73214  Biso   1.000  N
  N14      1.0000 0.67310  0.84935  0.73214  Biso   1.000  N
  N15      1.0000 0.15065  0.82374  0.73214  Biso   1.000  N
  N16      1.0000 0.84292  0.66024  0.06548  Biso   1.000  N
  N17      1.0000 0.33976  0.18269  0.06548  Biso   1.000  N
  N18      1.0000 0.81731  0.15708  0.06548  Biso   1.000  N
  N19      1.0000 0.49189  0.98651  0.85826  Biso   1.000  N
  N20      1.0000 0.01349  0.50538  0.85826  Biso   1.000  N
  N21      1.0000 0.49462  0.50811  0.85826  Biso   1.000  N
  N22      1.0000 0.15856  0.31984  0.19159  Biso   1.000  N
  N23      1.0000 0.68016  0.83871  0.19159  Biso   1.000  N
  N24      1.0000 0.16129  0.84144  0.19159  Biso   1.000  N
  N25      1.0000 0.82522  0.65318  0.52493  Biso   1.000  N
  N26      1.0000 0.34682  0.17205  0.52493  Biso   1.000  N
  N27      1.0000 0.82795  0.17478  0.52493  Biso   1.000  N
  N28      1.0000 0.50811  0.01349  0.14174  Biso   1.000  N
  N29      1.0000 0.98651  0.49462  0.14174  Biso   1.000  N
  N30      1.0000 0.50538  0.49189  0.14174  Biso   1.000  N
  N31      1.0000 0.17478  0.34682  0.47507  Biso   1.000  N
  N32      1.0000 0.65318  0.82795  0.47507  Biso   1.000  N
  N33      1.0000 0.17205  0.82522  0.47507  Biso   1.000  N
  N34      1.0000 0.84144  0.68016  0.80841  Biso   1.000  N
  N35      1.0000 0.31984  0.16129  0.80841  Biso   1.000  N
  N36      1.0000 0.83871  0.15856  0.80841  Biso   1.000  N
  H1       1.0000 0.51680  0.96140  0.84010  Biso   1.000  H
  H2       1.0000 0.03860  0.55540  0.84010  Biso   1.000  H
  H3       1.0000 0.44460  0.48320  0.84010  Biso   1.000  H
  H4       1.0000 0.18347  0.29473  0.17343  Biso   1.000  H
  H5       1.0000 0.70527  0.88873  0.17343  Biso   1.000  H
  H6       1.0000 0.11127  0.81653  0.17343  Biso   1.000  H
  H7       1.0000 0.85013  0.62807  0.50677  Biso   1.000  H
  H8       1.0000 0.37193  0.22207  0.50677  Biso   1.000  H
  H9       1.0000 0.77793  0.14987  0.50677  Biso   1.000  H
  H10      1.0000 0.48320  0.03860  0.15990  Biso   1.000  H
  H11      1.0000 0.96140  0.44460  0.15990  Biso   1.000  H
  H12      1.0000 0.55540  0.51680  0.15990  Biso   1.000  H
  H13      1.0000 0.14987  0.37193  0.49323  Biso   1.000  H
  H14      1.0000 0.62807  0.77793  0.49323  Biso   1.000  H
  H15      1.0000 0.22207  0.85013  0.49323  Biso   1.000  H
  H16      1.0000 0.81653  0.70527  0.82657  Biso   1.000  H
  H17      1.0000 0.29473  0.11127  0.82657  Biso   1.000  H
  H18      1.0000 0.88873  0.18347  0.82657  Biso   1.000  H
  C1       1.0000 0.59982  0.15591  0.49146  Biso   1.000  C
  C2       1.0000 0.84409  0.44391  0.49146  Biso   1.000  C
  C3       1.0000 0.55609  0.40018  0.49146  Biso   1.000  C
  C4       1.0000 0.26649  0.48924  0.82479  Biso   1.000  C
  C5       1.0000 0.51076  0.77724  0.82479  Biso   1.000  C
  C6       1.0000 0.22276  0.73351  0.82479  Biso   1.000  C
  C7       1.0000 0.93315  0.82258  0.15813  Biso   1.000  C
  C8       1.0000 0.17742  0.11058  0.15813  Biso   1.000  C
  C9       1.0000 0.88942  0.06685  0.15813  Biso   1.000  C
  C10      1.0000 0.40018  0.84409  0.50854  Biso   1.000  C
  C11      1.0000 0.15591  0.55609  0.50854  Biso   1.000  C
  C12      1.0000 0.44391  0.59982  0.50854  Biso   1.000  C
  C13      1.0000 0.06685  0.17742  0.84187  Biso   1.000  C
  C14      1.0000 0.82258  0.88942  0.84187  Biso   1.000  C
  C15      1.0000 0.11058  0.93315  0.84187  Biso   1.000  C
  C16      1.0000 0.73351  0.51076  0.17521  Biso   1.000  C
  C17      1.0000 0.48924  0.22276  0.17521  Biso   1.000  C
  C18      1.0000 0.77724  0.26649  0.17521  Biso   1.000  C
  C19      1.0000 0.63442  0.24783  0.48917  Biso   1.000  C
  C20      1.0000 0.75217  0.38659  0.48917  Biso   1.000  C
  C21      1.0000 0.61341  0.36558  0.48917  Biso   1.000  C
  C22      1.0000 0.30109  0.58116  0.82250  Biso   1.000  C
  C23      1.0000 0.41884  0.71992  0.82250  Biso   1.000  C
  C24      1.0000 0.28008  0.69891  0.82250  Biso   1.000  C
  C25      1.0000 0.96775  0.91450  0.15584  Biso   1.000  C
  C26      1.0000 0.08550  0.05326  0.15584  Biso   1.000  C
  C27      1.0000 0.94674  0.03225  0.15584  Biso   1.000  C
  C28      1.0000 0.36558  0.75217  0.51083  Biso   1.000  C
  C29      1.0000 0.24783  0.61341  0.51083  Biso   1.000  C
  C30      1.0000 0.38659  0.63442  0.51083  Biso   1.000  C
  C31      1.0000 0.03225  0.08550  0.84416  Biso   1.000  C
  C32      1.0000 0.91450  0.94674  0.84416  Biso   1.000  C
  C33      1.0000 0.05326  0.96775  0.84416  Biso   1.000  C
  C34      1.0000 0.69891  0.41884  0.17750  Biso   1.000  C
  C35      1.0000 0.58116  0.28008  0.17750  Biso   1.000  C
  C36      1.0000 0.71992  0.30109  0.17750  Biso   1.000  C
  C37      1.0000 0.58116  0.27988  0.48921  Biso   1.000  C
  C38      1.0000 0.72012  0.30128  0.48921  Biso   1.000  C
  C39      1.0000 0.69872  0.41884  0.48921  Biso   1.000  C
  C40      1.0000 0.24783  0.61321  0.82254  Biso   1.000  C
  C41      1.0000 0.38679  0.63461  0.82254  Biso   1.000  C
  C42      1.0000 0.36539  0.75217  0.82254  Biso   1.000  C
  C43      1.0000 0.91449  0.94655  0.15588  Biso   1.000  C
  C44      1.0000 0.05345  0.96795  0.15588  Biso   1.000  C
  C45      1.0000 0.03205  0.08551  0.15588  Biso   1.000  C
  C46      1.0000 0.41884  0.72012  0.51079  Biso   1.000  C
  C47      1.0000 0.27988  0.69872  0.51079  Biso   1.000  C
  C48      1.0000 0.30128  0.58116  0.51079  Biso   1.000  C
  C49      1.0000 0.08551  0.05345  0.84412  Biso   1.000  C
  C50      1.0000 0.94655  0.03205  0.84412  Biso   1.000  C
  C51      1.0000 0.96795  0.91449  0.84412  Biso   1.000  C
  C52      1.0000 0.75217  0.38679  0.17746  Biso   1.000  C
  C53      1.0000 0.61321  0.36539  0.17746  Biso   1.000  C
  C54      1.0000 0.63461  0.24783  0.17746  Biso   1.000  C
  H19      1.0000 0.52270  0.24340  0.48930  Biso   1.000  H
  H20      1.0000 0.75660  0.27930  0.48930  Biso   1.000  H
  H21      1.0000 0.72070  0.47730  0.48930  Biso   1.000  H
  H22      1.0000 0.18937  0.57673  0.82263  Biso   1.000  H
  H23      1.0000 0.42327  0.61263  0.82263  Biso   1.000  H
  H24      1.0000 0.38737  0.81063  0.82263  Biso   1.000  H
  H25      1.0000 0.85603  0.91007  0.15597  Biso   1.000  H
  H26      1.0000 0.08993  0.94597  0.15597  Biso   1.000  H
  H27      1.0000 0.05403  0.14397  0.15597  Biso   1.000  H
  H28      1.0000 0.47730  0.75660  0.51070  Biso   1.000  H
  H29      1.0000 0.24340  0.72070  0.51070  Biso   1.000  H
  H30      1.0000 0.27930  0.52270  0.51070  Biso   1.000  H
  H31      1.0000 0.14397  0.08993  0.84403  Biso   1.000  H
  H32      1.0000 0.91007  0.05403  0.84403  Biso   1.000  H
  H33      1.0000 0.94597  0.85603  0.84403  Biso   1.000  H
  H34      1.0000 0.81063  0.42327  0.17737  Biso   1.000  H
  H35      1.0000 0.57673  0.38737  0.17737  Biso   1.000  H
  H36      1.0000 0.61263  0.18937  0.17737  Biso   1.000  H
  C55      1.0000 0.43280  0.03870  0.69614  Biso   1.000  C
  C56      1.0000 0.96130  0.39410  0.69614  Biso   1.000  C
  C57      1.0000 0.60590  0.56720  0.69614  Biso   1.000  C
  C58      1.0000 0.09947  0.37203  0.02947  Biso   1.000  C
  C59      1.0000 0.62797  0.72743  0.02947  Biso   1.000  C
  C60      1.0000 0.27257  0.90053  0.02947  Biso   1.000  C
  C61      1.0000 0.76613  0.70537  0.36281  Biso   1.000  C
  C62      1.0000 0.29463  0.06077  0.36281  Biso   1.000  C
  C63      1.0000 0.93923  0.23387  0.36281  Biso   1.000  C
  C64      1.0000 0.56720  0.96130  0.30386  Biso   1.000  C
  C65      1.0000 0.03870  0.60590  0.30386  Biso   1.000  C
  C66      1.0000 0.39410  0.43280  0.30386  Biso   1.000  C
  C67      1.0000 0.23387  0.29463  0.63719  Biso   1.000  C
  C68      1.0000 0.70537  0.93923  0.63719  Biso   1.000  C
  C69      1.0000 0.06077  0.76613  0.63719  Biso   1.000  C
  C70      1.0000 0.90053  0.62797  0.97053  Biso   1.000  C
  C71      1.0000 0.37203  0.27257  0.97053  Biso   1.000  C
  C72      1.0000 0.72743  0.09947  0.97053  Biso   1.000  C
  H37      1.0000 0.39930  0.06020  0.71280  Biso   1.000  H
  H38      1.0000 0.93980  0.33910  0.71280  Biso   1.000  H
  H39      1.0000 0.66090  0.60070  0.71280  Biso   1.000  H
  H40      1.0000 0.06597  0.39353  0.04613  Biso   1.000  H
  H41      1.0000 0.60647  0.67243  0.04613  Biso   1.000  H
  H42      1.0000 0.32757  0.93403  0.04613  Biso   1.000  H
  H43      1.0000 0.73263  0.72687  0.37947  Biso   1.000  H
  H44      1.0000 0.27313  0.00577  0.37947  Biso   1.000  H
  H45      1.0000 0.99423  0.26737  0.37947  Biso   1.000  H
  H46      1.0000 0.60070  0.93980  0.28720  Biso   1.000  H
  H47      1.0000 0.06020  0.66090  0.28720  Biso   1.000  H
  H48      1.0000 0.33910  0.39930  0.28720  Biso   1.000  H
  H49      1.0000 0.26737  0.27313  0.62053  Biso   1.000  H
  H50      1.0000 0.72687  0.99423  0.62053  Biso   1.000  H
  H51      1.0000 0.00577  0.73263  0.62053  Biso   1.000  H
  H52      1.0000 0.93403  0.60647  0.95387  Biso   1.000  H
  H53      1.0000 0.39353  0.32757  0.95387  Biso   1.000  H
  H54      1.0000 0.67243  0.06597  0.95387  Biso   1.000  H
  C73      1.0000 0.44490  0.03660  0.62736  Biso   1.000  C
  C74      1.0000 0.96340  0.40830  0.62736  Biso   1.000  C
  C75      1.0000 0.59170  0.55510  0.62736  Biso   1.000  C
  C76      1.0000 0.11157  0.36993  0.96069  Biso   1.000  C
  C77      1.0000 0.63007  0.74163  0.96069  Biso   1.000  C
  C78      1.0000 0.25837  0.88843  0.96069  Biso   1.000  C
  C79      1.0000 0.77823  0.70327  0.29403  Biso   1.000  C
  C80      1.0000 0.29673  0.07497  0.29403  Biso   1.000  C
  C81      1.0000 0.92503  0.22177  0.29403  Biso   1.000  C
  C82      1.0000 0.55510  0.96340  0.37264  Biso   1.000  C
  C83      1.0000 0.03660  0.59170  0.37264  Biso   1.000  C
  C84      1.0000 0.40830  0.44490  0.37264  Biso   1.000  C
  C85      1.0000 0.22177  0.29673  0.70597  Biso   1.000  C
  C86      1.0000 0.70327  0.92503  0.70597  Biso   1.000  C
  C87      1.0000 0.07497  0.77823  0.70597  Biso   1.000  C
  C88      1.0000 0.88843  0.63007  0.03931  Biso   1.000  C
  C89      1.0000 0.36993  0.25837  0.03931  Biso   1.000  C
  C90      1.0000 0.74163  0.11157  0.03931  Biso   1.000  C
  H55      1.0000 0.41960  0.05760  0.59740  Biso   1.000  H
  H56      1.0000 0.94240  0.36200  0.59740  Biso   1.000  H
  H57      1.0000 0.63800  0.58040  0.59740  Biso   1.000  H
  H58      1.0000 0.08627  0.39093  0.93073  Biso   1.000  H
  H59      1.0000 0.60907  0.69533  0.93073  Biso   1.000  H
  H60      1.0000 0.30467  0.91373  0.93073  Biso   1.000  H
  H61      1.0000 0.75293  0.72427  0.26407  Biso   1.000  H
  H62      1.0000 0.27573  0.02867  0.26407  Biso   1.000  H
  H63      1.0000 0.97133  0.24707  0.26407  Biso   1.000  H
  H64      1.0000 0.58040  0.94240  0.40260  Biso   1.000  H
  H65      1.0000 0.05760  0.63800  0.40260  Biso   1.000  H
  H66      1.0000 0.36200  0.41960  0.40260  Biso   1.000  H
  H67      1.0000 0.24707  0.27573  0.73593  Biso   1.000  H
  H68      1.0000 0.72427  0.97133  0.73593  Biso   1.000  H
  H69      1.0000 0.02867  0.75293  0.73593  Biso   1.000  H
  H70      1.0000 0.91373  0.60907  0.06927  Biso   1.000  H
  H71      1.0000 0.39093  0.30467  0.06927  Biso   1.000  H
  H72      1.0000 0.69533  0.08627  0.06927  Biso   1.000  H
  C91      1.0000 0.52580  0.97790  0.64433  Biso   1.000  C
  C92      1.0000 0.02210  0.54790  0.64433  Biso   1.000  C
  C93      1.0000 0.45210  0.47420  0.64433  Biso   1.000  C
  C94      1.0000 0.19247  0.31123  0.97766  Biso   1.000  C
  C95      1.0000 0.68877  0.88123  0.97766  Biso   1.000  C
  C96      1.0000 0.11877  0.80753  0.97766  Biso   1.000  C
  C97      1.0000 0.85913  0.64457  0.31100  Biso   1.000  C
  C98      1.0000 0.35543  0.21457  0.31100  Biso   1.000  C
  C99      1.0000 0.78543  0.14087  0.31100  Biso   1.000  C
  C100     1.0000 0.47420  0.02210  0.35567  Biso   1.000  C
  C101     1.0000 0.97790  0.45210  0.35567  Biso   1.000  C
  C102     1.0000 0.54790  0.52580  0.35567  Biso   1.000  C
  C103     1.0000 0.14087  0.35543  0.68900  Biso   1.000  C
  C104     1.0000 0.64457  0.78543  0.68900  Biso   1.000  C
  C105     1.0000 0.21457  0.85913  0.68900  Biso   1.000  C
  C106     1.0000 0.80753  0.68877  0.02234  Biso   1.000  C
  C107     1.0000 0.31123  0.11877  0.02234  Biso   1.000  C
  C108     1.0000 0.88123  0.19247  0.02234  Biso   1.000  C
  H73      1.0000 0.55830  0.95590  0.62630  Biso   1.000  H
  H74      1.0000 0.04410  0.60240  0.62630  Biso   1.000  H
  H75      1.0000 0.39760  0.44170  0.62630  Biso   1.000  H
  H76      1.0000 0.22497  0.28923  0.95963  Biso   1.000  H
  H77      1.0000 0.71077  0.93573  0.95963  Biso   1.000  H
  H78      1.0000 0.06427  0.77503  0.95963  Biso   1.000  H
  H79      1.0000 0.89163  0.62257  0.29297  Biso   1.000  H
  H80      1.0000 0.37743  0.26907  0.29297  Biso   1.000  H
  H81      1.0000 0.73093  0.10837  0.29297  Biso   1.000  H
  H82      1.0000 0.44170  0.04410  0.37370  Biso   1.000  H
  H83      1.0000 0.95590  0.39760  0.37370  Biso   1.000  H
  H84      1.0000 0.60240  0.55830  0.37370  Biso   1.000  H
  H85      1.0000 0.10837  0.37743  0.70703  Biso   1.000  H
  H86      1.0000 0.62257  0.73093  0.70703  Biso   1.000  H
  H87      1.0000 0.26907  0.89163  0.70703  Biso   1.000  H
  H88      1.0000 0.77503  0.71077  0.04037  Biso   1.000  H
  H89      1.0000 0.28923  0.06427  0.04037  Biso   1.000  H
  H90      1.0000 0.93573  0.22497  0.04037  Biso   1.000  H
  C109     1.0000 0.51730  0.97870  0.71359  Biso   1.000  C
  C110     1.0000 0.02130  0.53860  0.71359  Biso   1.000  C
  C111     1.0000 0.46140  0.48270  0.71359  Biso   1.000  C
  C112     1.0000 0.18397  0.31203  0.04692  Biso   1.000  C
  C113     1.0000 0.68797  0.87193  0.04692  Biso   1.000  C
  C114     1.0000 0.12807  0.81603  0.04692  Biso   1.000  C
  C115     1.0000 0.85063  0.64537  0.38026  Biso   1.000  C
  C116     1.0000 0.35463  0.20527  0.38026  Biso   1.000  C
  C117     1.0000 0.79473  0.14937  0.38026  Biso   1.000  C
  C118     1.0000 0.48270  0.02130  0.28641  Biso   1.000  C
  C119     1.0000 0.97870  0.46140  0.28641  Biso   1.000  C
  C120     1.0000 0.53860  0.51730  0.28641  Biso   1.000  C
  C121     1.0000 0.14937  0.35463  0.61974  Biso   1.000  C
  C122     1.0000 0.64537  0.79473  0.61974  Biso   1.000  C
  C123     1.0000 0.20527  0.85063  0.61974  Biso   1.000  C
  C124     1.0000 0.81603  0.68797  0.95308  Biso   1.000  C
  C125     1.0000 0.31203  0.12807  0.95308  Biso   1.000  C
  C126     1.0000 0.87193  0.18397  0.95308  Biso   1.000  C
  H91      1.0000 0.54410  0.95840  0.74250  Biso   1.000  H
  H92      1.0000 0.04160  0.58570  0.74250  Biso   1.000  H
  H93      1.0000 0.41430  0.45590  0.74250  Biso   1.000  H
  H94      1.0000 0.21077  0.29173  0.07583  Biso   1.000  H
  H95      1.0000 0.70827  0.91903  0.07583  Biso   1.000  H
  H96      1.0000 0.08097  0.78923  0.07583  Biso   1.000  H
  H97      1.0000 0.87743  0.62507  0.40917  Biso   1.000  H
  H98      1.0000 0.37493  0.25237  0.40917  Biso   1.000  H
  H99      1.0000 0.74763  0.12257  0.40917  Biso   1.000  H
  H100     1.0000 0.45590  0.04160  0.25750  Biso   1.000  H
  H101     1.0000 0.95840  0.41430  0.25750  Biso   1.000  H
  H102     1.0000 0.58570  0.54410  0.25750  Biso   1.000  H
  H103     1.0000 0.12257  0.37493  0.59083  Biso   1.000  H
  H104     1.0000 0.62507  0.74763  0.59083  Biso   1.000  H
  H105     1.0000 0.25237  0.87743  0.59083  Biso   1.000  H
  H106     1.0000 0.78923  0.70827  0.92417  Biso   1.000  H
  H107     1.0000 0.29173  0.08097  0.92417  Biso   1.000  H
  H108     1.0000 0.91903  0.21077  0.92417  Biso   1.000  H
  C127     1.0000 0.46947  0.00935  0.74073  Biso   1.000  C
  C128     1.0000 0.99065  0.46012  0.74073  Biso   1.000  C
  C129     1.0000 0.53988  0.53053  0.74073  Biso   1.000  C
  C130     1.0000 0.13614  0.34268  0.07406  Biso   1.000  C
  C131     1.0000 0.65732  0.79345  0.07406  Biso   1.000  C
  C132     1.0000 0.20655  0.86386  0.07406  Biso   1.000  C
  C133     1.0000 0.80280  0.67602  0.40740  Biso   1.000  C
  C134     1.0000 0.32398  0.12679  0.40740  Biso   1.000  C
  C135     1.0000 0.87321  0.19720  0.40740  Biso   1.000  C
  C136     1.0000 0.53053  0.99065  0.25927  Biso   1.000  C
  C137     1.0000 0.00935  0.53988  0.25927  Biso   1.000  C
  C138     1.0000 0.46012  0.46947  0.25927  Biso   1.000  C
  C139     1.0000 0.19720  0.32398  0.59260  Biso   1.000  C
  C140     1.0000 0.67602  0.87321  0.59260  Biso   1.000  C
  C141     1.0000 0.12679  0.80280  0.59260  Biso   1.000  C
  C142     1.0000 0.86386  0.65732  0.92594  Biso   1.000  C
  C143     1.0000 0.34268  0.20655  0.92594  Biso   1.000  C
  C144     1.0000 0.79345  0.13614  0.92594  Biso   1.000  C
  C145     1.0000 0.45491  0.01485  0.81558  Biso   1.000  C
  C146     1.0000 0.98515  0.44006  0.81558  Biso   1.000  C
  C147     1.0000 0.55994  0.54509  0.81558  Biso   1.000  C
  C148     1.0000 0.12158  0.34818  0.14891  Biso   1.000  C
  C149     1.0000 0.65182  0.77339  0.14891  Biso   1.000  C
  C150     1.0000 0.22661  0.87842  0.14891  Biso   1.000  C
  C151     1.0000 0.78824  0.68152  0.48225  Biso   1.000  C
  C152     1.0000 0.31848  0.10673  0.48225  Biso   1.000  C
  C153     1.0000 0.89327  0.21176  0.48225  Biso   1.000  C
  C154     1.0000 0.54509  0.98515  0.18442  Biso   1.000  C
  C155     1.0000 0.01485  0.55994  0.18442  Biso   1.000  C
  C156     1.0000 0.44006  0.45491  0.18442  Biso   1.000  C
  C157     1.0000 0.21176  0.31848  0.51775  Biso   1.000  C
  C158     1.0000 0.68152  0.89327  0.51775  Biso   1.000  C
  C159     1.0000 0.10673  0.78824  0.51775  Biso   1.000  C
  C160     1.0000 0.87842  0.65182  0.85109  Biso   1.000  C
  C161     1.0000 0.34818  0.22661  0.85109  Biso   1.000  C
  C162     1.0000 0.77339  0.12158  0.85109  Biso   1.000  C
  C163     1.0000 0.49397  0.99371  0.92968  Biso   1.000  C
  C164     1.0000 0.00629  0.50026  0.92968  Biso   1.000  C
  C165     1.0000 0.49974  0.50603  0.92968  Biso   1.000  C
  C166     1.0000 0.16064  0.32704  0.26301  Biso   1.000  C
  C167     1.0000 0.67296  0.83359  0.26301  Biso   1.000  C
  C168     1.0000 0.16641  0.83936  0.26301  Biso   1.000  C
  C169     1.0000 0.82730  0.66038  0.59635  Biso   1.000  C
  C170     1.0000 0.33962  0.16693  0.59635  Biso   1.000  C
  C171     1.0000 0.83307  0.17270  0.59635  Biso   1.000  C
  C172     1.0000 0.50603  0.00629  0.07032  Biso   1.000  C
  C173     1.0000 0.99371  0.49974  0.07032  Biso   1.000  C
  C174     1.0000 0.50026  0.49397  0.07032  Biso   1.000  C
  C175     1.0000 0.17270  0.33962  0.40365  Biso   1.000  C
  C176     1.0000 0.66038  0.83307  0.40365  Biso   1.000  C
  C177     1.0000 0.16693  0.82730  0.40365  Biso   1.000  C
  C178     1.0000 0.83936  0.67296  0.73699  Biso   1.000  C
  C179     1.0000 0.32704  0.16641  0.73699  Biso   1.000  C
  C180     1.0000 0.83359  0.16064  0.73699  Biso   1.000  C
  C181     1.0000 0.50235  0.93569  0.96734  Biso   1.000  C
  C182     1.0000 0.06431  0.56666  0.96734  Biso   1.000  C
  C183     1.0000 0.43334  0.49765  0.96734  Biso   1.000  C
  C184     1.0000 0.16902  0.26902  0.30067  Biso   1.000  C
  C185     1.0000 0.73098  0.89999  0.30067  Biso   1.000  C
  C186     1.0000 0.10001  0.83098  0.30067  Biso   1.000  C
  C187     1.0000 0.83568  0.60236  0.63401  Biso   1.000  C
  C188     1.0000 0.39764  0.23333  0.63401  Biso   1.000  C
  C189     1.0000 0.76667  0.16432  0.63401  Biso   1.000  C
  C190     1.0000 0.49765  0.06431  0.03266  Biso   1.000  C
  C191     1.0000 0.93569  0.43334  0.03266  Biso   1.000  C
  C192     1.0000 0.56666  0.50235  0.03266  Biso   1.000  C
  C193     1.0000 0.16432  0.39764  0.36599  Biso   1.000  C
  C194     1.0000 0.60236  0.76667  0.36599  Biso   1.000  C
  C195     1.0000 0.23333  0.83568  0.36599  Biso   1.000  C
  C196     1.0000 0.83098  0.73098  0.69933  Biso   1.000  C
  C197     1.0000 0.26902  0.10001  0.69933  Biso   1.000  C
  C198     1.0000 0.89999  0.16902  0.69933  Biso   1.000  C
  H109     1.0000 0.50390  0.89120  0.94500  Biso   1.000  H
  H110     1.0000 0.10880  0.61270  0.94500  Biso   1.000  H
  H111     1.0000 0.38730  0.49610  0.94500  Biso   1.000  H
  H112     1.0000 0.17057  0.22453  0.27833  Biso   1.000  H
  H113     1.0000 0.77547  0.94603  0.27833  Biso   1.000  H
  H114     1.0000 0.05397  0.82943  0.27833  Biso   1.000  H
  H115     1.0000 0.83723  0.55787  0.61167  Biso   1.000  H
  H116     1.0000 0.44213  0.27937  0.61167  Biso   1.000  H
  H117     1.0000 0.72063  0.16277  0.61167  Biso   1.000  H
  H118     1.0000 0.49610  0.10880  0.05500  Biso   1.000  H
  H119     1.0000 0.89120  0.38730  0.05500  Biso   1.000  H
  H120     1.0000 0.61270  0.50390  0.05500  Biso   1.000  H
  H121     1.0000 0.16277  0.44213  0.38833  Biso   1.000  H
  H122     1.0000 0.55787  0.72063  0.38833  Biso   1.000  H
  H123     1.0000 0.27937  0.83723  0.38833  Biso   1.000  H
  H124     1.0000 0.82943  0.77547  0.72167  Biso   1.000  H
  H125     1.0000 0.22453  0.05397  0.72167  Biso   1.000  H
  H126     1.0000 0.94603  0.17057  0.72167  Biso   1.000  H
  C199     1.0000 0.49150  0.05852  0.96262  Biso   1.000  C
  C200     1.0000 0.94148  0.43298  0.96262  Biso   1.000  C
  C201     1.0000 0.56702  0.50850  0.96262  Biso   1.000  C
  C202     1.0000 0.15817  0.39185  0.29595  Biso   1.000  C
  C203     1.0000 0.60815  0.76631  0.29595  Biso   1.000  C
  C204     1.0000 0.23369  0.84183  0.29595  Biso   1.000  C
  C205     1.0000 0.82483  0.72519  0.62929  Biso   1.000  C
  C206     1.0000 0.27481  0.09965  0.62929  Biso   1.000  C
  C207     1.0000 0.90035  0.17517  0.62929  Biso   1.000  C
  C208     1.0000 0.50850  0.94148  0.03738  Biso   1.000  C
  C209     1.0000 0.05852  0.56702  0.03738  Biso   1.000  C
  C210     1.0000 0.43298  0.49150  0.03738  Biso   1.000  C
  C211     1.0000 0.17517  0.27481  0.37071  Biso   1.000  C
  C212     1.0000 0.72519  0.90035  0.37071  Biso   1.000  C
  C213     1.0000 0.09965  0.82483  0.37071  Biso   1.000  C
  C214     1.0000 0.84183  0.60815  0.70405  Biso   1.000  C
  C215     1.0000 0.39185  0.23369  0.70405  Biso   1.000  C
  C216     1.0000 0.76631  0.15817  0.70405  Biso   1.000  C
  H127     1.0000 0.48560  0.09880  0.93720  Biso   1.000  H
  H128     1.0000 0.90120  0.38680  0.93720  Biso   1.000  H
  H129     1.0000 0.61320  0.51440  0.93720  Biso   1.000  H
  H130     1.0000 0.15227  0.43213  0.27053  Biso   1.000  H
  H131     1.0000 0.56787  0.72013  0.27053  Biso   1.000  H
  H132     1.0000 0.27987  0.84773  0.27053  Biso   1.000  H
  H133     1.0000 0.81893  0.76547  0.60387  Biso   1.000  H
  H134     1.0000 0.23453  0.05347  0.60387  Biso   1.000  H
  H135     1.0000 0.94653  0.18107  0.60387  Biso   1.000  H
  H136     1.0000 0.51440  0.90120  0.06280  Biso   1.000  H
  H137     1.0000 0.09880  0.61320  0.06280  Biso   1.000  H
  H138     1.0000 0.38680  0.48560  0.06280  Biso   1.000  H
  H139     1.0000 0.18107  0.23453  0.39613  Biso   1.000  H
  H140     1.0000 0.76547  0.94653  0.39613  Biso   1.000  H
  H141     1.0000 0.05347  0.81893  0.39613  Biso   1.000  H
  H142     1.0000 0.84773  0.56787  0.72947  Biso   1.000  H
  H143     1.0000 0.43213  0.27987  0.72947  Biso   1.000  H
  H144     1.0000 0.72013  0.15227  0.72947  Biso   1.000  H
  O1       1.0000 0.52031  0.11199  0.49113  Biso   1.000  O
  O2       1.0000 0.88801  0.40832  0.49113  Biso   1.000  O
  O3       1.0000 0.59168  0.47969  0.49113  Biso   1.000  O
  O4       1.0000 0.18698  0.44532  0.82446  Biso   1.000  O
  O5       1.0000 0.55468  0.74165  0.82446  Biso   1.000  O
  O6       1.0000 0.25835  0.81302  0.82446  Biso   1.000  O
  O7       1.0000 0.85364  0.77866  0.15780  Biso   1.000  O
  O8       1.0000 0.22134  0.07499  0.15780  Biso   1.000  O
  O9       1.0000 0.92501  0.14636  0.15780  Biso   1.000  O
  O10      1.0000 0.47969  0.88801  0.50887  Biso   1.000  O
  O11      1.0000 0.11199  0.59168  0.50887  Biso   1.000  O
  O12      1.0000 0.40832  0.52031  0.50887  Biso   1.000  O
  O13      1.0000 0.14636  0.22134  0.84220  Biso   1.000  O
  O14      1.0000 0.77866  0.92501  0.84220  Biso   1.000  O
  O15      1.0000 0.07499  0.85364  0.84220  Biso   1.000  O
  O16      1.0000 0.81302  0.55468  0.17554  Biso   1.000  O
  O17      1.0000 0.44532  0.25835  0.17554  Biso   1.000  O
  O18      1.0000 0.74165  0.18698  0.17554  Biso   1.000  O
  O19      1.0000 0.64617  0.12544  0.49497  Biso   1.000  O
  O20      1.0000 0.87456  0.52073  0.49497  Biso   1.000  O
  O21      1.0000 0.47927  0.35383  0.49497  Biso   1.000  O
  O22      1.0000 0.31284  0.45877  0.82830  Biso   1.000  O
  O23      1.0000 0.54123  0.85406  0.82830  Biso   1.000  O
  O24      1.0000 0.14594  0.68716  0.82830  Biso   1.000  O
  O25      1.0000 0.97950  0.79211  0.16164  Biso   1.000  O
  O26      1.0000 0.20789  0.18740  0.16164  Biso   1.000  O
  O27      1.0000 0.81260  0.02050  0.16164  Biso   1.000  O
  O28      1.0000 0.35383  0.87456  0.50503  Biso   1.000  O
  O29      1.0000 0.12544  0.47927  0.50503  Biso   1.000  O
  O30      1.0000 0.52073  0.64617  0.50503  Biso   1.000  O
  O31      1.0000 0.02050  0.20789  0.83836  Biso   1.000  O
  O32      1.0000 0.79211  0.81260  0.83836  Biso   1.000  O
  O33      1.0000 0.18740  0.97950  0.83836  Biso   1.000  O
  O34      1.0000 0.68716  0.54123  0.17170  Biso   1.000  O
  O35      1.0000 0.45877  0.14594  0.17170  Biso   1.000  O
  O36      1.0000 0.85406  0.31284  0.17170  Biso   1.000  O
  O37      1.0000 0.41239  0.04415  0.83389  Biso   1.000  O
  O38      1.0000 0.95585  0.36824  0.83389  Biso   1.000  O
  O39      1.0000 0.63176  0.58761  0.83389  Biso   1.000  O
  O40      1.0000 0.07906  0.37748  0.16722  Biso   1.000  O
  O41      1.0000 0.62252  0.70157  0.16722  Biso   1.000  O
  O42      1.0000 0.29843  0.92094  0.16722  Biso   1.000  O
  O43      1.0000 0.74572  0.71082  0.50056  Biso   1.000  O
  O44      1.0000 0.28918  0.03491  0.50056  Biso   1.000  O
  O45      1.0000 0.96509  0.25428  0.50056  Biso   1.000  O
  O46      1.0000 0.58761  0.95585  0.16611  Biso   1.000  O
  O47      1.0000 0.04415  0.63176  0.16611  Biso   1.000  O
  O48      1.0000 0.36824  0.41239  0.16611  Biso   1.000  O
  O49      1.0000 0.25428  0.28918  0.49944  Biso   1.000  O
  O50      1.0000 0.71082  0.96509  0.49944  Biso   1.000  O
  O51      1.0000 0.03491  0.74572  0.49944  Biso   1.000  O
  O52      1.0000 0.92094  0.62252  0.83278  Biso   1.000  O
  O53      1.0000 0.37748  0.29843  0.83278  Biso   1.000  O
  O54      1.0000 0.70157  0.07906  0.83278  Biso   1.000  O
  O55      1.0000 0.52010  0.23320  0.85620  Biso   1.000  O
  O56      1.0000 0.76680  0.28690  0.85620  Biso   1.000  O
  O57      1.0000 0.71310  0.47990  0.85620  Biso   1.000  O
  O58      1.0000 0.18677  0.56653  0.18953  Biso   1.000  O
  O59      1.0000 0.43347  0.62023  0.18953  Biso   1.000  O
  O60      1.0000 0.37977  0.81323  0.18953  Biso   1.000  O
  O61      1.0000 0.85343  0.89987  0.52287  Biso   1.000  O
  O62      1.0000 0.10013  0.95357  0.52287  Biso   1.000  O
  O63      1.0000 0.04643  0.14657  0.52287  Biso   1.000  O
  O64      1.0000 0.47990  0.76680  0.14380  Biso   1.000  O
  O65      1.0000 0.23320  0.71310  0.14380  Biso   1.000  O
  O66      1.0000 0.28690  0.52010  0.14380  Biso   1.000  O
  O67      1.0000 0.14657  0.10013  0.47713  Biso   1.000  O
  O68      1.0000 0.89987  0.04643  0.47713  Biso   1.000  O
  O69      1.0000 0.95357  0.85343  0.47713  Biso   1.000  O
  O70      1.0000 0.81323  0.43347  0.81047  Biso   1.000  O
  O71      1.0000 0.56653  0.37977  0.81047  Biso   1.000  O
  O72      1.0000 0.62023  0.18677  0.81047  Biso   1.000  O
  H145     1.0000 0.54780  0.24590  0.89280  Biso   1.000  H
  H146     1.0000 0.75410  0.30190  0.89280  Biso   1.000  H
  H147     1.0000 0.69810  0.45220  0.89280  Biso   1.000  H
  H148     1.0000 0.21447  0.57923  0.22613  Biso   1.000  H
  H149     1.0000 0.42077  0.63523  0.22613  Biso   1.000  H
  H150     1.0000 0.36477  0.78553  0.22613  Biso   1.000  H
  H151     1.0000 0.88113  0.91257  0.55947  Biso   1.000  H
  H152     1.0000 0.08743  0.96857  0.55947  Biso   1.000  H
  H153     1.0000 0.03143  0.11887  0.55947  Biso   1.000  H
  H154     1.0000 0.45220  0.75410  0.10720  Biso   1.000  H
  H155     1.0000 0.24590  0.69810  0.10720  Biso   1.000  H
  H156     1.0000 0.30190  0.54780  0.10720  Biso   1.000  H
  H157     1.0000 0.11887  0.08743  0.44053  Biso   1.000  H
  H158     1.0000 0.91257  0.03143  0.44053  Biso   1.000  H
  H159     1.0000 0.96857  0.88113  0.44053  Biso   1.000  H
  H160     1.0000 0.78553  0.42077  0.77387  Biso   1.000  H
  H161     1.0000 0.57923  0.36477  0.77387  Biso   1.000  H
  H162     1.0000 0.63523  0.21447  0.77387  Biso   1.000  H
  H163     1.0000 0.56640  0.26750  0.83810  Biso   1.000  H
  H164     1.0000 0.73250  0.29890  0.83810  Biso   1.000  H
  H165     1.0000 0.70110  0.43360  0.83810  Biso   1.000  H
  H166     1.0000 0.23307  0.60083  0.17143  Biso   1.000  H
  H167     1.0000 0.39917  0.63223  0.17143  Biso   1.000  H
  H168     1.0000 0.36777  0.76693  0.17143  Biso   1.000  H
  H169     1.0000 0.89973  0.93417  0.50477  Biso   1.000  H
  H170     1.0000 0.06583  0.96557  0.50477  Biso   1.000  H
  H171     1.0000 0.03443  0.10027  0.50477  Biso   1.000  H
  H172     1.0000 0.43360  0.73250  0.16190  Biso   1.000  H
  H173     1.0000 0.26750  0.70110  0.16190  Biso   1.000  H
  H174     1.0000 0.29890  0.56640  0.16190  Biso   1.000  H
  H175     1.0000 0.10027  0.06583  0.49523  Biso   1.000  H
  H176     1.0000 0.93417  0.03443  0.49523  Biso   1.000  H
  H177     1.0000 0.96557  0.89973  0.49523  Biso   1.000  H
  H178     1.0000 0.76693  0.39917  0.82857  Biso   1.000  H
  H179     1.0000 0.60083  0.36777  0.82857  Biso   1.000  H
  H180     1.0000 0.63223  0.23307  0.82857  Biso   1.000  H
  O73      1.0000 0.56420  0.28140  0.99990  Biso   1.000  O
  O74      1.0000 0.71860  0.28280  0.99990  Biso   1.000  O
  O75      1.0000 0.71720  0.43580  0.99990  Biso   1.000  O
  O76      1.0000 0.23087  0.61473  0.33323  Biso   1.000  O
  O77      1.0000 0.38527  0.61613  0.33323  Biso   1.000  O
  O78      1.0000 0.38387  0.76913  0.33323  Biso   1.000  O
  O79      1.0000 0.89753  0.94807  0.66657  Biso   1.000  O
  O80      1.0000 0.05193  0.94947  0.66657  Biso   1.000  O
  O81      1.0000 0.05053  0.10247  0.66657  Biso   1.000  O
  O82      1.0000 0.43580  0.71860  0.00010  Biso   1.000  O
  O83      1.0000 0.28140  0.71720  0.00010  Biso   1.000  O
  O84      1.0000 0.28280  0.56420  0.00010  Biso   1.000  O
  O85      1.0000 0.10247  0.05193  0.33343  Biso   1.000  O
  O86      1.0000 0.94807  0.05053  0.33343  Biso   1.000  O
  O87      1.0000 0.94947  0.89753  0.33343  Biso   1.000  O
  O88      1.0000 0.76913  0.38527  0.66677  Biso   1.000  O
  O89      1.0000 0.61473  0.38387  0.66677  Biso   1.000  O
  O90      1.0000 0.61613  0.23087  0.66677  Biso   1.000  O
  H181     1.0000 0.55620  0.28170  0.95750  Biso   1.000  H
  H182     1.0000 0.71830  0.27450  0.95750  Biso   1.000  H
  H183     1.0000 0.72550  0.44380  0.95750  Biso   1.000  H
  H184     1.0000 0.22287  0.61503  0.29083  Biso   1.000  H
  H185     1.0000 0.38497  0.60783  0.29083  Biso   1.000  H
  H186     1.0000 0.39217  0.77713  0.29083  Biso   1.000  H
  H187     1.0000 0.88953  0.94837  0.62417  Biso   1.000  H
  H188     1.0000 0.05163  0.94117  0.62417  Biso   1.000  H
  H189     1.0000 0.05883  0.11047  0.62417  Biso   1.000  H
  H190     1.0000 0.44380  0.71830  0.04250  Biso   1.000  H
  H191     1.0000 0.28170  0.72550  0.04250  Biso   1.000  H
  H192     1.0000 0.27450  0.55620  0.04250  Biso   1.000  H
  H193     1.0000 0.11047  0.05163  0.37583  Biso   1.000  H
  H194     1.0000 0.94837  0.05883  0.37583  Biso   1.000  H
  H195     1.0000 0.94117  0.88953  0.37583  Biso   1.000  H
  H196     1.0000 0.77713  0.38497  0.70917  Biso   1.000  H
  H197     1.0000 0.61503  0.39217  0.70917  Biso   1.000  H
  H198     1.0000 0.60783  0.22287  0.70917  Biso   1.000  H
  H199     1.0000 0.60750  0.32930  0.99980  Biso   1.000  H
  H200     1.0000 0.67070  0.27820  0.99980  Biso   1.000  H
  H201     1.0000 0.72180  0.39250  0.99980  Biso   1.000  H
  H202     1.0000 0.27417  0.66263  0.33313  Biso   1.000  H
  H203     1.0000 0.33737  0.61153  0.33313  Biso   1.000  H
  H204     1.0000 0.38847  0.72583  0.33313  Biso   1.000  H
  H205     1.0000 0.94083  0.99597  0.66647  Biso   1.000  H
  H206     1.0000 0.00403  0.94487  0.66647  Biso   1.000  H
  H207     1.0000 0.05513  0.05917  0.66647  Biso   1.000  H
  H208     1.0000 0.39250  0.67070  0.00020  Biso   1.000  H
  H209     1.0000 0.32930  0.72180  0.00020  Biso   1.000  H
  H210     1.0000 0.27820  0.60750  0.00020  Biso   1.000  H
  H211     1.0000 0.05917  0.00403  0.33353  Biso   1.000  H
  H212     1.0000 0.99597  0.05513  0.33353  Biso   1.000  H
  H213     1.0000 0.94487  0.94083  0.33353  Biso   1.000  H
  H214     1.0000 0.72583  0.33737  0.66687  Biso   1.000  H
  H215     1.0000 0.66263  0.38847  0.66687  Biso   1.000  H
  H216     1.0000 0.61153  0.27417  0.66687  Biso   1.000  H
