data_image0
_cell_length_a       19.1042
_cell_length_b       12.5326
_cell_length_c       18.8042
_cell_angle_alpha    90
_cell_angle_beta     112.688
_cell_angle_gamma    90

_symmetry_space_group_name_H-M    "P 1"
_symmetry_int_tables_number       1

loop_
  _symmetry_equiv_pos_as_xyz
  'x, y, z'

loop_
  _atom_site_label
  _atom_site_occupancy
  _atom_site_fract_x
  _atom_site_fract_y
  _atom_site_fract_z
  _atom_site_thermal_displace_type
  _atom_site_B_iso_or_equiv
  _atom_site_type_symbol
  C1       1.0000 0.39325  0.92097  0.47363  Biso   1.000  C
  C2       1.0000 0.60675  0.42097  0.02637  Biso   1.000  C
  C3       1.0000 0.60675  0.07903  0.52637  Biso   1.000  C
  C4       1.0000 0.39325  0.57903  0.97363  Biso   1.000  C
  H1       1.0000 0.38840  0.98370  0.50160  Biso   1.000  H
  H2       1.0000 0.61160  0.48370  0.99840  Biso   1.000  H
  H3       1.0000 0.61160  0.01630  0.49840  Biso   1.000  H
  H4       1.0000 0.38840  0.51630  0.00160  Biso   1.000  H
  H5       1.0000 0.39520  0.94430  0.42520  Biso   1.000  H
  H6       1.0000 0.60480  0.44430  0.07480  Biso   1.000  H
  H7       1.0000 0.60480  0.05570  0.57480  Biso   1.000  H
  H8       1.0000 0.39520  0.55570  0.92520  Biso   1.000  H
  C5       1.0000 0.46552  0.86240  0.52037  Biso   1.000  C
  C6       1.0000 0.53448  0.36240  0.97963  Biso   1.000  C
  C7       1.0000 0.53448  0.13760  0.47963  Biso   1.000  C
  C8       1.0000 0.46552  0.63760  0.02037  Biso   1.000  C
  H9       1.0000 0.50900  0.90460  0.52310  Biso   1.000  H
  H10      1.0000 0.49100  0.40460  0.97690  Biso   1.000  H
  H11      1.0000 0.49100  0.09540  0.47690  Biso   1.000  H
  H12      1.0000 0.50900  0.59540  0.02310  Biso   1.000  H
  H13      1.0000 0.46830  0.85130  0.57240  Biso   1.000  H
  H14      1.0000 0.53170  0.35130  0.92760  Biso   1.000  H
  H15      1.0000 0.53170  0.14870  0.42760  Biso   1.000  H
  H16      1.0000 0.46830  0.64870  0.07240  Biso   1.000  H
  C9       1.0000 0.50542  0.75900  0.42885  Biso   1.000  C
  C10      1.0000 0.49458  0.25900  0.07115  Biso   1.000  C
  C11      1.0000 0.49458  0.24100  0.57115  Biso   1.000  C
  C12      1.0000 0.50542  0.74100  0.92885  Biso   1.000  C
  H17      1.0000 0.55970  0.76710  0.45640  Biso   1.000  H
  H18      1.0000 0.44030  0.26710  0.04360  Biso   1.000  H
  H19      1.0000 0.44030  0.23290  0.54360  Biso   1.000  H
  H20      1.0000 0.55970  0.73290  0.95640  Biso   1.000  H
  H21      1.0000 0.48700  0.81780  0.39290  Biso   1.000  H
  H22      1.0000 0.51300  0.31780  0.10710  Biso   1.000  H
  H23      1.0000 0.51300  0.18220  0.60710  Biso   1.000  H
  H24      1.0000 0.48700  0.68220  0.89290  Biso   1.000  H
  C13      1.0000 0.48790  0.65410  0.38641  Biso   1.000  C
  C14      1.0000 0.51210  0.15410  0.11359  Biso   1.000  C
  C15      1.0000 0.51210  0.34590  0.61359  Biso   1.000  C
  C16      1.0000 0.48790  0.84590  0.88641  Biso   1.000  C
  H25      1.0000 0.50800  0.65410  0.34630  Biso   1.000  H
  H26      1.0000 0.49200  0.15410  0.15370  Biso   1.000  H
  H27      1.0000 0.49200  0.34590  0.65370  Biso   1.000  H
  H28      1.0000 0.50800  0.84590  0.84630  Biso   1.000  H
  H29      1.0000 0.51170  0.59630  0.42180  Biso   1.000  H
  H30      1.0000 0.48830  0.09630  0.07820  Biso   1.000  H
  H31      1.0000 0.48830  0.40370  0.57820  Biso   1.000  H
  H32      1.0000 0.51170  0.90370  0.92180  Biso   1.000  H
  C17      1.0000 0.36599  0.68680  0.27501  Biso   1.000  C
  C18      1.0000 0.63401  0.18680  0.22499  Biso   1.000  C
  C19      1.0000 0.63401  0.31320  0.72499  Biso   1.000  C
  C20      1.0000 0.36599  0.81320  0.77501  Biso   1.000  C
  H33      1.0000 0.37720  0.64680  0.23650  Biso   1.000  H
  H34      1.0000 0.62280  0.14680  0.26350  Biso   1.000  H
  H35      1.0000 0.62280  0.35320  0.76350  Biso   1.000  H
  H36      1.0000 0.37720  0.85320  0.73650  Biso   1.000  H
  H37      1.0000 0.38340  0.75960  0.27530  Biso   1.000  H
  H38      1.0000 0.61660  0.25960  0.22470  Biso   1.000  H
  H39      1.0000 0.61660  0.24040  0.72470  Biso   1.000  H
  H40      1.0000 0.38340  0.74040  0.77530  Biso   1.000  H
  C21      1.0000 0.28202  0.68580  0.25614  Biso   1.000  C
  C22      1.0000 0.71798  0.18580  0.24386  Biso   1.000  C
  C23      1.0000 0.71798  0.31420  0.74386  Biso   1.000  C
  C24      1.0000 0.28202  0.81420  0.75614  Biso   1.000  C
  H41      1.0000 0.25580  0.72550  0.20900  Biso   1.000  H
  H42      1.0000 0.74420  0.22550  0.29100  Biso   1.000  H
  H43      1.0000 0.74420  0.27450  0.79100  Biso   1.000  H
  H44      1.0000 0.25580  0.77450  0.70900  Biso   1.000  H
  H45      1.0000 0.26340  0.61300  0.24830  Biso   1.000  H
  H46      1.0000 0.73660  0.11300  0.25170  Biso   1.000  H
  H47      1.0000 0.73660  0.38700  0.75170  Biso   1.000  H
  H48      1.0000 0.26340  0.88700  0.74830  Biso   1.000  H
  C25      1.0000 0.25970  0.85274  0.31698  Biso   1.000  C
  C26      1.0000 0.74030  0.35274  0.18302  Biso   1.000  C
  C27      1.0000 0.74030  0.14726  0.68302  Biso   1.000  C
  C28      1.0000 0.25970  0.64726  0.81698  Biso   1.000  C
  H49      1.0000 0.21330  0.87360  0.27470  Biso   1.000  H
  H50      1.0000 0.78670  0.37360  0.22530  Biso   1.000  H
  H51      1.0000 0.78670  0.12640  0.72530  Biso   1.000  H
  H52      1.0000 0.21330  0.62640  0.77470  Biso   1.000  H
  H53      1.0000 0.30230  0.88440  0.30880  Biso   1.000  H
  H54      1.0000 0.69770  0.38440  0.19120  Biso   1.000  H
  H55      1.0000 0.69770  0.11560  0.69120  Biso   1.000  H
  H56      1.0000 0.30230  0.61560  0.80880  Biso   1.000  H
  C29      1.0000 0.25818  0.89007  0.39280  Biso   1.000  C
  C30      1.0000 0.74182  0.39007  0.10720  Biso   1.000  C
  C31      1.0000 0.74182  0.10993  0.60720  Biso   1.000  C
  C32      1.0000 0.25818  0.60993  0.89280  Biso   1.000  C
  H57      1.0000 0.25730  0.96740  0.39390  Biso   1.000  H
  H58      1.0000 0.74270  0.46740  0.10610  Biso   1.000  H
  H59      1.0000 0.74270  0.03260  0.60610  Biso   1.000  H
  H60      1.0000 0.25730  0.53260  0.89390  Biso   1.000  H
  H61      1.0000 0.21260  0.86390  0.39800  Biso   1.000  H
  H62      1.0000 0.78740  0.36390  0.10200  Biso   1.000  H
  H63      1.0000 0.78740  0.13610  0.60200  Biso   1.000  H
  H64      1.0000 0.21260  0.63610  0.89800  Biso   1.000  H
  C33      1.0000 0.30954  0.82809  0.52811  Biso   1.000  C
  C34      1.0000 0.69046  0.32809  0.97189  Biso   1.000  C
  C35      1.0000 0.69046  0.17191  0.47189  Biso   1.000  C
  C36      1.0000 0.30954  0.67191  0.02811  Biso   1.000  C
  H65      1.0000 0.35640  0.80680  0.56950  Biso   1.000  H
  H66      1.0000 0.64360  0.30680  0.93050  Biso   1.000  H
  H67      1.0000 0.64360  0.19320  0.43050  Biso   1.000  H
  H68      1.0000 0.35640  0.69320  0.06950  Biso   1.000  H
  H69      1.0000 0.27510  0.76790  0.51710  Biso   1.000  H
  H70      1.0000 0.72490  0.26790  0.98290  Biso   1.000  H
  H71      1.0000 0.72490  0.23210  0.48290  Biso   1.000  H
  H72      1.0000 0.27510  0.73210  0.01710  Biso   1.000  H
  C37      1.0000 0.27558  0.91888  0.55662  Biso   1.000  C
  C38      1.0000 0.72442  0.41888  0.94338  Biso   1.000  C
  C39      1.0000 0.72442  0.08112  0.44338  Biso   1.000  C
  C40      1.0000 0.27558  0.58112  0.05662  Biso   1.000  C
  C41      1.0000 0.19715  0.92669  0.53385  Biso   1.000  C
  C42      1.0000 0.80285  0.42669  0.96615  Biso   1.000  C
  C43      1.0000 0.80285  0.07331  0.46615  Biso   1.000  C
  C44      1.0000 0.19715  0.57331  0.03385  Biso   1.000  C
  H73      1.0000 0.16550  0.87730  0.49950  Biso   1.000  H
  H74      1.0000 0.83450  0.37730  0.00050  Biso   1.000  H
  H75      1.0000 0.83450  0.12270  0.50050  Biso   1.000  H
  H76      1.0000 0.16550  0.62270  0.99950  Biso   1.000  H
  C45      1.0000 0.16646  0.00759  0.56229  Biso   1.000  C
  C46      1.0000 0.83354  0.50759  0.93771  Biso   1.000  C
  C47      1.0000 0.83354  0.99241  0.43771  Biso   1.000  C
  C48      1.0000 0.16646  0.49241  0.06229  Biso   1.000  C
  H77      1.0000 0.11390  0.01170  0.54560  Biso   1.000  H
  H78      1.0000 0.88610  0.51170  0.95440  Biso   1.000  H
  H79      1.0000 0.88610  0.98830  0.45440  Biso   1.000  H
  H80      1.0000 0.11390  0.48830  0.04560  Biso   1.000  H
  C49      1.0000 0.28429  0.07149  0.63592  Biso   1.000  C
  C50      1.0000 0.71571  0.57149  0.86408  Biso   1.000  C
  C51      1.0000 0.71571  0.92851  0.36408  Biso   1.000  C
  C52      1.0000 0.28429  0.42851  0.13592  Biso   1.000  C
  H81      1.0000 0.31470  0.12050  0.67160  Biso   1.000  H
  H82      1.0000 0.68530  0.62050  0.82840  Biso   1.000  H
  H83      1.0000 0.68530  0.87950  0.32840  Biso   1.000  H
  H84      1.0000 0.31470  0.37950  0.17160  Biso   1.000  H
  C53      1.0000 0.31905  0.99369  0.60964  Biso   1.000  C
  C54      1.0000 0.68095  0.49369  0.89036  Biso   1.000  C
  C55      1.0000 0.68095  0.00631  0.39036  Biso   1.000  C
  C56      1.0000 0.31905  0.50631  0.10964  Biso   1.000  C
  H85      1.0000 0.37170  0.99120  0.62740  Biso   1.000  H
  H86      1.0000 0.62830  0.49120  0.87260  Biso   1.000  H
  H87      1.0000 0.62830  0.00880  0.37260  Biso   1.000  H
  H88      1.0000 0.37170  0.50880  0.12740  Biso   1.000  H
  C57      1.0000 0.12894  0.38772  0.53343  Biso   1.000  C
  C58      1.0000 0.87106  0.88772  0.96657  Biso   1.000  C
  C59      1.0000 0.87106  0.61228  0.46657  Biso   1.000  C
  C60      1.0000 0.12894  0.11228  0.03343  Biso   1.000  C
  H89      1.0000 0.13130  0.35790  0.48680  Biso   1.000  H
  H90      1.0000 0.86870  0.85790  0.01320  Biso   1.000  H
  H91      1.0000 0.86870  0.64210  0.51320  Biso   1.000  H
  H92      1.0000 0.13130  0.14210  0.98680  Biso   1.000  H
  H93      1.0000 0.13260  0.46470  0.53100  Biso   1.000  H
  H94      1.0000 0.86740  0.96470  0.96900  Biso   1.000  H
  H95      1.0000 0.86740  0.53530  0.46900  Biso   1.000  H
  H96      1.0000 0.13260  0.03530  0.03100  Biso   1.000  H
  C61      1.0000 0.05445  0.35807  0.53840  Biso   1.000  C
  C62      1.0000 0.94555  0.85807  0.96160  Biso   1.000  C
  C63      1.0000 0.94555  0.64193  0.46160  Biso   1.000  C
  C64      1.0000 0.05445  0.14193  0.03840  Biso   1.000  C
  H97      1.0000 0.04910  0.39370  0.58180  Biso   1.000  H
  H98      1.0000 0.95090  0.89370  0.91820  Biso   1.000  H
  H99      1.0000 0.95090  0.60630  0.41820  Biso   1.000  H
  H100     1.0000 0.04910  0.10630  0.08180  Biso   1.000  H
  H101     1.0000 0.01250  0.37930  0.49170  Biso   1.000  H
  H102     1.0000 0.98750  0.87930  0.00830  Biso   1.000  H
  H103     1.0000 0.98750  0.62070  0.50830  Biso   1.000  H
  H104     1.0000 0.01250  0.12070  0.99170  Biso   1.000  H
  C65      1.0000 0.99094  0.20120  0.56720  Biso   1.000  C
  C66      1.0000 0.00906  0.70120  0.93280  Biso   1.000  C
  C67      1.0000 0.00906  0.79880  0.43280  Biso   1.000  C
  C68      1.0000 0.99094  0.29880  0.06720  Biso   1.000  C
  H105     1.0000 0.97950  0.12800  0.54980  Biso   1.000  H
  H106     1.0000 0.02050  0.62800  0.95020  Biso   1.000  H
  H107     1.0000 0.02050  0.87200  0.45020  Biso   1.000  H
  H108     1.0000 0.97950  0.37200  0.04980  Biso   1.000  H
  H109     1.0000 0.94600  0.24410  0.54100  Biso   1.000  H
  H110     1.0000 0.05400  0.74410  0.95900  Biso   1.000  H
  H111     1.0000 0.05400  0.75590  0.45900  Biso   1.000  H
  H112     1.0000 0.94600  0.25590  0.04100  Biso   1.000  H
  C69      1.0000 0.01217  0.20690  0.65278  Biso   1.000  C
  C70      1.0000 0.98783  0.70690  0.84722  Biso   1.000  C
  C71      1.0000 0.98783  0.79310  0.34722  Biso   1.000  C
  C72      1.0000 0.01217  0.29310  0.15278  Biso   1.000  C
  H113     1.0000 0.01770  0.28070  0.66950  Biso   1.000  H
  H114     1.0000 0.98230  0.78070  0.83050  Biso   1.000  H
  H115     1.0000 0.98230  0.71930  0.33050  Biso   1.000  H
  H116     1.0000 0.01770  0.21930  0.16950  Biso   1.000  H
  H117     1.0000 0.97290  0.17420  0.66630  Biso   1.000  H
  H118     1.0000 0.02710  0.67420  0.83370  Biso   1.000  H
  H119     1.0000 0.02710  0.82580  0.33370  Biso   1.000  H
  H120     1.0000 0.97290  0.32580  0.16630  Biso   1.000  H
  C73      1.0000 0.12250  0.16870  0.77457  Biso   1.000  C
  C74      1.0000 0.87750  0.66870  0.72543  Biso   1.000  C
  C75      1.0000 0.87750  0.83130  0.22543  Biso   1.000  C
  C76      1.0000 0.12250  0.33130  0.27457  Biso   1.000  C
  H121     1.0000 0.15520  0.10900  0.79900  Biso   1.000  H
  H122     1.0000 0.84480  0.60900  0.70100  Biso   1.000  H
  H123     1.0000 0.84480  0.89100  0.20100  Biso   1.000  H
  H124     1.0000 0.15520  0.39100  0.29900  Biso   1.000  H
  H125     1.0000 0.08470  0.17550  0.79700  Biso   1.000  H
  H126     1.0000 0.91530  0.67550  0.70300  Biso   1.000  H
  H127     1.0000 0.91530  0.82450  0.20300  Biso   1.000  H
  H128     1.0000 0.08470  0.32450  0.29700  Biso   1.000  H
  C77      1.0000 0.16870  0.26970  0.78795  Biso   1.000  C
  C78      1.0000 0.83130  0.76970  0.71205  Biso   1.000  C
  C79      1.0000 0.83130  0.73030  0.21205  Biso   1.000  C
  C80      1.0000 0.16870  0.23030  0.28795  Biso   1.000  C
  H129     1.0000 0.13540  0.33080  0.76930  Biso   1.000  H
  H130     1.0000 0.86460  0.83080  0.73070  Biso   1.000  H
  H131     1.0000 0.86460  0.66920  0.23070  Biso   1.000  H
  H132     1.0000 0.13540  0.16920  0.26930  Biso   1.000  H
  H133     1.0000 0.19800  0.27930  0.84260  Biso   1.000  H
  H134     1.0000 0.80200  0.77930  0.65740  Biso   1.000  H
  H135     1.0000 0.80200  0.72070  0.15740  Biso   1.000  H
  H136     1.0000 0.19800  0.22070  0.34260  Biso   1.000  H
  C81      1.0000 0.25854  0.36178  0.74256  Biso   1.000  C
  C82      1.0000 0.74146  0.86178  0.75744  Biso   1.000  C
  C83      1.0000 0.74146  0.63822  0.25744  Biso   1.000  C
  C84      1.0000 0.25854  0.13822  0.24256  Biso   1.000  C
  H137     1.0000 0.30880  0.34640  0.74380  Biso   1.000  H
  H138     1.0000 0.69120  0.84640  0.75620  Biso   1.000  H
  H139     1.0000 0.69120  0.65360  0.25620  Biso   1.000  H
  H140     1.0000 0.30880  0.15360  0.24380  Biso   1.000  H
  H141     1.0000 0.26410  0.40600  0.78670  Biso   1.000  H
  H142     1.0000 0.73590  0.90600  0.71330  Biso   1.000  H
  H143     1.0000 0.73590  0.59400  0.21330  Biso   1.000  H
  H144     1.0000 0.26410  0.09400  0.28670  Biso   1.000  H
  C85      1.0000 0.21273  0.42066  0.66904  Biso   1.000  C
  C86      1.0000 0.78727  0.92066  0.83096  Biso   1.000  C
  C87      1.0000 0.78727  0.57934  0.33096  Biso   1.000  C
  C88      1.0000 0.21273  0.07934  0.16904  Biso   1.000  C
  H145     1.0000 0.16650  0.44820  0.67210  Biso   1.000  H
  H146     1.0000 0.83350  0.94820  0.82790  Biso   1.000  H
  H147     1.0000 0.83350  0.55180  0.32790  Biso   1.000  H
  H148     1.0000 0.16650  0.05180  0.17210  Biso   1.000  H
  H149     1.0000 0.24180  0.48050  0.66230  Biso   1.000  H
  H150     1.0000 0.75820  0.98050  0.83770  Biso   1.000  H
  H151     1.0000 0.75820  0.51950  0.33770  Biso   1.000  H
  H152     1.0000 0.24180  0.01950  0.16230  Biso   1.000  H
  C89      1.0000 0.26026  0.32190  0.58209  Biso   1.000  C
  C90      1.0000 0.73974  0.82190  0.91791  Biso   1.000  C
  C91      1.0000 0.73974  0.67810  0.41791  Biso   1.000  C
  C92      1.0000 0.26026  0.17810  0.08209  Biso   1.000  C
  H153     1.0000 0.24730  0.26260  0.54620  Biso   1.000  H
  H154     1.0000 0.75270  0.76260  0.95380  Biso   1.000  H
  H155     1.0000 0.75270  0.73740  0.45380  Biso   1.000  H
  H156     1.0000 0.24730  0.23740  0.04620  Biso   1.000  H
  H157     1.0000 0.30180  0.29900  0.62860  Biso   1.000  H
  H158     1.0000 0.69820  0.79900  0.87140  Biso   1.000  H
  H159     1.0000 0.69820  0.70100  0.37140  Biso   1.000  H
  H160     1.0000 0.30180  0.20100  0.12860  Biso   1.000  H
  C93      1.0000 0.28747  0.41325  0.54711  Biso   1.000  C
  C94      1.0000 0.71253  0.91325  0.95289  Biso   1.000  C
  C95      1.0000 0.71253  0.58675  0.45289  Biso   1.000  C
  C96      1.0000 0.28747  0.08675  0.04711  Biso   1.000  C
  C97      1.0000 0.34224  0.48466  0.59136  Biso   1.000  C
  C98      1.0000 0.65776  0.98466  0.90864  Biso   1.000  C
  C99      1.0000 0.65776  0.51534  0.40864  Biso   1.000  C
  C100     1.0000 0.34224  0.01534  0.09136  Biso   1.000  C
  H161     1.0000 0.36410  0.47700  0.64460  Biso   1.000  H
  H162     1.0000 0.63590  0.97700  0.85540  Biso   1.000  H
  H163     1.0000 0.63590  0.52300  0.35540  Biso   1.000  H
  H164     1.0000 0.36410  0.02300  0.14460  Biso   1.000  H
  C101     1.0000 0.36419  0.56709  0.55604  Biso   1.000  C
  C102     1.0000 0.63581  0.06709  0.94396  Biso   1.000  C
  C103     1.0000 0.63581  0.43291  0.44396  Biso   1.000  C
  C104     1.0000 0.36419  0.93291  0.05604  Biso   1.000  C
  H165     1.0000 0.40140  0.61380  0.58670  Biso   1.000  H
  H166     1.0000 0.59860  0.11380  0.91330  Biso   1.000  H
  H167     1.0000 0.59860  0.38620  0.41330  Biso   1.000  H
  H168     1.0000 0.40140  0.88620  0.08670  Biso   1.000  H
  C105     1.0000 0.28257  0.51314  0.43724  Biso   1.000  C
  C106     1.0000 0.71743  0.01314  0.06276  Biso   1.000  C
  C107     1.0000 0.71743  0.48686  0.56276  Biso   1.000  C
  C108     1.0000 0.28257  0.98686  0.93724  Biso   1.000  C
  H169     1.0000 0.26140  0.52270  0.38410  Biso   1.000  H
  H170     1.0000 0.73860  0.02270  0.11590  Biso   1.000  H
  H171     1.0000 0.73860  0.47730  0.61590  Biso   1.000  H
  H172     1.0000 0.26140  0.97730  0.88410  Biso   1.000  H
  C109     1.0000 0.25877  0.42756  0.46790  Biso   1.000  C
  C110     1.0000 0.74123  0.92756  0.03210  Biso   1.000  C
  C111     1.0000 0.74123  0.57244  0.53210  Biso   1.000  C
  C112     1.0000 0.25877  0.07244  0.96790  Biso   1.000  C
  H173     1.0000 0.22360  0.37960  0.43570  Biso   1.000  H
  H174     1.0000 0.77640  0.87960  0.06430  Biso   1.000  H
  H175     1.0000 0.77640  0.62040  0.56430  Biso   1.000  H
  H176     1.0000 0.22360  0.12040  0.93570  Biso   1.000  H
  N1       1.0000 0.32619  0.85017  0.45797  Biso   1.000  N
  N2       1.0000 0.67381  0.35017  0.04203  Biso   1.000  N
  N3       1.0000 0.67381  0.14983  0.54203  Biso   1.000  N
  N4       1.0000 0.32619  0.64983  0.95797  Biso   1.000  N
  N5       1.0000 0.46675  0.75828  0.48379  Biso   1.000  N
  N6       1.0000 0.53325  0.25828  0.01621  Biso   1.000  N
  N7       1.0000 0.53325  0.24172  0.51621  Biso   1.000  N
  N8       1.0000 0.46675  0.74172  0.98379  Biso   1.000  N
  H177     1.0000 0.48890  0.70860  0.52100  Biso   1.000  H
  H178     1.0000 0.51110  0.20860  0.97900  Biso   1.000  H
  H179     1.0000 0.51110  0.29140  0.47900  Biso   1.000  H
  H180     1.0000 0.48890  0.79140  0.02100  Biso   1.000  H
  N9       1.0000 0.40487  0.63785  0.35188  Biso   1.000  N
  N10      1.0000 0.59513  0.13785  0.14812  Biso   1.000  N
  N11      1.0000 0.59513  0.36215  0.64812  Biso   1.000  N
  N12      1.0000 0.40487  0.86215  0.85188  Biso   1.000  N
  H181     1.0000 0.39410  0.56690  0.34960  Biso   1.000  H
  H182     1.0000 0.60590  0.06690  0.15040  Biso   1.000  H
  H183     1.0000 0.60590  0.43310  0.65040  Biso   1.000  H
  H184     1.0000 0.39410  0.93310  0.84960  Biso   1.000  H
  N13      1.0000 0.26698  0.73471  0.32048  Biso   1.000  N
  N14      1.0000 0.73302  0.23471  0.17952  Biso   1.000  N
  N15      1.0000 0.73302  0.26529  0.67952  Biso   1.000  N
  N16      1.0000 0.26698  0.76529  0.82048  Biso   1.000  N
  H185     1.0000 0.22540  0.70450  0.32460  Biso   1.000  H
  H186     1.0000 0.77460  0.20450  0.17540  Biso   1.000  H
  H187     1.0000 0.77460  0.29550  0.67540  Biso   1.000  H
  H188     1.0000 0.22540  0.79550  0.82460  Biso   1.000  H
  N17      1.0000 0.20846  0.08040  0.61263  Biso   1.000  N
  N18      1.0000 0.79154  0.58040  0.88737  Biso   1.000  N
  N19      1.0000 0.79154  0.91960  0.38737  Biso   1.000  N
  N20      1.0000 0.20846  0.41960  0.11263  Biso   1.000  N
  N21      1.0000 0.19344  0.34634  0.60194  Biso   1.000  N
  N22      1.0000 0.80656  0.84634  0.89806  Biso   1.000  N
  N23      1.0000 0.80656  0.65366  0.39806  Biso   1.000  N
  N24      1.0000 0.19344  0.15366  0.10194  Biso   1.000  N
  N25      1.0000 0.05447  0.24102  0.54831  Biso   1.000  N
  N26      1.0000 0.94553  0.74102  0.95169  Biso   1.000  N
  N27      1.0000 0.94553  0.75898  0.45169  Biso   1.000  N
  N28      1.0000 0.05447  0.25898  0.04831  Biso   1.000  N
  H189     1.0000 0.05520  0.20740  0.50570  Biso   1.000  H
  H190     1.0000 0.94480  0.70740  0.99430  Biso   1.000  H
  H191     1.0000 0.94480  0.79260  0.49430  Biso   1.000  H
  H192     1.0000 0.05520  0.29260  0.00570  Biso   1.000  H
  N29      1.0000 0.08475  0.14940  0.69060  Biso   1.000  N
  N30      1.0000 0.91525  0.64940  0.80940  Biso   1.000  N
  N31      1.0000 0.91525  0.85060  0.30940  Biso   1.000  N
  N32      1.0000 0.08475  0.35060  0.19060  Biso   1.000  N
  H193     1.0000 0.07830  0.07820  0.68060  Biso   1.000  H
  H194     1.0000 0.92170  0.57820  0.81940  Biso   1.000  H
  H195     1.0000 0.92170  0.92180  0.31940  Biso   1.000  H
  H196     1.0000 0.07830  0.42180  0.18060  Biso   1.000  H
  N33      1.0000 0.21981  0.26110  0.74638  Biso   1.000  N
  N34      1.0000 0.78019  0.76110  0.75362  Biso   1.000  N
  N35      1.0000 0.78019  0.73890  0.25362  Biso   1.000  N
  N36      1.0000 0.21981  0.23890  0.24638  Biso   1.000  N
  H197     1.0000 0.25510  0.20970  0.76880  Biso   1.000  H
  H198     1.0000 0.74490  0.70970  0.73120  Biso   1.000  H
  H199     1.0000 0.74490  0.79030  0.23120  Biso   1.000  H
  H200     1.0000 0.25510  0.29030  0.26880  Biso   1.000  H
  N37      1.0000 0.33450  0.58322  0.47973  Biso   1.000  N
  N38      1.0000 0.66550  0.08322  0.02027  Biso   1.000  N
  N39      1.0000 0.66550  0.41678  0.52027  Biso   1.000  N
  N40      1.0000 0.33450  0.91678  0.97973  Biso   1.000  N
  N41      1.0000 0.94543  0.58720  0.11314  Biso   1.000  N
  N42      1.0000 0.05457  0.08720  0.38686  Biso   1.000  N
  N43      1.0000 0.05457  0.41280  0.88686  Biso   1.000  N
  N44      1.0000 0.94543  0.91280  0.61314  Biso   1.000  N
  N45      1.0000 0.11776  0.61158  0.36521  Biso   1.000  N
  N46      1.0000 0.88224  0.11158  0.13479  Biso   1.000  N
  N47      1.0000 0.88224  0.38842  0.63479  Biso   1.000  N
  N48      1.0000 0.11776  0.88842  0.86521  Biso   1.000  N
  N49      1.0000 0.37977  0.36196  0.37343  Biso   1.000  N
  N50      1.0000 0.62023  0.86196  0.12657  Biso   1.000  N
  N51      1.0000 0.62023  0.63804  0.62657  Biso   1.000  N
  N52      1.0000 0.37977  0.13804  0.87343  Biso   1.000  N
  N53      1.0000 0.47454  0.27861  0.26441  Biso   1.000  N
  N54      1.0000 0.52546  0.77861  0.23559  Biso   1.000  N
  N55      1.0000 0.52546  0.72139  0.73559  Biso   1.000  N
  N56      1.0000 0.47454  0.22139  0.76441  Biso   1.000  N
  O1       1.0000 0.94710  0.46010  0.29435  Biso   1.000  O
  O2       1.0000 0.05290  0.96010  0.20565  Biso   1.000  O
  O3       1.0000 0.05290  0.53990  0.70565  Biso   1.000  O
  O4       1.0000 0.94710  0.03990  0.79435  Biso   1.000  O
  O5       1.0000 0.19402  0.65580  0.57425  Biso   1.000  O
  O6       1.0000 0.80598  0.15580  0.92575  Biso   1.000  O
  O7       1.0000 0.80598  0.34420  0.42575  Biso   1.000  O
  O8       1.0000 0.19402  0.84420  0.07425  Biso   1.000  O
  O9       1.0000 0.56865  0.49440  0.19429  Biso   1.000  O
  O10      1.0000 0.43135  0.99440  0.30571  Biso   1.000  O
  O11      1.0000 0.43135  0.50560  0.80571  Biso   1.000  O
  O12      1.0000 0.56865  0.00560  0.69429  Biso   1.000  O
  O13      1.0000 0.09163  0.78010  0.13872  Biso   1.000  O
  O14      1.0000 0.90837  0.28010  0.36128  Biso   1.000  O
  O15      1.0000 0.90837  0.21990  0.86128  Biso   1.000  O
  O16      1.0000 0.09163  0.71990  0.63872  Biso   1.000  O
  O17      1.0000 0.91190  0.67296  0.09117  Biso   1.000  O
  O18      1.0000 0.08810  0.17296  0.40883  Biso   1.000  O
  O19      1.0000 0.08810  0.32704  0.90883  Biso   1.000  O
  O20      1.0000 0.91190  0.82704  0.59117  Biso   1.000  O
  O21      1.0000 0.91722  0.51738  0.14089  Biso   1.000  O
  O22      1.0000 0.08278  0.01738  0.35911  Biso   1.000  O
  O23      1.0000 0.08278  0.48262  0.85911  Biso   1.000  O
  O24      1.0000 0.91722  0.98262  0.64089  Biso   1.000  O
  O25      1.0000 0.00602  0.56977  0.10405  Biso   1.000  O
  O26      1.0000 0.99398  0.06977  0.39595  Biso   1.000  O
  O27      1.0000 0.99398  0.43023  0.89595  Biso   1.000  O
  O28      1.0000 0.00602  0.93023  0.60405  Biso   1.000  O
  O29      1.0000 0.11645  0.59564  0.29966  Biso   1.000  O
  O30      1.0000 0.88355  0.09564  0.20034  Biso   1.000  O
  O31      1.0000 0.88355  0.40436  0.70034  Biso   1.000  O
  O32      1.0000 0.11645  0.90436  0.79966  Biso   1.000  O
  O33      1.0000 0.08034  0.55487  0.39200  Biso   1.000  O
  O34      1.0000 0.91966  0.05487  0.10800  Biso   1.000  O
  O35      1.0000 0.91966  0.44513  0.60800  Biso   1.000  O
  O36      1.0000 0.08034  0.94513  0.89200  Biso   1.000  O
  O37      1.0000 0.15740  0.68524  0.40567  Biso   1.000  O
  O38      1.0000 0.84260  0.18524  0.09433  Biso   1.000  O
  O39      1.0000 0.84260  0.31476  0.59433  Biso   1.000  O
  O40      1.0000 0.15740  0.81476  0.90567  Biso   1.000  O
  O41      1.0000 0.33193  0.40893  0.31636  Biso   1.000  O
  O42      1.0000 0.66807  0.90893  0.18364  Biso   1.000  O
  O43      1.0000 0.66807  0.59107  0.68364  Biso   1.000  O
  O44      1.0000 0.33193  0.09107  0.81636  Biso   1.000  O
  O45      1.0000 0.36646  0.27138  0.39178  Biso   1.000  O
  O46      1.0000 0.63354  0.77138  0.10822  Biso   1.000  O
  O47      1.0000 0.63354  0.72862  0.60822  Biso   1.000  O
  O48      1.0000 0.36646  0.22862  0.89178  Biso   1.000  O
  O49      1.0000 0.44063  0.40777  0.41196  Biso   1.000  O
  O50      1.0000 0.55937  0.90777  0.08804  Biso   1.000  O
  O51      1.0000 0.55937  0.59223  0.58804  Biso   1.000  O
  O52      1.0000 0.44063  0.09223  0.91196  Biso   1.000  O
  O53      1.0000 0.46323  0.36170  0.22531  Biso   1.000  O
  O54      1.0000 0.53677  0.86170  0.27469  Biso   1.000  O
  O55      1.0000 0.53677  0.63830  0.77469  Biso   1.000  O
  O56      1.0000 0.46323  0.13830  0.72531  Biso   1.000  O
  O57      1.0000 0.42179  0.21050  0.24402  Biso   1.000  O
  O58      1.0000 0.57821  0.71050  0.25598  Biso   1.000  O
  O59      1.0000 0.57821  0.78950  0.75598  Biso   1.000  O
  O60      1.0000 0.42179  0.28950  0.74402  Biso   1.000  O
  O61      1.0000 0.53312  0.26210  0.31798  Biso   1.000  O
  O62      1.0000 0.46688  0.76210  0.18202  Biso   1.000  O
  O63      1.0000 0.46688  0.73790  0.68202  Biso   1.000  O
  O64      1.0000 0.53312  0.23790  0.81798  Biso   1.000  O
  Cu1      1.0000 0.36002  0.71253  0.41945  Biso   1.000  Cu
  Cu2      1.0000 0.63998  0.21253  0.08055  Biso   1.000  Cu
  Cu3      1.0000 0.63998  0.28747  0.58055  Biso   1.000  Cu
  Cu4      1.0000 0.36002  0.78747  0.91945  Biso   1.000  Cu
  Cu5      1.0000 0.15261  0.21429  0.63987  Biso   1.000  Cu
  Cu6      1.0000 0.84739  0.71429  0.86013  Biso   1.000  Cu
  Cu7      1.0000 0.84739  0.78571  0.36013  Biso   1.000  Cu
  Cu8      1.0000 0.15261  0.28571  0.13987  Biso   1.000  Cu
  H201     1.0000 0.94200  0.47500  0.25800  Biso   1.000  H
  H202     1.0000 0.05800  0.97500  0.24200  Biso   1.000  H
  H203     1.0000 0.05800  0.52500  0.74200  Biso   1.000  H
  H204     1.0000 0.94200  0.02500  0.75800  Biso   1.000  H
  H205     1.0000 0.99200  0.47200  0.32300  Biso   1.000  H
  H206     1.0000 0.00800  0.97200  0.17700  Biso   1.000  H
  H207     1.0000 0.00800  0.52800  0.67700  Biso   1.000  H
  H208     1.0000 0.99200  0.02800  0.82300  Biso   1.000  H
  H209     1.0000 0.17210  0.65400  0.52500  Biso   1.000  H
  H210     1.0000 0.82790  0.15400  0.97500  Biso   1.000  H
  H211     1.0000 0.82790  0.34600  0.47500  Biso   1.000  H
  H212     1.0000 0.17210  0.84600  0.02500  Biso   1.000  H
  H213     1.0000 0.16240  0.66800  0.58870  Biso   1.000  H
  H214     1.0000 0.83760  0.16800  0.91130  Biso   1.000  H
  H215     1.0000 0.83760  0.33200  0.41130  Biso   1.000  H
  H216     1.0000 0.16240  0.83200  0.08870  Biso   1.000  H
  H217     1.0000 0.53200  0.46800  0.20000  Biso   1.000  H
  H218     1.0000 0.46800  0.96800  0.30000  Biso   1.000  H
  H219     1.0000 0.46800  0.53200  0.80000  Biso   1.000  H
  H220     1.0000 0.53200  0.03200  0.70000  Biso   1.000  H
  H221     1.0000 0.55900  0.55600  0.20000  Biso   1.000  H
  H222     1.0000 0.44100  0.05600  0.30000  Biso   1.000  H
  H223     1.0000 0.44100  0.44400  0.80000  Biso   1.000  H
  H224     1.0000 0.55900  0.94400  0.70000  Biso   1.000  H
  H225     1.0000 0.06400  0.72800  0.13600  Biso   1.000  H
  H226     1.0000 0.93600  0.22800  0.36400  Biso   1.000  H
  H227     1.0000 0.93600  0.27200  0.86400  Biso   1.000  H
  H228     1.0000 0.06400  0.77200  0.63600  Biso   1.000  H
  H229     1.0000 0.07900  0.82000  0.16100  Biso   1.000  H
  H230     1.0000 0.92100  0.32000  0.33900  Biso   1.000  H
  H231     1.0000 0.92100  0.18000  0.83900  Biso   1.000  H
  H232     1.0000 0.07900  0.68000  0.66100  Biso   1.000  H
  O65      1.0000 0.51570  0.36310  0.27790  Biso   1.000  O
  O66      1.0000 0.48430  0.86310  0.22210  Biso   1.000  O
  O67      1.0000 0.48430  0.63690  0.72210  Biso   1.000  O
  O68      1.0000 0.51570  0.13690  0.77790  Biso   1.000  O
  O69      1.0000 0.41860  0.26350  0.21140  Biso   1.000  O
  O70      1.0000 0.58140  0.76350  0.28860  Biso   1.000  O
  O71      1.0000 0.58140  0.73650  0.78860  Biso   1.000  O
  O72      1.0000 0.41860  0.23650  0.71140  Biso   1.000  O
  O73      1.0000 0.51160  0.20320  0.31470  Biso   1.000  O
  O74      1.0000 0.48840  0.70320  0.18530  Biso   1.000  O
  O75      1.0000 0.48840  0.79680  0.68530  Biso   1.000  O
  O76      1.0000 0.51160  0.29680  0.81470  Biso   1.000  O
