data_image0
_cell_length_a       15.0248
_cell_length_b       19.0019
_cell_length_c       13.4159
_cell_angle_alpha    90
_cell_angle_beta     100.556
_cell_angle_gamma    90

_symmetry_space_group_name_H-M    "P 1"
_symmetry_int_tables_number       1

loop_
  _symmetry_equiv_pos_as_xyz
  'x, y, z'

loop_
  _atom_site_label
  _atom_site_occupancy
  _atom_site_fract_x
  _atom_site_fract_y
  _atom_site_fract_z
  _atom_site_thermal_displace_type
  _atom_site_B_iso_or_equiv
  _atom_site_type_symbol
  Cu1      1.0000 0.23701  0.27635  0.99671  Biso   1.000  Cu
  Cu2      1.0000 0.23701  0.22365  0.49671  Biso   1.000  Cu
  Cu3      1.0000 0.76299  0.72365  0.00329  Biso   1.000  Cu
  Cu4      1.0000 0.76299  0.77635  0.50329  Biso   1.000  Cu
  Fe1      1.0000 0.99705  0.30638  0.68190  Biso   1.000  Fe
  Fe2      1.0000 0.99705  0.19362  0.18190  Biso   1.000  Fe
  Fe3      1.0000 0.00295  0.69362  0.31810  Biso   1.000  Fe
  Fe4      1.0000 0.00295  0.80638  0.81810  Biso   1.000  Fe
  Fe5      1.0000 0.45339  0.15413  0.26944  Biso   1.000  Fe
  Fe6      1.0000 0.45339  0.34587  0.76944  Biso   1.000  Fe
  Fe7      1.0000 0.54661  0.84587  0.73056  Biso   1.000  Fe
  Fe8      1.0000 0.54661  0.65413  0.23056  Biso   1.000  Fe
  O1       1.0000 0.22308  0.38581  0.05390  Biso   1.000  O
  O2       1.0000 0.22308  0.11419  0.55390  Biso   1.000  O
  O3       1.0000 0.77692  0.61419  0.94610  Biso   1.000  O
  O4       1.0000 0.77692  0.88581  0.44610  Biso   1.000  O
  N1       1.0000 0.04960  0.46227  0.68830  Biso   1.000  N
  N2       1.0000 0.04960  0.03773  0.18830  Biso   1.000  N
  N3       1.0000 0.95040  0.53773  0.31170  Biso   1.000  N
  N4       1.0000 0.95040  0.96227  0.81170  Biso   1.000  N
  N5       1.0000 0.13850  0.28666  0.87650  Biso   1.000  N
  N6       1.0000 0.13850  0.21334  0.37650  Biso   1.000  N
  N7       1.0000 0.86150  0.71334  0.12350  Biso   1.000  N
  N8       1.0000 0.86150  0.78666  0.62350  Biso   1.000  N
  N9       1.0000 0.33208  0.24080  0.10590  Biso   1.000  N
  N10      1.0000 0.33208  0.25920  0.60590  Biso   1.000  N
  N11      1.0000 0.66792  0.75920  0.89410  Biso   1.000  N
  N12      1.0000 0.66792  0.74080  0.39410  Biso   1.000  N
  N13      1.0000 0.14929  0.26468  0.57090  Biso   1.000  N
  N14      1.0000 0.14929  0.23532  0.07090  Biso   1.000  N
  N15      1.0000 0.85071  0.73532  0.42910  Biso   1.000  N
  N16      1.0000 0.85071  0.76468  0.92910  Biso   1.000  N
  N17      1.0000 0.32812  0.19840  0.41500  Biso   1.000  N
  N18      1.0000 0.32812  0.30160  0.91500  Biso   1.000  N
  N19      1.0000 0.67188  0.80160  0.58500  Biso   1.000  N
  N20      1.0000 0.67188  0.69840  0.08500  Biso   1.000  N
  N21      1.0000 0.57310  0.28508  0.32000  Biso   1.000  N
  N22      1.0000 0.57310  0.21492  0.82000  Biso   1.000  N
  N23      1.0000 0.42690  0.71492  0.68000  Biso   1.000  N
  N24      1.0000 0.42690  0.78508  0.18000  Biso   1.000  N
  N25      1.0000 0.83174  0.30037  0.53060  Biso   1.000  N
  N26      1.0000 0.83174  0.19963  0.03060  Biso   1.000  N
  N27      1.0000 0.16826  0.69963  0.46940  Biso   1.000  N
  N28      1.0000 0.16826  0.80037  0.96940  Biso   1.000  N
  N29      1.0000 0.91991  0.32315  0.54900  Biso   1.000  N
  N30      1.0000 0.91991  0.17685  0.04900  Biso   1.000  N
  N31      1.0000 0.08009  0.67685  0.45100  Biso   1.000  N
  N32      1.0000 0.08009  0.82315  0.95100  Biso   1.000  N
  N33      1.0000 0.86479  0.19537  0.63680  Biso   1.000  N
  N34      1.0000 0.86479  0.30463  0.13680  Biso   1.000  N
  N35      1.0000 0.13521  0.80463  0.36320  Biso   1.000  N
  N36      1.0000 0.13521  0.69537  0.86320  Biso   1.000  N
  N37      1.0000 0.95491  0.20847  0.67070  Biso   1.000  N
  N38      1.0000 0.95491  0.29153  0.17070  Biso   1.000  N
  N39      1.0000 0.04509  0.79153  0.32930  Biso   1.000  N
  N40      1.0000 0.04509  0.70847  0.82930  Biso   1.000  N
  N41      1.0000 0.81132  0.30428  0.70990  Biso   1.000  N
  N42      1.0000 0.81132  0.19572  0.20990  Biso   1.000  N
  N43      1.0000 0.18868  0.69572  0.29010  Biso   1.000  N
  N44      1.0000 0.18868  0.80428  0.79010  Biso   1.000  N
  N45      1.0000 0.89539  0.32940  0.74900  Biso   1.000  N
  N46      1.0000 0.89539  0.17060  0.24900  Biso   1.000  N
  N47      1.0000 0.10461  0.67060  0.25100  Biso   1.000  N
  N48      1.0000 0.10461  0.82940  0.75100  Biso   1.000  N
  N49      1.0000 0.54917  0.05236  0.16860  Biso   1.000  N
  N50      1.0000 0.54917  0.44764  0.66860  Biso   1.000  N
  N51      1.0000 0.45083  0.94764  0.83140  Biso   1.000  N
  N52      1.0000 0.45083  0.55236  0.33140  Biso   1.000  N
  N53      1.0000 0.52282  0.12094  0.16760  Biso   1.000  N
  N54      1.0000 0.52282  0.37906  0.66760  Biso   1.000  N
  N55      1.0000 0.47718  0.87906  0.83240  Biso   1.000  N
  N56      1.0000 0.47718  0.62094  0.33240  Biso   1.000  N
  N57      1.0000 0.41552  0.00666  0.23050  Biso   1.000  N
  N58      1.0000 0.41552  0.49334  0.73050  Biso   1.000  N
  N59      1.0000 0.58448  0.99334  0.76950  Biso   1.000  N
  N60      1.0000 0.58448  0.50666  0.26950  Biso   1.000  N
  N61      1.0000 0.37661  0.07044  0.23840  Biso   1.000  N
  N62      1.0000 0.37661  0.42956  0.73840  Biso   1.000  N
  N63      1.0000 0.62339  0.92956  0.76160  Biso   1.000  N
  N64      1.0000 0.62339  0.57044  0.26160  Biso   1.000  N
  N65      1.0000 0.55599  0.03139  0.35280  Biso   1.000  N
  N66      1.0000 0.55599  0.46861  0.85280  Biso   1.000  N
  N67      1.0000 0.44401  0.96861  0.64720  Biso   1.000  N
  N68      1.0000 0.44401  0.53139  0.14720  Biso   1.000  N
  N69      1.0000 0.53307  0.09817  0.37470  Biso   1.000  N
  N70      1.0000 0.53307  0.40183  0.87470  Biso   1.000  N
  N71      1.0000 0.46693  0.90183  0.62530  Biso   1.000  N
  N72      1.0000 0.46693  0.59817  0.12530  Biso   1.000  N
  C1       1.0000 0.03330  0.40340  0.68710  Biso   1.000  C
  C2       1.0000 0.03330  0.09660  0.18710  Biso   1.000  C
  C3       1.0000 0.96670  0.59660  0.31290  Biso   1.000  C
  C4       1.0000 0.96670  0.90340  0.81290  Biso   1.000  C
  C5       1.0000 0.08270  0.29265  0.80670  Biso   1.000  C
  C6       1.0000 0.08270  0.20735  0.30670  Biso   1.000  C
  C7       1.0000 0.91730  0.70735  0.19330  Biso   1.000  C
  C8       1.0000 0.91730  0.79265  0.69330  Biso   1.000  C
  C9       1.0000 0.37760  0.20923  0.16810  Biso   1.000  C
  C10      1.0000 0.37760  0.29077  0.66810  Biso   1.000  C
  C11      1.0000 0.62240  0.79077  0.83190  Biso   1.000  C
  C12      1.0000 0.62240  0.70923  0.33190  Biso   1.000  C
  C13      1.0000 0.09470  0.28226  0.61490  Biso   1.000  C
  C14      1.0000 0.09470  0.21774  0.11490  Biso   1.000  C
  C15      1.0000 0.90530  0.71774  0.38510  Biso   1.000  C
  C16      1.0000 0.90530  0.78226  0.88510  Biso   1.000  C
  C17      1.0000 0.37770  0.18387  0.36270  Biso   1.000  C
  C18      1.0000 0.37770  0.31613  0.86270  Biso   1.000  C
  C19      1.0000 0.62230  0.81613  0.63730  Biso   1.000  C
  C20      1.0000 0.62230  0.68387  0.13730  Biso   1.000  C
  C21      1.0000 0.52840  0.23669  0.30170  Biso   1.000  C
  C22      1.0000 0.52840  0.26331  0.80170  Biso   1.000  C
  C23      1.0000 0.47160  0.76331  0.69830  Biso   1.000  C
  C24      1.0000 0.47160  0.73669  0.19830  Biso   1.000  C
  C25      1.0000 0.16450  0.43620  0.99810  Biso   1.000  C
  C26      1.0000 0.16450  0.06380  0.49810  Biso   1.000  C
  C27      1.0000 0.83550  0.56380  0.00190  Biso   1.000  C
  C28      1.0000 0.83550  0.93620  0.50190  Biso   1.000  C
  H1       1.0000 0.16830  0.48000  0.03580  Biso   1.000  H
  H2       1.0000 0.16830  0.02000  0.53580  Biso   1.000  H
  H3       1.0000 0.83170  0.52000  0.96420  Biso   1.000  H
  H4       1.0000 0.83170  0.98000  0.46420  Biso   1.000  H
  H5       1.0000 0.10280  0.41880  0.98720  Biso   1.000  H
  H6       1.0000 0.10280  0.08120  0.48720  Biso   1.000  H
  H7       1.0000 0.89720  0.58120  0.01280  Biso   1.000  H
  H8       1.0000 0.89720  0.91880  0.51280  Biso   1.000  H
  H9       1.0000 0.18240  0.44430  0.93310  Biso   1.000  H
  H10      1.0000 0.18240  0.05570  0.43310  Biso   1.000  H
  H11      1.0000 0.81760  0.55570  0.06690  Biso   1.000  H
  H12      1.0000 0.81760  0.94430  0.56690  Biso   1.000  H
  C29      1.0000 0.79610  0.31100  0.43260  Biso   1.000  C
  C30      1.0000 0.79610  0.18900  0.93260  Biso   1.000  C
  C31      1.0000 0.20390  0.68900  0.56740  Biso   1.000  C
  C32      1.0000 0.20390  0.81100  0.06740  Biso   1.000  C
  H13      1.0000 0.73680  0.29950  0.40090  Biso   1.000  H
  H14      1.0000 0.73680  0.20050  0.90090  Biso   1.000  H
  H15      1.0000 0.26320  0.70050  0.59910  Biso   1.000  H
  H16      1.0000 0.26320  0.79950  0.09910  Biso   1.000  H
  C33      1.0000 0.86100  0.34150  0.38610  Biso   1.000  C
  C34      1.0000 0.86100  0.15850  0.88610  Biso   1.000  C
  C35      1.0000 0.13900  0.65850  0.61390  Biso   1.000  C
  C36      1.0000 0.13900  0.84150  0.11390  Biso   1.000  C
  H17      1.0000 0.85500  0.35510  0.31790  Biso   1.000  H
  H18      1.0000 0.85500  0.14490  0.81790  Biso   1.000  H
  H19      1.0000 0.14500  0.64490  0.68210  Biso   1.000  H
  H20      1.0000 0.14500  0.85510  0.18210  Biso   1.000  H
  C37      1.0000 0.93670  0.34789  0.46130  Biso   1.000  C
  C38      1.0000 0.93670  0.15211  0.96130  Biso   1.000  C
  C39      1.0000 0.06330  0.65211  0.53870  Biso   1.000  C
  C40      1.0000 0.06330  0.84789  0.03870  Biso   1.000  C
  H21      1.0000 0.99230  0.36700  0.45200  Biso   1.000  H
  H22      1.0000 0.99230  0.13300  0.95200  Biso   1.000  H
  H23      1.0000 0.00770  0.63300  0.54800  Biso   1.000  H
  H24      1.0000 0.00770  0.86700  0.04800  Biso   1.000  H
  C41      1.0000 0.85350  0.12650  0.62270  Biso   1.000  C
  C42      1.0000 0.85350  0.37350  0.12270  Biso   1.000  C
  C43      1.0000 0.14650  0.87350  0.37730  Biso   1.000  C
  C44      1.0000 0.14650  0.62650  0.87730  Biso   1.000  C
  H25      1.0000 0.79780  0.10410  0.59910  Biso   1.000  H
  H26      1.0000 0.79780  0.39590  0.09910  Biso   1.000  H
  H27      1.0000 0.20220  0.89590  0.40090  Biso   1.000  H
  H28      1.0000 0.20220  0.60410  0.90090  Biso   1.000  H
  C45      1.0000 0.93510  0.09290  0.64770  Biso   1.000  C
  C46      1.0000 0.93510  0.40710  0.14770  Biso   1.000  C
  C47      1.0000 0.06490  0.90710  0.35230  Biso   1.000  C
  C48      1.0000 0.06490  0.59290  0.85230  Biso   1.000  C
  H29      1.0000 0.94650  0.04440  0.64500  Biso   1.000  H
  H30      1.0000 0.94650  0.45560  0.14500  Biso   1.000  H
  H31      1.0000 0.05350  0.95560  0.35500  Biso   1.000  H
  H32      1.0000 0.05350  0.54440  0.85500  Biso   1.000  H
  C49      1.0000 0.99730  0.14632  0.67810  Biso   1.000  C
  C50      1.0000 0.99730  0.35368  0.17810  Biso   1.000  C
  C51      1.0000 0.00270  0.85368  0.32190  Biso   1.000  C
  C52      1.0000 0.00270  0.64632  0.82190  Biso   1.000  C
  H33      1.0000 0.05980  0.13970  0.70050  Biso   1.000  H
  H34      1.0000 0.05980  0.36030  0.20050  Biso   1.000  H
  H35      1.0000 0.94020  0.86030  0.29950  Biso   1.000  H
  H36      1.0000 0.94020  0.63970  0.79950  Biso   1.000  H
  C53      1.0000 0.75180  0.32890  0.76510  Biso   1.000  C
  C54      1.0000 0.75180  0.17110  0.26510  Biso   1.000  C
  C55      1.0000 0.24820  0.67110  0.23490  Biso   1.000  C
  C56      1.0000 0.24820  0.82890  0.73490  Biso   1.000  C
  H37      1.0000 0.68930  0.31960  0.75270  Biso   1.000  H
  H38      1.0000 0.68930  0.18040  0.25270  Biso   1.000  H
  H39      1.0000 0.31070  0.68040  0.24730  Biso   1.000  H
  H40      1.0000 0.31070  0.81960  0.74730  Biso   1.000  H
  C57      1.0000 0.79660  0.36950  0.84150  Biso   1.000  C
  C58      1.0000 0.79660  0.13050  0.34150  Biso   1.000  C
  C59      1.0000 0.20340  0.63050  0.15850  Biso   1.000  C
  C60      1.0000 0.20340  0.86950  0.65850  Biso   1.000  C
  H41      1.0000 0.77190  0.39300  0.89180  Biso   1.000  H
  H42      1.0000 0.77190  0.10700  0.39180  Biso   1.000  H
  H43      1.0000 0.22810  0.60700  0.10820  Biso   1.000  H
  H44      1.0000 0.22810  0.89300  0.60820  Biso   1.000  H
  C61      1.0000 0.88640  0.36910  0.82970  Biso   1.000  C
  C62      1.0000 0.88640  0.13090  0.32970  Biso   1.000  C
  C63      1.0000 0.11360  0.63090  0.17030  Biso   1.000  C
  C64      1.0000 0.11360  0.86910  0.67030  Biso   1.000  C
  H45      1.0000 0.93390  0.39290  0.87180  Biso   1.000  H
  H46      1.0000 0.93390  0.10710  0.37180  Biso   1.000  H
  H47      1.0000 0.06610  0.60710  0.12820  Biso   1.000  H
  H48      1.0000 0.06610  0.89290  0.62820  Biso   1.000  H
  C65      1.0000 0.59100  0.04070  0.08950  Biso   1.000  C
  C66      1.0000 0.59100  0.45930  0.58950  Biso   1.000  C
  C67      1.0000 0.40900  0.95930  0.91050  Biso   1.000  C
  C68      1.0000 0.40900  0.54070  0.41050  Biso   1.000  C
  H49      1.0000 0.61560  0.99770  0.07350  Biso   1.000  H
  H50      1.0000 0.61560  0.50230  0.57350  Biso   1.000  H
  H51      1.0000 0.38440  0.00230  0.92650  Biso   1.000  H
  H52      1.0000 0.38440  0.49770  0.42650  Biso   1.000  H
  C69      1.0000 0.59150  0.10210  0.03650  Biso   1.000  C
  C70      1.0000 0.59150  0.39790  0.53650  Biso   1.000  C
  C71      1.0000 0.40850  0.89790  0.96350  Biso   1.000  C
  C72      1.0000 0.40850  0.60210  0.46350  Biso   1.000  C
  H53      1.0000 0.61640  0.10970  0.97800  Biso   1.000  H
  H54      1.0000 0.61640  0.39030  0.47800  Biso   1.000  H
  H55      1.0000 0.38360  0.89030  0.02200  Biso   1.000  H
  H56      1.0000 0.38360  0.60970  0.52200  Biso   1.000  H
  C73      1.0000 0.54770  0.15080  0.08700  Biso   1.000  C
  C74      1.0000 0.54770  0.34920  0.58700  Biso   1.000  C
  C75      1.0000 0.45230  0.84920  0.91300  Biso   1.000  C
  C76      1.0000 0.45230  0.65080  0.41300  Biso   1.000  C
  H57      1.0000 0.53700  0.19800  0.06740  Biso   1.000  H
  H58      1.0000 0.53700  0.30200  0.56740  Biso   1.000  H
  H59      1.0000 0.46300  0.80200  0.93260  Biso   1.000  H
  H60      1.0000 0.46300  0.69800  0.43260  Biso   1.000  H
  C77      1.0000 0.35040  0.95780  0.21030  Biso   1.000  C
  C78      1.0000 0.35040  0.54220  0.71030  Biso   1.000  C
  C79      1.0000 0.64960  0.04220  0.78970  Biso   1.000  C
  C80      1.0000 0.64960  0.45780  0.28970  Biso   1.000  C
  H61      1.0000 0.35970  0.90950  0.20090  Biso   1.000  H
  H62      1.0000 0.35970  0.59050  0.70090  Biso   1.000  H
  H63      1.0000 0.64030  0.09050  0.79910  Biso   1.000  H
  H64      1.0000 0.64030  0.40950  0.29910  Biso   1.000  H
  C81      1.0000 0.26760  0.99000  0.20550  Biso   1.000  C
  C82      1.0000 0.26760  0.51000  0.70550  Biso   1.000  C
  C83      1.0000 0.73240  0.01000  0.79450  Biso   1.000  C
  C84      1.0000 0.73240  0.49000  0.29450  Biso   1.000  C
  H65      1.0000 0.21020  0.96870  0.19280  Biso   1.000  H
  H66      1.0000 0.21020  0.53130  0.69280  Biso   1.000  H
  H67      1.0000 0.78980  0.03130  0.80720  Biso   1.000  H
  H68      1.0000 0.78980  0.46870  0.30720  Biso   1.000  H
  C85      1.0000 0.28720  0.06082  0.22330  Biso   1.000  C
  C86      1.0000 0.28720  0.43918  0.72330  Biso   1.000  C
  C87      1.0000 0.71280  0.93918  0.77670  Biso   1.000  C
  C88      1.0000 0.71280  0.56082  0.27670  Biso   1.000  C
  H69      1.0000 0.24410  0.09650  0.22460  Biso   1.000  H
  H70      1.0000 0.24410  0.40350  0.72460  Biso   1.000  H
  H71      1.0000 0.75590  0.90350  0.77540  Biso   1.000  H
  H72      1.0000 0.75590  0.59650  0.27540  Biso   1.000  H
  C89      1.0000 0.60440  0.00230  0.43610  Biso   1.000  C
  C90      1.0000 0.60440  0.49770  0.93610  Biso   1.000  C
  C91      1.0000 0.39560  0.99770  0.56390  Biso   1.000  C
  C92      1.0000 0.39560  0.50230  0.06390  Biso   1.000  C
  H73      1.0000 0.62810  0.95640  0.44060  Biso   1.000  H
  H74      1.0000 0.62810  0.54360  0.94060  Biso   1.000  H
  H75      1.0000 0.37190  0.04360  0.55940  Biso   1.000  H
  H76      1.0000 0.37190  0.45640  0.05940  Biso   1.000  H
  C93      1.0000 0.61380  0.04970  0.51370  Biso   1.000  C
  C94      1.0000 0.61380  0.45030  0.01370  Biso   1.000  C
  C95      1.0000 0.38620  0.95030  0.48630  Biso   1.000  C
  C96      1.0000 0.38620  0.54970  0.98630  Biso   1.000  C
  H77      1.0000 0.64440  0.04350  0.58070  Biso   1.000  H
  H78      1.0000 0.64440  0.45650  0.08070  Biso   1.000  H
  H79      1.0000 0.35560  0.95650  0.41930  Biso   1.000  H
  H80      1.0000 0.35560  0.54350  0.91930  Biso   1.000  H
  C97      1.0000 0.56820  0.10910  0.47150  Biso   1.000  C
  C98      1.0000 0.56820  0.39090  0.97150  Biso   1.000  C
  C99      1.0000 0.43180  0.89090  0.52850  Biso   1.000  C
  C100     1.0000 0.43180  0.60910  0.02850  Biso   1.000  C
  H81      1.0000 0.56300  0.15120  0.50670  Biso   1.000  H
  H82      1.0000 0.56300  0.34880  0.00670  Biso   1.000  H
  H83      1.0000 0.43700  0.84880  0.49330  Biso   1.000  H
  H84      1.0000 0.43700  0.65120  0.99330  Biso   1.000  H
  B1       1.0000 0.79850  0.25800  0.61470  Biso   1.000  B
  B2       1.0000 0.79850  0.24200  0.11470  Biso   1.000  B
  B3       1.0000 0.20150  0.74200  0.38530  Biso   1.000  B
  B4       1.0000 0.20150  0.75800  0.88530  Biso   1.000  B
  B5       1.0000 0.51950  0.00210  0.24680  Biso   1.000  B
  B6       1.0000 0.51950  0.49790  0.74680  Biso   1.000  B
  B7       1.0000 0.48050  0.99790  0.75320  Biso   1.000  B
  B8       1.0000 0.48050  0.50210  0.25320  Biso   1.000  B
  O5       1.0000 0.88610  0.95447  0.13980  Biso   1.000  O
  O6       1.0000 0.88610  0.54553  0.63980  Biso   1.000  O
  O7       1.0000 0.11390  0.04553  0.86020  Biso   1.000  O
  O8       1.0000 0.11390  0.45447  0.36020  Biso   1.000  O
  C101     1.0000 0.84250  0.98620  0.04800  Biso   1.000  C
  C102     1.0000 0.84250  0.51380  0.54800  Biso   1.000  C
  C103     1.0000 0.15750  0.01380  0.95200  Biso   1.000  C
  C104     1.0000 0.15750  0.48620  0.45200  Biso   1.000  C
  H85      1.0000 0.86160  0.03490  0.04640  Biso   1.000  H
  H86      1.0000 0.86160  0.46510  0.54640  Biso   1.000  H
  H87      1.0000 0.13840  0.96510  0.95360  Biso   1.000  H
  H88      1.0000 0.13840  0.53490  0.45360  Biso   1.000  H
  H89      1.0000 0.77740  0.98430  0.04390  Biso   1.000  H
  H90      1.0000 0.77740  0.51570  0.54390  Biso   1.000  H
  H91      1.0000 0.22260  0.01570  0.95610  Biso   1.000  H
  H92      1.0000 0.22260  0.48430  0.45610  Biso   1.000  H
  H93      1.0000 0.85870  0.96110  0.99100  Biso   1.000  H
  H94      1.0000 0.85870  0.53890  0.49100  Biso   1.000  H
  H95      1.0000 0.14130  0.03890  0.00900  Biso   1.000  H
  H96      1.0000 0.14130  0.46110  0.50900  Biso   1.000  H
  O9       1.0000 0.75870  0.91482  0.24880  Biso   1.000  O
  O10      1.0000 0.75870  0.58518  0.74880  Biso   1.000  O
  O11      1.0000 0.24130  0.08518  0.75120  Biso   1.000  O
  O12      1.0000 0.24130  0.41482  0.25120  Biso   1.000  O
  C105     1.0000 0.71730  0.85800  0.18960  Biso   1.000  C
  C106     1.0000 0.71730  0.64200  0.68960  Biso   1.000  C
  C107     1.0000 0.28270  0.14200  0.81040  Biso   1.000  C
  C108     1.0000 0.28270  0.35800  0.31040  Biso   1.000  C
  H97      1.0000 0.66710  0.87550  0.13970  Biso   1.000  H
  H98      1.0000 0.66710  0.62450  0.63970  Biso   1.000  H
  H99      1.0000 0.33290  0.12450  0.86030  Biso   1.000  H
  H100     1.0000 0.33290  0.37550  0.36030  Biso   1.000  H
  H101     1.0000 0.69500  0.82410  0.23320  Biso   1.000  H
  H102     1.0000 0.69500  0.67590  0.73320  Biso   1.000  H
  H103     1.0000 0.30500  0.17590  0.76680  Biso   1.000  H
  H104     1.0000 0.30500  0.32410  0.26680  Biso   1.000  H
  H105     1.0000 0.76130  0.83560  0.15540  Biso   1.000  H
  H106     1.0000 0.76130  0.66440  0.65540  Biso   1.000  H
  H107     1.0000 0.23870  0.16440  0.84460  Biso   1.000  H
  H108     1.0000 0.23870  0.33560  0.34460  Biso   1.000  H
  H109     1.0000 0.53900  0.94550  0.23500  Biso   1.000  H
  H110     1.0000 0.53900  0.55450  0.73500  Biso   1.000  H
  H111     1.0000 0.46100  0.05450  0.76500  Biso   1.000  H
  H112     1.0000 0.46100  0.44550  0.26500  Biso   1.000  H
  H113     1.0000 0.72200  0.24050  0.58800  Biso   1.000  H
  H114     1.0000 0.72200  0.25950  0.08800  Biso   1.000  H
  H115     1.0000 0.27800  0.75950  0.41200  Biso   1.000  H
  H116     1.0000 0.27800  0.74050  0.91200  Biso   1.000  H
