data_image0
_cell_length_a       13.244
_cell_length_b       5.161
_cell_length_c       19.733
_cell_angle_alpha    90
_cell_angle_beta     103.35
_cell_angle_gamma    90

_symmetry_space_group_name_H-M    "P 1"
_symmetry_int_tables_number       1

loop_
  _symmetry_equiv_pos_as_xyz
  'x, y, z'

loop_
  _atom_site_label
  _atom_site_occupancy
  _atom_site_fract_x
  _atom_site_fract_y
  _atom_site_fract_z
  _atom_site_thermal_displace_type
  _atom_site_B_iso_or_equiv
  _atom_site_type_symbol
  Cu1      1.0000 0.04645  0.21595  0.02083  Biso   1.000  Cu
  Cu2      1.0000 0.54645  0.28405  0.52083  Biso   1.000  Cu
  Cu3      1.0000 0.95355  0.78405  0.97917  Biso   1.000  Cu
  Cu4      1.0000 0.45355  0.71595  0.47917  Biso   1.000  Cu
  O1       1.0000 0.97310  0.18730  0.09435  Biso   1.000  O
  O2       1.0000 0.47310  0.31270  0.59435  Biso   1.000  O
  O3       1.0000 0.02690  0.81270  0.90565  Biso   1.000  O
  O4       1.0000 0.52690  0.68730  0.40565  Biso   1.000  O
  O5       1.0000 0.89130  0.81370  0.05864  Biso   1.000  O
  O6       1.0000 0.39130  0.68630  0.55864  Biso   1.000  O
  O7       1.0000 0.10870  0.18630  0.94136  Biso   1.000  O
  O8       1.0000 0.60870  0.31370  0.44136  Biso   1.000  O
  C1       1.0000 0.91180  0.00560  0.09930  Biso   1.000  C
  C2       1.0000 0.41180  0.49440  0.59930  Biso   1.000  C
  C3       1.0000 0.08820  0.99440  0.90070  Biso   1.000  C
  C4       1.0000 0.58820  0.50560  0.40070  Biso   1.000  C
  C5       1.0000 0.85280  0.01910  0.15670  Biso   1.000  C
  C6       1.0000 0.35280  0.48090  0.65670  Biso   1.000  C
  C7       1.0000 0.14720  0.98090  0.84330  Biso   1.000  C
  C8       1.0000 0.64720  0.51910  0.34330  Biso   1.000  C
  H1       1.0000 0.83390  0.84190  0.16850  Biso   1.000  H
  H2       1.0000 0.33390  0.65810  0.66850  Biso   1.000  H
  H3       1.0000 0.16610  0.15810  0.83150  Biso   1.000  H
  H4       1.0000 0.66610  0.34190  0.33150  Biso   1.000  H
  H5       1.0000 0.89760  0.09670  0.19900  Biso   1.000  H
  H6       1.0000 0.39760  0.40330  0.69900  Biso   1.000  H
  H7       1.0000 0.10240  0.90330  0.80100  Biso   1.000  H
  H8       1.0000 0.60240  0.59670  0.30100  Biso   1.000  H
  C9       1.0000 0.76100  0.17200  0.13500  Biso   1.000  C
  C10      1.0000 0.26100  0.32800  0.63500  Biso   1.000  C
  C11      1.0000 0.23900  0.82800  0.86500  Biso   1.000  C
  C12      1.0000 0.73900  0.67200  0.36500  Biso   1.000  C
  C13      1.0000 0.72800  0.36800  0.17210  Biso   1.000  C
  C14      1.0000 0.22800  0.13200  0.67210  Biso   1.000  C
  C15      1.0000 0.27200  0.63200  0.82790  Biso   1.000  C
  C16      1.0000 0.77200  0.86800  0.32790  Biso   1.000  C
  H9       1.0000 0.76460  0.41800  0.21760  Biso   1.000  H
  H10      1.0000 0.26460  0.08200  0.71760  Biso   1.000  H
  H11      1.0000 0.23540  0.58200  0.78240  Biso   1.000  H
  H12      1.0000 0.73540  0.91800  0.28240  Biso   1.000  H
  C17      1.0000 0.63570  0.48800  0.13530  Biso   1.000  C
  C18      1.0000 0.13570  0.01200  0.63530  Biso   1.000  C
  C19      1.0000 0.36430  0.51200  0.86470  Biso   1.000  C
  C20      1.0000 0.86430  0.98800  0.36470  Biso   1.000  C
  H13      1.0000 0.60620  0.63670  0.15150  Biso   1.000  H
  H14      1.0000 0.10620  0.86330  0.65150  Biso   1.000  H
  H15      1.0000 0.39380  0.36330  0.84850  Biso   1.000  H
  H16      1.0000 0.89380  0.13670  0.34850  Biso   1.000  H
  C21      1.0000 0.59350  0.36600  0.07440  Biso   1.000  C
  C22      1.0000 0.09350  0.13400  0.57440  Biso   1.000  C
  C23      1.0000 0.40650  0.63400  0.92560  Biso   1.000  C
  C24      1.0000 0.90650  0.86600  0.42560  Biso   1.000  C
  H17      1.0000 0.52760  0.40750  0.04560  Biso   1.000  H
  H18      1.0000 0.02760  0.09250  0.54560  Biso   1.000  H
  H19      1.0000 0.47240  0.59250  0.95440  Biso   1.000  H
  H20      1.0000 0.97240  0.90750  0.45440  Biso   1.000  H
  S1       1.0000 0.67310  0.12900  0.05590  Biso   1.000  S
  S2       1.0000 0.17310  0.37100  0.55590  Biso   1.000  S
  S3       1.0000 0.32690  0.87100  0.94410  Biso   1.000  S
  S4       1.0000 0.82690  0.62900  0.44410  Biso   1.000  S
  C25      1.0000 0.75330  0.14800  0.12460  Biso   1.000  C
  C26      1.0000 0.25330  0.35200  0.62460  Biso   1.000  C
  C27      1.0000 0.24670  0.85200  0.87540  Biso   1.000  C
  C28      1.0000 0.74670  0.64800  0.37540  Biso   1.000  C
  C29      1.0000 0.67820  0.07800  0.06700  Biso   1.000  C
  C30      1.0000 0.17820  0.42200  0.56700  Biso   1.000  C
  C31      1.0000 0.32180  0.92200  0.93300  Biso   1.000  C
  C32      1.0000 0.82180  0.57800  0.43300  Biso   1.000  C
  H21      1.0000 0.68350  0.93070  0.03910  Biso   1.000  H
  H22      1.0000 0.18350  0.56930  0.53910  Biso   1.000  H
  H23      1.0000 0.31650  0.06930  0.96090  Biso   1.000  H
  H24      1.0000 0.81650  0.43070  0.46090  Biso   1.000  H
  C33      1.0000 0.59210  0.24900  0.05360  Biso   1.000  C
  C34      1.0000 0.09210  0.25100  0.55360  Biso   1.000  C
  C35      1.0000 0.40790  0.75100  0.94640  Biso   1.000  C
  C36      1.0000 0.90790  0.74900  0.44640  Biso   1.000  C
  H25      1.0000 0.53570  0.23550  0.01400  Biso   1.000  H
  H26      1.0000 0.03570  0.26450  0.51400  Biso   1.000  H
  H27      1.0000 0.46430  0.76450  0.98600  Biso   1.000  H
  H28      1.0000 0.96430  0.73550  0.48600  Biso   1.000  H
  C37      1.0000 0.59910  0.43300  0.10340  Biso   1.000  C
  C38      1.0000 0.09910  0.06700  0.60340  Biso   1.000  C
  C39      1.0000 0.40090  0.56700  0.89660  Biso   1.000  C
  C40      1.0000 0.90090  0.93300  0.39660  Biso   1.000  C
  H29      1.0000 0.54650  0.55730  0.10420  Biso   1.000  H
  H30      1.0000 0.04650  0.94270  0.60420  Biso   1.000  H
  H31      1.0000 0.45350  0.44270  0.89580  Biso   1.000  H
  H32      1.0000 0.95350  0.05730  0.39580  Biso   1.000  H
  S5       1.0000 0.71370  0.41530  0.16450  Biso   1.000  S
  S6       1.0000 0.21370  0.08470  0.66450  Biso   1.000  S
  S7       1.0000 0.28630  0.58470  0.83550  Biso   1.000  S
  S8       1.0000 0.78630  0.91530  0.33550  Biso   1.000  S
  C41      1.0000 0.76240  0.21200  0.14430  Biso   1.000  C
  C42      1.0000 0.26240  0.28800  0.64430  Biso   1.000  C
  C43      1.0000 0.23760  0.78800  0.85570  Biso   1.000  C
  C44      1.0000 0.73760  0.71200  0.35570  Biso   1.000  C
  C45      1.0000 0.74260  0.40700  0.18710  Biso   1.000  C
  C46      1.0000 0.24260  0.09300  0.68710  Biso   1.000  C
  C47      1.0000 0.25740  0.59300  0.81290  Biso   1.000  C
  C48      1.0000 0.75740  0.90700  0.31290  Biso   1.000  C
  H33      1.0000 0.78440  0.43950  0.23230  Biso   1.000  H
  H34      1.0000 0.28440  0.06050  0.73230  Biso   1.000  H
  H35      1.0000 0.21560  0.56050  0.76770  Biso   1.000  H
  H36      1.0000 0.71560  0.93950  0.26770  Biso   1.000  H
  C49      1.0000 0.65330  0.55300  0.15650  Biso   1.000  C
  C50      1.0000 0.15330  0.94700  0.65650  Biso   1.000  C
  C51      1.0000 0.34670  0.44700  0.84350  Biso   1.000  C
  C52      1.0000 0.84670  0.05300  0.34350  Biso   1.000  C
  H37      1.0000 0.62760  0.69190  0.17940  Biso   1.000  H
  H38      1.0000 0.12760  0.80810  0.67940  Biso   1.000  H
  H39      1.0000 0.37240  0.30810  0.82060  Biso   1.000  H
  H40      1.0000 0.87240  0.19190  0.32060  Biso   1.000  H
  C53      1.0000 0.60840  0.47400  0.09090  Biso   1.000  C
  C54      1.0000 0.10840  0.02600  0.59090  Biso   1.000  C
  C55      1.0000 0.39160  0.52600  0.90910  Biso   1.000  C
  C56      1.0000 0.89160  0.97400  0.40910  Biso   1.000  C
  H41      1.0000 0.54970  0.55580  0.06190  Biso   1.000  H
  H42      1.0000 0.04970  0.94420  0.56190  Biso   1.000  H
  H43      1.0000 0.45030  0.44420  0.93810  Biso   1.000  H
  H44      1.0000 0.95030  0.05580  0.43810  Biso   1.000  H
  S9       1.0000 0.66970  0.21100  0.06660  Biso   1.000  S
  S10      1.0000 0.16970  0.28900  0.56660  Biso   1.000  S
  S11      1.0000 0.33030  0.78900  0.93340  Biso   1.000  S
  S12      1.0000 0.83030  0.71100  0.43340  Biso   1.000  S
  O9       1.0000 0.15970  0.00550  0.07538  Biso   1.000  O
  O10      1.0000 0.65970  0.49450  0.57538  Biso   1.000  O
  O11      1.0000 0.84030  0.99450  0.92462  Biso   1.000  O
  O12      1.0000 0.34030  0.50550  0.42462  Biso   1.000  O
  O13      1.0000 0.08100  0.62780  0.04058  Biso   1.000  O
  O14      1.0000 0.58100  0.87220  0.54058  Biso   1.000  O
  O15      1.0000 0.91900  0.37220  0.95942  Biso   1.000  O
  O16      1.0000 0.41900  0.12780  0.45942  Biso   1.000  O
  C57      1.0000 0.15760  0.76300  0.07380  Biso   1.000  C
  C58      1.0000 0.65760  0.73700  0.57380  Biso   1.000  C
  C59      1.0000 0.84240  0.23700  0.92620  Biso   1.000  C
  C60      1.0000 0.34240  0.26300  0.42620  Biso   1.000  C
  C61      1.0000 0.25140  0.61280  0.11350  Biso   1.000  C
  C62      1.0000 0.75140  0.88720  0.61350  Biso   1.000  C
  C63      1.0000 0.74860  0.38720  0.88650  Biso   1.000  C
  C64      1.0000 0.24860  0.11280  0.38650  Biso   1.000  C
  H45      1.0000 0.22770  0.47860  0.14220  Biso   1.000  H
  H46      1.0000 0.72770  0.02140  0.64220  Biso   1.000  H
  H47      1.0000 0.77230  0.52140  0.85780  Biso   1.000  H
  H48      1.0000 0.27230  0.97860  0.35780  Biso   1.000  H
  H49      1.0000 0.28400  0.52300  0.07970  Biso   1.000  H
  H50      1.0000 0.78400  0.97700  0.57970  Biso   1.000  H
  H51      1.0000 0.71600  0.47700  0.92030  Biso   1.000  H
  H52      1.0000 0.21600  0.02300  0.42030  Biso   1.000  H
  C65      1.0000 0.33160  0.77900  0.16000  Biso   1.000  C
  C66      1.0000 0.83160  0.72100  0.66000  Biso   1.000  C
  C67      1.0000 0.66840  0.22100  0.84000  Biso   1.000  C
  C68      1.0000 0.16840  0.27900  0.34000  Biso   1.000  C
  C69      1.0000 0.35830  0.78500  0.23160  Biso   1.000  C
  C70      1.0000 0.85830  0.71500  0.73160  Biso   1.000  C
  C71      1.0000 0.64170  0.21500  0.76840  Biso   1.000  C
  C72      1.0000 0.14170  0.28500  0.26840  Biso   1.000  C
  H53      1.0000 0.32630  0.68080  0.26030  Biso   1.000  H
  H54      1.0000 0.82630  0.81920  0.76030  Biso   1.000  H
  H55      1.0000 0.67370  0.31920  0.73970  Biso   1.000  H
  H56      1.0000 0.17370  0.18080  0.23970  Biso   1.000  H
  C73      1.0000 0.43860  0.96500  0.25810  Biso   1.000  C
  C74      1.0000 0.93860  0.53500  0.75810  Biso   1.000  C
  C75      1.0000 0.56140  0.03500  0.74190  Biso   1.000  C
  C76      1.0000 0.06140  0.46500  0.24190  Biso   1.000  C
  H57      1.0000 0.46450  0.99810  0.30630  Biso   1.000  H
  H58      1.0000 0.96450  0.50190  0.80630  Biso   1.000  H
  H59      1.0000 0.53550  0.00190  0.69370  Biso   1.000  H
  H60      1.0000 0.03550  0.49810  0.19370  Biso   1.000  H
  C77      1.0000 0.47440  0.08400  0.20710  Biso   1.000  C
  C78      1.0000 0.97440  0.41600  0.70710  Biso   1.000  C
  C79      1.0000 0.52560  0.91600  0.79290  Biso   1.000  C
  C80      1.0000 0.02560  0.58400  0.29290  Biso   1.000  C
  H61      1.0000 0.52910  0.20790  0.21550  Biso   1.000  H
  H62      1.0000 0.02910  0.29210  0.71550  Biso   1.000  H
  H63      1.0000 0.47090  0.79210  0.78450  Biso   1.000  H
  H64      1.0000 0.97090  0.70790  0.28450  Biso   1.000  H
  S13      1.0000 0.40950  0.98670  0.12600  Biso   1.000  S
  S14      1.0000 0.90950  0.51330  0.62600  Biso   1.000  S
  S15      1.0000 0.59050  0.01330  0.87400  Biso   1.000  S
  S16      1.0000 0.09050  0.48670  0.37400  Biso   1.000  S
  C81      1.0000 0.34600  0.76200  0.15920  Biso   1.000  C
  C82      1.0000 0.84600  0.73800  0.65920  Biso   1.000  C
  C83      1.0000 0.65400  0.23800  0.84080  Biso   1.000  C
  C84      1.0000 0.15400  0.26200  0.34080  Biso   1.000  C
  C85      1.0000 0.40100  0.97300  0.14470  Biso   1.000  C
  C86      1.0000 0.90100  0.52700  0.64470  Biso   1.000  C
  C87      1.0000 0.59900  0.02700  0.85530  Biso   1.000  C
  C88      1.0000 0.09900  0.47300  0.35530  Biso   1.000  C
  H65      1.0000 0.39940  0.03140  0.09880  Biso   1.000  H
  H66      1.0000 0.89940  0.46860  0.59880  Biso   1.000  H
  H67      1.0000 0.60060  0.96860  0.90120  Biso   1.000  H
  H68      1.0000 0.10060  0.53140  0.40120  Biso   1.000  H
  C89      1.0000 0.46000  0.09300  0.20550  Biso   1.000  C
  C90      1.0000 0.96000  0.40700  0.70550  Biso   1.000  C
  C91      1.0000 0.54000  0.90700  0.79450  Biso   1.000  C
  C92      1.0000 0.04000  0.59300  0.29450  Biso   1.000  C
  H69      1.0000 0.50470  0.23700  0.20480  Biso   1.000  H
  H70      1.0000 0.00470  0.26300  0.70480  Biso   1.000  H
  H71      1.0000 0.49530  0.76300  0.79520  Biso   1.000  H
  H72      1.0000 0.99530  0.73700  0.29520  Biso   1.000  H
  C93      1.0000 0.44700  0.98000  0.26480  Biso   1.000  C
  C94      1.0000 0.94700  0.52000  0.76480  Biso   1.000  C
  C95      1.0000 0.55300  0.02000  0.73520  Biso   1.000  C
  C96      1.0000 0.05300  0.48000  0.23520  Biso   1.000  C
  H73      1.0000 0.48190  0.03240  0.31030  Biso   1.000  H
  H74      1.0000 0.98190  0.46760  0.81030  Biso   1.000  H
  H75      1.0000 0.51810  0.96760  0.68970  Biso   1.000  H
  H76      1.0000 0.01810  0.53240  0.18970  Biso   1.000  H
  S17      1.0000 0.35800  0.73400  0.24800  Biso   1.000  S
  S18      1.0000 0.85800  0.76600  0.74800  Biso   1.000  S
  S19      1.0000 0.64200  0.26600  0.75200  Biso   1.000  S
  S20      1.0000 0.14200  0.23400  0.25200  Biso   1.000  S
