data_image0
_cell_length_a       8.8868
_cell_length_b       9.972
_cell_length_c       10.5256
_cell_angle_alpha    75.286
_cell_angle_beta     81.777
_cell_angle_gamma    85.916

_symmetry_space_group_name_H-M    "P 1"
_symmetry_int_tables_number       1

loop_
  _symmetry_equiv_pos_as_xyz
  'x, y, z'

loop_
  _atom_site_label
  _atom_site_occupancy
  _atom_site_fract_x
  _atom_site_fract_y
  _atom_site_fract_z
  _atom_site_thermal_displace_type
  _atom_site_B_iso_or_equiv
  _atom_site_type_symbol
  Cu1      1.0000 0.44314  0.90500  0.45732  Biso   1.000  Cu
  Cu2      1.0000 0.55686  0.09500  0.54268  Biso   1.000  Cu
  O1       1.0000 0.65460  0.83000  0.43940  Biso   1.000  O
  O2       1.0000 0.34540  0.17000  0.56060  Biso   1.000  O
  O3       1.0000 0.75240  0.99760  0.50610  Biso   1.000  O
  O4       1.0000 0.24760  0.00240  0.49390  Biso   1.000  O
  O5       1.0000 0.41590  0.79290  0.64160  Biso   1.000  O
  O6       1.0000 0.58410  0.20710  0.35840  Biso   1.000  O
  O7       1.0000 0.26060  0.47320  0.06970  Biso   1.000  O
  O8       1.0000 0.73940  0.52680  0.93030  Biso   1.000  O
  O9       1.0000 0.86450  0.67980  0.17773  Biso   1.000  O
  O10      1.0000 0.13550  0.32020  0.82227  Biso   1.000  O
  O11      1.0000 0.06270  0.11320  0.07660  Biso   1.000  O
  O12      1.0000 0.93730  0.88680  0.92340  Biso   1.000  O
  N1       1.0000 0.34720  0.76240  0.36560  Biso   1.000  N
  N2       1.0000 0.65280  0.23760  0.63440  Biso   1.000  N
  N3       1.0000 0.04650  0.42230  0.21430  Biso   1.000  N
  N4       1.0000 0.95350  0.57770  0.78570  Biso   1.000  N
  C1       1.0000 0.36620  0.62650  0.40810  Biso   1.000  C
  C2       1.0000 0.63380  0.37350  0.59190  Biso   1.000  C
  H1       1.0000 0.42210  0.59120  0.48080  Biso   1.000  H
  H2       1.0000 0.57790  0.40880  0.51920  Biso   1.000  H
  C3       1.0000 0.30820  0.53270  0.35120  Biso   1.000  C
  C4       1.0000 0.69180  0.46730  0.64880  Biso   1.000  C
  H3       1.0000 0.32290  0.43560  0.38490  Biso   1.000  H
  H4       1.0000 0.67710  0.56440  0.61510  Biso   1.000  H
  C5       1.0000 0.22820  0.58520  0.24360  Biso   1.000  C
  C6       1.0000 0.77180  0.41480  0.75640  Biso   1.000  C
  C7       1.0000 0.20870  0.72770  0.19850  Biso   1.000  C
  C8       1.0000 0.79130  0.27230  0.80150  Biso   1.000  C
  H5       1.0000 0.15430  0.76640  0.12540  Biso   1.000  H
  H6       1.0000 0.84570  0.23360  0.87460  Biso   1.000  H
  C9       1.0000 0.27020  0.81250  0.26190  Biso   1.000  C
  C10      1.0000 0.72980  0.18750  0.73810  Biso   1.000  C
  H7       1.0000 0.25720  0.91020  0.23080  Biso   1.000  H
  H8       1.0000 0.74280  0.08980  0.76920  Biso   1.000  H
  C11      1.0000 0.17790  0.48950  0.16920  Biso   1.000  C
  C12      1.0000 0.82210  0.51050  0.83080  Biso   1.000  C
  C13      1.0000 0.00570  0.32900  0.13740  Biso   1.000  C
  C14      1.0000 0.99430  0.67100  0.86260  Biso   1.000  C
  H9       1.0000 0.02710  0.37410  0.04170  Biso   1.000  H
  H10      1.0000 0.97290  0.62590  0.95830  Biso   1.000  H
  H11      1.0000 0.89530  0.31290  0.15830  Biso   1.000  H
  H12      1.0000 0.10470  0.68710  0.84170  Biso   1.000  H
  C15      1.0000 0.92980  0.45950  0.31560  Biso   1.000  C
  C16      1.0000 0.07020  0.54050  0.68440  Biso   1.000  C
  H13      1.0000 0.97860  0.50660  0.37040  Biso   1.000  H
  H14      1.0000 0.02140  0.49340  0.62960  Biso   1.000  H
  H15      1.0000 0.88560  0.37360  0.37450  Biso   1.000  H
  H16      1.0000 0.11440  0.62640  0.62550  Biso   1.000  H
  C17      1.0000 0.80260  0.55420  0.25490  Biso   1.000  C
  C18      1.0000 0.19740  0.44580  0.74510  Biso   1.000  C
  H17      1.0000 0.75380  0.50870  0.19880  Biso   1.000  H
  H18      1.0000 0.24620  0.49130  0.80120  Biso   1.000  H
  H19      1.0000 0.72430  0.57270  0.32590  Biso   1.000  H
  H20      1.0000 0.27570  0.42730  0.67410  Biso   1.000  H
  C19      1.0000 0.74930  0.76580  0.10990  Biso   1.000  C
  C20      1.0000 0.25070  0.23420  0.89010  Biso   1.000  C
  H21      1.0000 0.66520  0.78660  0.17540  Biso   1.000  H
  H22      1.0000 0.33480  0.21340  0.82460  Biso   1.000  H
  H23      1.0000 0.70730  0.71570  0.05350  Biso   1.000  H
  H24      1.0000 0.29270  0.28430  0.94650  Biso   1.000  H
  C21      1.0000 0.76380  0.89050  0.46180  Biso   1.000  C
  C22      1.0000 0.23620  0.10950  0.53820  Biso   1.000  C
  C23      1.0000 0.92120  0.83060  0.43210  Biso   1.000  C
  C24      1.0000 0.07880  0.16940  0.56790  Biso   1.000  C
  H25      1.0000 0.92350  0.73060  0.47270  Biso   1.000  H
  H26      1.0000 0.07650  0.26940  0.52730  Biso   1.000  H
  H27      1.0000 0.99400  0.87520  0.46840  Biso   1.000  H
  H28      1.0000 0.00600  0.12480  0.53160  Biso   1.000  H
  H29      1.0000 0.94850  0.84680  0.33600  Biso   1.000  H
  H30      1.0000 0.05150  0.15320  0.66400  Biso   1.000  H
  C25      1.0000 0.45610  0.84050  0.73240  Biso   1.000  C
  C26      1.0000 0.54390  0.15950  0.26760  Biso   1.000  C
  C27      1.0000 0.43090  0.75300  0.87220  Biso   1.000  C
  C28      1.0000 0.56910  0.24700  0.12780  Biso   1.000  C
  H31      1.0000 0.32940  0.71470  0.88980  Biso   1.000  H
  H32      1.0000 0.67060  0.28530  0.11020  Biso   1.000  H
  H33      1.0000 0.43910  0.81030  0.93380  Biso   1.000  H
  H34      1.0000 0.56090  0.18970  0.06620  Biso   1.000  H
  H35      1.0000 0.50790  0.67700  0.88400  Biso   1.000  H
  H36      1.0000 0.49210  0.32300  0.11600  Biso   1.000  H
  C29      1.0000 0.09320  0.19030  0.16680  Biso   1.000  C
  C30      1.0000 0.90680  0.80970  0.83320  Biso   1.000  C
  H37      1.0000 0.20360  0.20540  0.15670  Biso   1.000  H
  H38      1.0000 0.79640  0.79460  0.84330  Biso   1.000  H
  H39      1.0000 0.06120  0.13800  0.25910  Biso   1.000  H
  H40      1.0000 0.93880  0.86200  0.74090  Biso   1.000  H
  C31      1.0000 0.81540  0.89950  0.02500  Biso   1.000  C
  C32      1.0000 0.18460  0.10050  0.97500  Biso   1.000  C
  H41      1.0000 0.85240  0.94970  0.08370  Biso   1.000  H
  H42      1.0000 0.14760  0.05030  0.91630  Biso   1.000  H
  H43      1.0000 0.73250  0.95760  0.98260  Biso   1.000  H
  H44      1.0000 0.26750  0.04240  0.01740  Biso   1.000  H
  O13      1.0000 0.51410  0.95780  0.71420  Biso   1.000  O
  O14      1.0000 0.48590  0.04220  0.28580  Biso   1.000  O
