data_image0
_cell_length_a       8.6452
_cell_length_b       11.4949
_cell_length_c       12.4095
_cell_angle_alpha    108.692
_cell_angle_beta     93.096
_cell_angle_gamma    107.264

_symmetry_space_group_name_H-M    "P 1"
_symmetry_int_tables_number       1

loop_
  _symmetry_equiv_pos_as_xyz
  'x, y, z'

loop_
  _atom_site_label
  _atom_site_occupancy
  _atom_site_fract_x
  _atom_site_fract_y
  _atom_site_fract_z
  _atom_site_thermal_displace_type
  _atom_site_B_iso_or_equiv
  _atom_site_type_symbol
  C1       1.0000 0.42850  0.94330  0.49420  Biso   1.000  C
  C2       1.0000 0.57150  0.05670  0.50580  Biso   1.000  C
  C3       1.0000 0.29340  0.96350  0.54310  Biso   1.000  C
  C4       1.0000 0.70660  0.03650  0.45690  Biso   1.000  C
  C5       1.0000 0.29090  0.08230  0.60310  Biso   1.000  C
  C6       1.0000 0.70910  0.91770  0.39690  Biso   1.000  C
  C7       1.0000 0.90390  0.79390  0.77835  Biso   1.000  C
  C8       1.0000 0.09610  0.20610  0.22165  Biso   1.000  C
  H1       1.0000 0.91150  0.72760  0.80640  Biso   1.000  H
  H2       1.0000 0.08850  0.27240  0.19360  Biso   1.000  H
  C9       1.0000 0.86420  0.89760  0.85084  Biso   1.000  C
  C10      1.0000 0.13580  0.10240  0.14916  Biso   1.000  C
  H3       1.0000 0.84550  0.90160  0.92650  Biso   1.000  H
  H4       1.0000 0.15450  0.09840  0.07350  Biso   1.000  H
  C11      1.0000 0.85250  0.99388  0.81140  Biso   1.000  C
  C12      1.0000 0.14750  0.00612  0.18860  Biso   1.000  C
  C13      1.0000 0.87630  0.98170  0.70010  Biso   1.000  C
  C14      1.0000 0.12370  0.01830  0.29990  Biso   1.000  C
  H5       1.0000 0.86690  0.04550  0.66930  Biso   1.000  H
  H6       1.0000 0.13310  0.95450  0.33070  Biso   1.000  H
  C15      1.0000 0.91460  0.87420  0.63350  Biso   1.000  C
  C16      1.0000 0.08540  0.12580  0.36650  Biso   1.000  C
  H7       1.0000 0.92910  0.86580  0.55640  Biso   1.000  H
  H8       1.0000 0.07090  0.13420  0.44360  Biso   1.000  H
  C17      1.0000 0.82390  0.11256  0.89271  Biso   1.000  C
  C18      1.0000 0.17610  0.88744  0.10729  Biso   1.000  C
  C19      1.0000 0.52990  0.02430  0.80342  Biso   1.000  C
  C20      1.0000 0.47010  0.97570  0.19658  Biso   1.000  C
  H9       1.0000 0.56920  0.96430  0.74370  Biso   1.000  H
  H10      1.0000 0.43080  0.03570  0.25630  Biso   1.000  H
  H11      1.0000 0.48230  0.07280  0.76570  Biso   1.000  H
  H12      1.0000 0.51770  0.92720  0.23430  Biso   1.000  H
  C21      1.0000 0.39580  0.94460  0.84962  Biso   1.000  C
  C22      1.0000 0.60420  0.05540  0.15038  Biso   1.000  C
  H13      1.0000 0.36220  0.00260  0.91490  Biso   1.000  H
  H14      1.0000 0.63780  0.99740  0.08510  Biso   1.000  H
  H15      1.0000 0.29860  0.89300  0.78850  Biso   1.000  H
  H16      1.0000 0.70140  0.10700  0.21150  Biso   1.000  H
  C23      1.0000 0.66550  0.24400  0.09645  Biso   1.000  C
  C24      1.0000 0.33450  0.75600  0.90355  Biso   1.000  C
  H17      1.0000 0.65800  0.32830  0.14600  Biso   1.000  H
  H18      1.0000 0.34200  0.67170  0.85400  Biso   1.000  H
  H19      1.0000 0.77490  0.24080  0.12050  Biso   1.000  H
  H20      1.0000 0.22510  0.75920  0.87950  Biso   1.000  H
  C25      1.0000 0.64910  0.23580  0.97145  Biso   1.000  C
  C26      1.0000 0.35090  0.76420  0.02855  Biso   1.000  C
  H21      1.0000 0.73140  0.31360  0.96560  Biso   1.000  H
  H22      1.0000 0.26860  0.68640  0.03440  Biso   1.000  H
  H23      1.0000 0.53880  0.23750  0.94750  Biso   1.000  H
  H24      1.0000 0.46120  0.76250  0.05250  Biso   1.000  H
  C27      1.0000 0.30540  0.60342  0.57576  Biso   1.000  C
  C28      1.0000 0.69460  0.39658  0.42424  Biso   1.000  C
  C29      1.0000 0.48670  0.66170  0.62220  Biso   1.000  C
  C30      1.0000 0.51330  0.33830  0.37780  Biso   1.000  C
  H25      1.0000 0.53160  0.74380  0.60870  Biso   1.000  H
  H26      1.0000 0.46840  0.25620  0.39130  Biso   1.000  H
  H27      1.0000 0.54210  0.60100  0.58300  Biso   1.000  H
  H28      1.0000 0.45790  0.39900  0.41700  Biso   1.000  H
  H29      1.0000 0.50420  0.67830  0.70520  Biso   1.000  H
  H30      1.0000 0.49580  0.32170  0.29480  Biso   1.000  H
  C31      1.0000 0.96880  0.41680  0.66729  Biso   1.000  C
  C32      1.0000 0.03120  0.58320  0.33271  Biso   1.000  C
  C33      1.0000 0.95260  0.37050  0.76870  Biso   1.000  C
  C34      1.0000 0.04740  0.62950  0.23130  Biso   1.000  C
  H31      1.0000 0.85230  0.29520  0.75060  Biso   1.000  H
  H32      1.0000 0.14770  0.70480  0.24940  Biso   1.000  H
  H33      1.0000 0.04810  0.34550  0.78430  Biso   1.000  H
  H34      1.0000 0.95190  0.65450  0.21570  Biso   1.000  H
  H35      1.0000 0.94700  0.44080  0.83680  Biso   1.000  H
  H36      1.0000 0.05300  0.55920  0.16320  Biso   1.000  H
  C35      1.0000 0.60330  0.67070  0.31450  Biso   1.000  C
  C36      1.0000 0.39670  0.32930  0.68550  Biso   1.000  C
  C37      1.0000 0.42020  0.19230  0.61370  Biso   1.000  C
  C38      1.0000 0.57980  0.80770  0.38630  Biso   1.000  C
  C39      1.0000 0.44160  0.82370  0.43630  Biso   1.000  C
  C40      1.0000 0.55840  0.17630  0.56370  Biso   1.000  C
  C41      1.0000 0.32030  0.39440  0.04530  Biso   1.000  C
  C42      1.0000 0.67970  0.60560  0.95470  Biso   1.000  C
  H37      1.0000 0.34160  0.37240  0.11350  Biso   1.000  H
  H38      1.0000 0.65840  0.62760  0.88650  Biso   1.000  H
  H39      1.0000 0.23640  0.43680  0.05560  Biso   1.000  H
  H40      1.0000 0.76360  0.56320  0.94440  Biso   1.000  H
  H41      1.0000 0.42180  0.45360  0.03530  Biso   1.000  H
  H42      1.0000 0.57820  0.54640  0.96470  Biso   1.000  H
  Cu1      1.0000 0.97841  0.60858  0.56239  Biso   1.000  Cu
  Cu2      1.0000 0.02159  0.39142  0.43761  Biso   1.000  Cu
  N1       1.0000 0.93180  0.78304  0.67206  Biso   1.000  N
  N2       1.0000 0.06820  0.21696  0.32794  Biso   1.000  N
  N3       1.0000 0.67180  0.11788  0.89135  Biso   1.000  N
  N4       1.0000 0.32820  0.88212  0.10865  Biso   1.000  N
  O1       1.0000 0.94350  0.20026  0.96039  Biso   1.000  O
  O2       1.0000 0.05650  0.79974  0.03961  Biso   1.000  O
  O3       1.0000 0.45895  0.85985  0.88715  Biso   1.000  O
  O4       1.0000 0.54105  0.14015  0.11285  Biso   1.000  O
  O5       1.0000 0.21748  0.67364  0.61036  Biso   1.000  O
  O6       1.0000 0.78252  0.32636  0.38964  Biso   1.000  O
  O7       1.0000 0.25298  0.48751  0.50558  Biso   1.000  O
  O8       1.0000 0.74702  0.51249  0.49442  Biso   1.000  O
  O9       1.0000 0.95650  0.52655  0.68164  Biso   1.000  O
  O10      1.0000 0.04350  0.47345  0.31836  Biso   1.000  O
  O11      1.0000 0.99240  0.34156  0.57548  Biso   1.000  O
  O12      1.0000 0.00760  0.65844  0.42452  Biso   1.000  O
  O13      1.0000 0.26230  0.27570  0.94350  Biso   1.000  O
  O14      1.0000 0.73770  0.72430  0.05650  Biso   1.000  O
  H43      1.0000 0.16030  0.24120  0.93710  Biso   1.000  H
  H44      1.0000 0.83970  0.75880  0.06290  Biso   1.000  H
