data_image0
_cell_length_a       7.8122
_cell_length_b       7.8122
_cell_length_c       20.232
_cell_angle_alpha    90
_cell_angle_beta     90
_cell_angle_gamma    90

_symmetry_space_group_name_H-M    "P 1"
_symmetry_int_tables_number       1

loop_
  _symmetry_equiv_pos_as_xyz
  'x, y, z'

loop_
  _atom_site_label
  _atom_site_occupancy
  _atom_site_fract_x
  _atom_site_fract_y
  _atom_site_fract_z
  _atom_site_thermal_displace_type
  _atom_site_B_iso_or_equiv
  _atom_site_type_symbol
  Cu1      1.0000 0.80088  0.80088  0.00000  Biso   1.000  Cu
  Cu2      1.0000 0.19912  0.19912  0.50000  Biso   1.000  Cu
  Cu3      1.0000 0.69912  0.30088  0.75000  Biso   1.000  Cu
  Cu4      1.0000 0.30088  0.69912  0.25000  Biso   1.000  Cu
  O1       1.0000 0.65030  0.95000  0.05324  Biso   1.000  O
  O2       1.0000 0.34970  0.05000  0.55324  Biso   1.000  O
  O3       1.0000 0.55000  0.15030  0.80324  Biso   1.000  O
  O4       1.0000 0.45000  0.84970  0.30324  Biso   1.000  O
  O5       1.0000 0.84970  0.45000  0.69676  Biso   1.000  O
  O6       1.0000 0.15030  0.55000  0.19676  Biso   1.000  O
  O7       1.0000 0.95000  0.65030  0.94676  Biso   1.000  O
  O8       1.0000 0.05000  0.34970  0.44676  Biso   1.000  O
  O9       1.0000 0.79440  0.80100  0.12401  Biso   1.000  O
  O10      1.0000 0.20560  0.19900  0.62401  Biso   1.000  O
  O11      1.0000 0.69900  0.29440  0.87401  Biso   1.000  O
  O12      1.0000 0.30100  0.70560  0.37401  Biso   1.000  O
  O13      1.0000 0.70560  0.30100  0.62599  Biso   1.000  O
  O14      1.0000 0.29440  0.69900  0.12599  Biso   1.000  O
  O15      1.0000 0.80100  0.79440  0.87599  Biso   1.000  O
  O16      1.0000 0.19900  0.20560  0.37599  Biso   1.000  O
  O17      1.0000 0.58660  0.96570  0.15680  Biso   1.000  O
  O18      1.0000 0.41340  0.03430  0.65680  Biso   1.000  O
  O19      1.0000 0.53430  0.08660  0.90680  Biso   1.000  O
  O20      1.0000 0.46570  0.91340  0.40680  Biso   1.000  O
  O21      1.0000 0.91340  0.46570  0.59320  Biso   1.000  O
  O22      1.0000 0.08660  0.53430  0.09320  Biso   1.000  O
  O23      1.0000 0.96570  0.58660  0.84320  Biso   1.000  O
  O24      1.0000 0.03430  0.41340  0.34320  Biso   1.000  O
  N1       1.0000 0.62040  0.62040  0.00000  Biso   1.000  N
  N2       1.0000 0.37960  0.37960  0.50000  Biso   1.000  N
  N3       1.0000 0.87960  0.12040  0.75000  Biso   1.000  N
  N4       1.0000 0.12040  0.87960  0.25000  Biso   1.000  N
  N5       1.0000 0.97970  0.97970  0.00000  Biso   1.000  N
  N6       1.0000 0.02030  0.02030  0.50000  Biso   1.000  N
  N7       1.0000 0.52030  0.47970  0.75000  Biso   1.000  N
  N8       1.0000 0.47970  0.52030  0.25000  Biso   1.000  N
  N9       1.0000 0.67660  0.90500  0.11363  Biso   1.000  N
  N10      1.0000 0.32340  0.09500  0.61363  Biso   1.000  N
  N11      1.0000 0.59500  0.17660  0.86363  Biso   1.000  N
  N12      1.0000 0.40500  0.82340  0.36363  Biso   1.000  N
  N13      1.0000 0.82340  0.40500  0.63637  Biso   1.000  N
  N14      1.0000 0.17660  0.59500  0.13637  Biso   1.000  N
  N15      1.0000 0.90500  0.67660  0.88637  Biso   1.000  N
  N16      1.0000 0.09500  0.32340  0.38637  Biso   1.000  N
  C1       1.0000 0.62830  0.48630  0.04069  Biso   1.000  C
  C2       1.0000 0.37170  0.51370  0.54069  Biso   1.000  C
  C3       1.0000 0.01370  0.12830  0.79069  Biso   1.000  C
  C4       1.0000 0.98630  0.87170  0.29069  Biso   1.000  C
  C5       1.0000 0.87170  0.98630  0.70931  Biso   1.000  C
  C6       1.0000 0.12830  0.01370  0.20931  Biso   1.000  C
  C7       1.0000 0.48630  0.62830  0.95931  Biso   1.000  C
  C8       1.0000 0.51370  0.37170  0.45931  Biso   1.000  C
  H1       1.0000 0.72210  0.47840  0.06960  Biso   1.000  H
  H2       1.0000 0.27790  0.52160  0.56960  Biso   1.000  H
  H3       1.0000 0.02160  0.22210  0.81960  Biso   1.000  H
  H4       1.0000 0.97840  0.77790  0.31960  Biso   1.000  H
  H5       1.0000 0.77790  0.97840  0.68040  Biso   1.000  H
  H6       1.0000 0.22210  0.02160  0.18040  Biso   1.000  H
  H7       1.0000 0.47840  0.72210  0.93040  Biso   1.000  H
  H8       1.0000 0.52160  0.27790  0.43040  Biso   1.000  H
  C9       1.0000 0.50700  0.35920  0.04263  Biso   1.000  C
  C10      1.0000 0.49300  0.64080  0.54263  Biso   1.000  C
  C11      1.0000 0.14080  0.00700  0.79263  Biso   1.000  C
  C12      1.0000 0.85920  0.99300  0.29263  Biso   1.000  C
  C13      1.0000 0.99300  0.85920  0.70737  Biso   1.000  C
  C14      1.0000 0.00700  0.14080  0.20737  Biso   1.000  C
  C15      1.0000 0.35920  0.50700  0.95737  Biso   1.000  C
  C16      1.0000 0.64080  0.49300  0.45737  Biso   1.000  C
  H9       1.0000 0.51850  0.26770  0.07250  Biso   1.000  H
  H10      1.0000 0.48150  0.73230  0.57250  Biso   1.000  H
  H11      1.0000 0.23230  0.01850  0.82250  Biso   1.000  H
  H12      1.0000 0.76770  0.98150  0.32250  Biso   1.000  H
  H13      1.0000 0.98150  0.76770  0.67750  Biso   1.000  H
  H14      1.0000 0.01850  0.23230  0.17750  Biso   1.000  H
  H15      1.0000 0.26770  0.51850  0.92750  Biso   1.000  H
  H16      1.0000 0.73230  0.48150  0.42750  Biso   1.000  H
  C17      1.0000 0.36620  0.36620  0.00000  Biso   1.000  C
  C18      1.0000 0.63380  0.63380  0.50000  Biso   1.000  C
  C19      1.0000 0.13380  0.86620  0.75000  Biso   1.000  C
  C20      1.0000 0.86620  0.13380  0.25000  Biso   1.000  C
  C21      1.0000 0.23170  0.23170  0.00000  Biso   1.000  C
  C22      1.0000 0.76830  0.76830  0.50000  Biso   1.000  C
  C23      1.0000 0.26830  0.73170  0.75000  Biso   1.000  C
  C24      1.0000 0.73170  0.26830  0.25000  Biso   1.000  C
  C25      1.0000 0.26740  0.06440  0.01785  Biso   1.000  C
  C26      1.0000 0.73260  0.93560  0.51785  Biso   1.000  C
  C27      1.0000 0.43560  0.76740  0.76785  Biso   1.000  C
  C28      1.0000 0.56440  0.23260  0.26785  Biso   1.000  C
  C29      1.0000 0.23260  0.56440  0.73215  Biso   1.000  C
  C30      1.0000 0.76740  0.43560  0.23215  Biso   1.000  C
  C31      1.0000 0.06440  0.26740  0.98215  Biso   1.000  C
  C32      1.0000 0.93560  0.73260  0.48215  Biso   1.000  C
  H17      1.0000 0.37870  0.03420  0.03120  Biso   1.000  H
  H18      1.0000 0.62130  0.96580  0.53120  Biso   1.000  H
  H19      1.0000 0.46580  0.87870  0.78120  Biso   1.000  H
  H20      1.0000 0.53420  0.12130  0.28120  Biso   1.000  H
  H21      1.0000 0.12130  0.53420  0.71880  Biso   1.000  H
  H22      1.0000 0.87870  0.46580  0.21880  Biso   1.000  H
  H23      1.0000 0.03420  0.37870  0.96880  Biso   1.000  H
  H24      1.0000 0.96580  0.62130  0.46880  Biso   1.000  H
  C33      1.0000 0.14220  0.94360  0.01623  Biso   1.000  C
  C34      1.0000 0.85780  0.05640  0.51623  Biso   1.000  C
  C35      1.0000 0.55640  0.64220  0.76623  Biso   1.000  C
  C36      1.0000 0.44360  0.35780  0.26623  Biso   1.000  C
  C37      1.0000 0.35780  0.44360  0.73377  Biso   1.000  C
  C38      1.0000 0.64220  0.55640  0.23377  Biso   1.000  C
  C39      1.0000 0.94360  0.14220  0.98377  Biso   1.000  C
  C40      1.0000 0.05640  0.85780  0.48377  Biso   1.000  C
  H25      1.0000 0.17070  0.83010  0.02690  Biso   1.000  H
  H26      1.0000 0.82930  0.16990  0.52690  Biso   1.000  H
  H27      1.0000 0.66990  0.67070  0.77690  Biso   1.000  H
  H28      1.0000 0.33010  0.32930  0.27690  Biso   1.000  H
  H29      1.0000 0.32930  0.33010  0.72310  Biso   1.000  H
  H30      1.0000 0.67070  0.66990  0.22310  Biso   1.000  H
  H31      1.0000 0.83010  0.17070  0.97310  Biso   1.000  H
  H32      1.0000 0.16990  0.82930  0.47310  Biso   1.000  H
