data_image0
_cell_length_a       8.8365
_cell_length_b       12.617
_cell_length_c       15.658
_cell_angle_alpha    90
_cell_angle_beta     99.709
_cell_angle_gamma    90

_symmetry_space_group_name_H-M    "P 1"
_symmetry_int_tables_number       1

loop_
  _symmetry_equiv_pos_as_xyz
  'x, y, z'

loop_
  _atom_site_label
  _atom_site_occupancy
  _atom_site_fract_x
  _atom_site_fract_y
  _atom_site_fract_z
  _atom_site_thermal_displace_type
  _atom_site_B_iso_or_equiv
  _atom_site_type_symbol
  Cu1      1.0000 0.29796  0.84989  0.21331  Biso   1.000  Cu
  Cu2      1.0000 0.70204  0.34989  0.28669  Biso   1.000  Cu
  Cu3      1.0000 0.70204  0.15011  0.78669  Biso   1.000  Cu
  Cu4      1.0000 0.29796  0.65011  0.71331  Biso   1.000  Cu
  Br1      1.0000 0.13611  0.89261  0.07846  Biso   1.000  Br
  Br2      1.0000 0.86389  0.39261  0.42154  Biso   1.000  Br
  Br3      1.0000 0.86389  0.10739  0.92154  Biso   1.000  Br
  Br4      1.0000 0.13611  0.60739  0.57846  Biso   1.000  Br
  Br5      1.0000 0.45600  0.90740  0.34558  Biso   1.000  Br
  Br6      1.0000 0.54400  0.40740  0.15442  Biso   1.000  Br
  Br7      1.0000 0.54400  0.09260  0.65442  Biso   1.000  Br
  Br8      1.0000 0.45600  0.59260  0.84558  Biso   1.000  Br
  C1       1.0000 0.62410  0.12430  0.11520  Biso   1.000  C
  C2       1.0000 0.37590  0.62430  0.38480  Biso   1.000  C
  C3       1.0000 0.37590  0.87570  0.88480  Biso   1.000  C
  C4       1.0000 0.62410  0.37570  0.61520  Biso   1.000  C
  H1       1.0000 0.58380  0.19470  0.10070  Biso   1.000  H
  H2       1.0000 0.41620  0.69470  0.39930  Biso   1.000  H
  H3       1.0000 0.41620  0.80530  0.89930  Biso   1.000  H
  H4       1.0000 0.58380  0.30530  0.60070  Biso   1.000  H
  H5       1.0000 0.68200  0.10210  0.07090  Biso   1.000  H
  H6       1.0000 0.31800  0.60210  0.42910  Biso   1.000  H
  H7       1.0000 0.31800  0.89790  0.92910  Biso   1.000  H
  H8       1.0000 0.68200  0.39790  0.57090  Biso   1.000  H
  S1       1.0000 0.46911  0.03356  0.11926  Biso   1.000  S
  S2       1.0000 0.53089  0.53356  0.38074  Biso   1.000  S
  S3       1.0000 0.53089  0.96644  0.88074  Biso   1.000  S
  S4       1.0000 0.46911  0.46644  0.61926  Biso   1.000  S
  N1       1.0000 0.48490  0.82940  0.15750  Biso   1.000  N
  N2       1.0000 0.51510  0.32940  0.34250  Biso   1.000  N
  N3       1.0000 0.51510  0.17060  0.84250  Biso   1.000  N
  N4       1.0000 0.48490  0.67060  0.65750  Biso   1.000  N
  C5       1.0000 0.55910  0.90780  0.12360  Biso   1.000  C
  C6       1.0000 0.44090  0.40780  0.37640  Biso   1.000  C
  C7       1.0000 0.44090  0.09220  0.87640  Biso   1.000  C
  C8       1.0000 0.55910  0.59220  0.62360  Biso   1.000  C
  C9       1.0000 0.69410  0.88710  0.09170  Biso   1.000  C
  C10      1.0000 0.30590  0.38710  0.40830  Biso   1.000  C
  C11      1.0000 0.30590  0.11290  0.90830  Biso   1.000  C
  C12      1.0000 0.69410  0.61290  0.59170  Biso   1.000  C
  H9       1.0000 0.74650  0.94170  0.06950  Biso   1.000  H
  H10      1.0000 0.25350  0.44170  0.43050  Biso   1.000  H
  H11      1.0000 0.25350  0.05830  0.93050  Biso   1.000  H
  H12      1.0000 0.74650  0.55830  0.56950  Biso   1.000  H
  C13      1.0000 0.74910  0.78470  0.09350  Biso   1.000  C
  C14      1.0000 0.25090  0.28470  0.40650  Biso   1.000  C
  C15      1.0000 0.25090  0.21530  0.90650  Biso   1.000  C
  C16      1.0000 0.74910  0.71530  0.59350  Biso   1.000  C
  H13      1.0000 0.83860  0.76970  0.07190  Biso   1.000  H
  H14      1.0000 0.16140  0.26970  0.42810  Biso   1.000  H
  H15      1.0000 0.16140  0.23030  0.92810  Biso   1.000  H
  H16      1.0000 0.83860  0.73030  0.57190  Biso   1.000  H
  C17      1.0000 0.67140  0.70550  0.12720  Biso   1.000  C
  C18      1.0000 0.32860  0.20550  0.37280  Biso   1.000  C
  C19      1.0000 0.32860  0.29450  0.87280  Biso   1.000  C
  C20      1.0000 0.67140  0.79450  0.62720  Biso   1.000  C
  H17      1.0000 0.70710  0.63600  0.12860  Biso   1.000  H
  H18      1.0000 0.29290  0.13600  0.37140  Biso   1.000  H
  H19      1.0000 0.29290  0.36400  0.87140  Biso   1.000  H
  H20      1.0000 0.70710  0.86400  0.62860  Biso   1.000  H
  C21      1.0000 0.54170  0.72980  0.15830  Biso   1.000  C
  C22      1.0000 0.45830  0.22980  0.34170  Biso   1.000  C
  C23      1.0000 0.45830  0.27020  0.84170  Biso   1.000  C
  C24      1.0000 0.54170  0.77020  0.65830  Biso   1.000  C
  H21      1.0000 0.48950  0.67560  0.18120  Biso   1.000  H
  H22      1.0000 0.51050  0.17560  0.31880  Biso   1.000  H
  H23      1.0000 0.51050  0.32440  0.81880  Biso   1.000  H
  H24      1.0000 0.48950  0.82440  0.68120  Biso   1.000  H
  S5       1.0000 0.74847  0.12638  0.22007  Biso   1.000  S
  S6       1.0000 0.25153  0.62638  0.27993  Biso   1.000  S
  S7       1.0000 0.25153  0.87362  0.77993  Biso   1.000  S
  S8       1.0000 0.74847  0.37362  0.72007  Biso   1.000  S
  N5       1.0000 0.88320  0.31470  0.22960  Biso   1.000  N
  N6       1.0000 0.11680  0.81470  0.27040  Biso   1.000  N
  N7       1.0000 0.11680  0.68530  0.77040  Biso   1.000  N
  N8       1.0000 0.88320  0.18530  0.72960  Biso   1.000  N
  C25      1.0000 0.89450  0.21500  0.20050  Biso   1.000  C
  C26      1.0000 0.10550  0.71500  0.29950  Biso   1.000  C
  C27      1.0000 0.10550  0.78500  0.79950  Biso   1.000  C
  C28      1.0000 0.89450  0.28500  0.70050  Biso   1.000  C
  C29      1.0000 0.01300  0.18360  0.15800  Biso   1.000  C
  C30      1.0000 0.98700  0.68360  0.34200  Biso   1.000  C
  C31      1.0000 0.98700  0.81640  0.84200  Biso   1.000  C
  C32      1.0000 0.01300  0.31640  0.65800  Biso   1.000  C
  H25      1.0000 0.01560  0.11530  0.13600  Biso   1.000  H
  H26      1.0000 0.98440  0.61530  0.36400  Biso   1.000  H
  H27      1.0000 0.98440  0.88470  0.86400  Biso   1.000  H
  H28      1.0000 0.01560  0.38470  0.63600  Biso   1.000  H
  C33      1.0000 0.12570  0.25520  0.14920  Biso   1.000  C
  C34      1.0000 0.87430  0.75520  0.35080  Biso   1.000  C
  C35      1.0000 0.87430  0.74480  0.85080  Biso   1.000  C
  C36      1.0000 0.12570  0.24480  0.64920  Biso   1.000  C
  H29      1.0000 0.20730  0.23510  0.12220  Biso   1.000  H
  H30      1.0000 0.79270  0.73510  0.37780  Biso   1.000  H
  H31      1.0000 0.79270  0.76490  0.87780  Biso   1.000  H
  H32      1.0000 0.20730  0.26490  0.62220  Biso   1.000  H
  C37      1.0000 0.11880  0.35690  0.18020  Biso   1.000  C
  C38      1.0000 0.88120  0.85690  0.31980  Biso   1.000  C
  C39      1.0000 0.88120  0.64310  0.81980  Biso   1.000  C
  C40      1.0000 0.11880  0.14310  0.68020  Biso   1.000  C
  H33      1.0000 0.19500  0.40600  0.17460  Biso   1.000  H
  H34      1.0000 0.80500  0.90600  0.32540  Biso   1.000  H
  H35      1.0000 0.80500  0.59400  0.82540  Biso   1.000  H
  H36      1.0000 0.19500  0.09400  0.67460  Biso   1.000  H
  C41      1.0000 0.99570  0.38410  0.21980  Biso   1.000  C
  C42      1.0000 0.00430  0.88410  0.28020  Biso   1.000  C
  C43      1.0000 0.00430  0.61590  0.78020  Biso   1.000  C
  C44      1.0000 0.99570  0.11590  0.71980  Biso   1.000  C
  H37      1.0000 0.99000  0.45280  0.24050  Biso   1.000  H
  H38      1.0000 0.01000  0.95280  0.25950  Biso   1.000  H
  H39      1.0000 0.01000  0.54720  0.75950  Biso   1.000  H
  H40      1.0000 0.99000  0.04720  0.74050  Biso   1.000  H
  N9       1.0000 0.99970  0.59590  0.09610  Biso   1.000  N
  N10      1.0000 0.00030  0.09590  0.40390  Biso   1.000  N
  N11      1.0000 0.00030  0.40410  0.90390  Biso   1.000  N
  N12      1.0000 0.99970  0.90410  0.59610  Biso   1.000  N
  C45      1.0000 0.09910  0.59900  0.05940  Biso   1.000  C
  C46      1.0000 0.90090  0.09900  0.44060  Biso   1.000  C
  C47      1.0000 0.90090  0.40100  0.94060  Biso   1.000  C
  C48      1.0000 0.09910  0.90100  0.55940  Biso   1.000  C
  C49      1.0000 0.22770  0.60070  0.01210  Biso   1.000  C
  C50      1.0000 0.77230  0.10070  0.48790  Biso   1.000  C
  C51      1.0000 0.77230  0.39930  0.98790  Biso   1.000  C
  C52      1.0000 0.22770  0.89930  0.51210  Biso   1.000  C
  H41      1.0000 0.30780  0.55530  0.04050  Biso   1.000  H
  H42      1.0000 0.69220  0.05530  0.45950  Biso   1.000  H
  H43      1.0000 0.69220  0.44470  0.95950  Biso   1.000  H
  H44      1.0000 0.30780  0.94470  0.54050  Biso   1.000  H
  H45      1.0000 0.26590  0.67180  0.01070  Biso   1.000  H
  H46      1.0000 0.73410  0.17180  0.48930  Biso   1.000  H
  H47      1.0000 0.73410  0.32820  0.98930  Biso   1.000  H
  H48      1.0000 0.26590  0.82820  0.51070  Biso   1.000  H
  H49      1.0000 0.19400  0.57620  0.95400  Biso   1.000  H
  H50      1.0000 0.80600  0.07620  0.54600  Biso   1.000  H
  H51      1.0000 0.80600  0.42380  0.04600  Biso   1.000  H
  H52      1.0000 0.19400  0.92380  0.45400  Biso   1.000  H
