data_image0
_cell_length_a       8.585
_cell_length_b       5.6147
_cell_length_c       9.076
_cell_angle_alpha    90
_cell_angle_beta     109.5
_cell_angle_gamma    90

_symmetry_space_group_name_H-M    "P 1"
_symmetry_int_tables_number       1

loop_
  _symmetry_equiv_pos_as_xyz
  'x, y, z'

loop_
  _atom_site_label
  _atom_site_occupancy
  _atom_site_fract_x
  _atom_site_fract_y
  _atom_site_fract_z
  _atom_site_thermal_displace_type
  _atom_site_B_iso_or_equiv
  _atom_site_type_symbol
  Cu1      1.0000 0.16525  0.74031  0.89703  Biso   1.000  Cu
  Cu2      1.0000 0.83475  0.24031  0.10297  Biso   1.000  Cu
  S1       1.0000 0.69418  0.54030  0.48088  Biso   1.000  S
  S2       1.0000 0.30582  0.04030  0.51912  Biso   1.000  S
  N1       1.0000 0.01490  0.84050  0.68850  Biso   1.000  N
  N2       1.0000 0.98510  0.34050  0.31150  Biso   1.000  N
  H1       1.0000 0.05740  0.96790  0.65520  Biso   1.000  H
  H2       1.0000 0.94260  0.46790  0.34480  Biso   1.000  H
  H3       1.0000 0.00420  0.72170  0.61930  Biso   1.000  H
  H4       1.0000 0.99580  0.22170  0.38070  Biso   1.000  H
  O1       1.0000 0.01520  0.94430  0.96760  Biso   1.000  O
  O2       1.0000 0.98480  0.44430  0.03240  Biso   1.000  O
  O3       1.0000 0.35480  0.04350  0.98370  Biso   1.000  O
  O4       1.0000 0.64520  0.54350  0.01630  Biso   1.000  O
  H5       1.0000 0.45790  0.03250  0.97160  Biso   1.000  H
  H6       1.0000 0.54210  0.53250  0.02840  Biso   1.000  H
  H7       1.0000 0.32790  0.17710  0.03080  Biso   1.000  H
  H8       1.0000 0.67210  0.67710  0.96920  Biso   1.000  H
  O5       1.0000 0.76060  0.08610  0.89290  Biso   1.000  O
  O6       1.0000 0.23940  0.58610  0.10710  Biso   1.000  O
  O7       1.0000 0.88990  0.83480  0.32750  Biso   1.000  O
  O8       1.0000 0.11010  0.33480  0.67250  Biso   1.000  O
  O9       1.0000 0.68310  0.05480  0.17780  Biso   1.000  O
  O10      1.0000 0.31690  0.55480  0.82220  Biso   1.000  O
  C1       1.0000 0.87790  0.98630  0.86440  Biso   1.000  C
  C2       1.0000 0.12210  0.48630  0.13560  Biso   1.000  C
  C3       1.0000 0.85320  0.90070  0.69860  Biso   1.000  C
  C4       1.0000 0.14680  0.40070  0.30140  Biso   1.000  C
  H9       1.0000 0.80330  0.02860  0.62440  Biso   1.000  H
  H10      1.0000 0.19670  0.52860  0.37560  Biso   1.000  H
  C5       1.0000 0.73520  0.68840  0.66680  Biso   1.000  C
  C6       1.0000 0.26480  0.18840  0.33320  Biso   1.000  C
  H11      1.0000 0.63070  0.74260  0.67410  Biso   1.000  H
  H12      1.0000 0.36930  0.24260  0.32590  Biso   1.000  H
  H13      1.0000 0.78010  0.57200  0.74900  Biso   1.000  H
  H14      1.0000 0.21990  0.07200  0.25100  Biso   1.000  H
  C7       1.0000 0.61790  0.77840  0.34120  Biso   1.000  C
  C8       1.0000 0.38210  0.27840  0.65880  Biso   1.000  C
  H15      1.0000 0.52880  0.71630  0.25270  Biso   1.000  H
  H16      1.0000 0.47120  0.21630  0.74730  Biso   1.000  H
  H17      1.0000 0.57150  0.90110  0.38940  Biso   1.000  H
  H18      1.0000 0.42850  0.40110  0.61060  Biso   1.000  H
  C9       1.0000 0.74420  0.89210  0.28090  Biso   1.000  C
  C10      1.0000 0.25580  0.39210  0.71910  Biso   1.000  C
