data_image0
_cell_length_a       16.9601
_cell_length_b       6.23599
_cell_length_c       7.28294
_cell_angle_alpha    90
_cell_angle_beta     90
_cell_angle_gamma    90

_symmetry_space_group_name_H-M    "P 1"
_symmetry_int_tables_number       1

loop_
  _symmetry_equiv_pos_as_xyz
  'x, y, z'

loop_
  _atom_site_label
  _atom_site_occupancy
  _atom_site_fract_x
  _atom_site_fract_y
  _atom_site_fract_z
  _atom_site_thermal_displace_type
  _atom_site_B_iso_or_equiv
  _atom_site_type_symbol
  Cu1      1.0000 0.00000  0.00000  0.00000  Biso   1.000  Cu
  Cu2      1.0000 0.00000  0.00000  0.50000  Biso   1.000  Cu
  Cu3      1.0000 0.50000  0.50000  0.00000  Biso   1.000  Cu
  Cu4      1.0000 0.50000  0.50000  0.50000  Biso   1.000  Cu
  N1       1.0000 0.08642  0.13280  0.15746  Biso   1.000  N
  N2       1.0000 0.91358  0.86720  0.65746  Biso   1.000  N
  N3       1.0000 0.08642  0.86720  0.84254  Biso   1.000  N
  N4       1.0000 0.91358  0.13280  0.34254  Biso   1.000  N
  N5       1.0000 0.58642  0.63280  0.15746  Biso   1.000  N
  N6       1.0000 0.41358  0.36720  0.65746  Biso   1.000  N
  N7       1.0000 0.58642  0.36720  0.84254  Biso   1.000  N
  N8       1.0000 0.41358  0.63280  0.34254  Biso   1.000  N
  N9       1.0000 0.91358  0.86720  0.84254  Biso   1.000  N
  N10      1.0000 0.08642  0.13280  0.34254  Biso   1.000  N
  N11      1.0000 0.91358  0.13280  0.15746  Biso   1.000  N
  N12      1.0000 0.08642  0.86720  0.65746  Biso   1.000  N
  N13      1.0000 0.41358  0.36720  0.84254  Biso   1.000  N
  N14      1.0000 0.58642  0.63280  0.34254  Biso   1.000  N
  N15      1.0000 0.41358  0.63280  0.15746  Biso   1.000  N
  N16      1.0000 0.58642  0.36720  0.65746  Biso   1.000  N
  C1       1.0000 0.14875  0.25305  0.09743  Biso   1.000  C
  C2       1.0000 0.85125  0.74695  0.59743  Biso   1.000  C
  C3       1.0000 0.14875  0.74695  0.90257  Biso   1.000  C
  C4       1.0000 0.85125  0.25305  0.40257  Biso   1.000  C
  C5       1.0000 0.64875  0.75305  0.09743  Biso   1.000  C
  C6       1.0000 0.35125  0.24695  0.59743  Biso   1.000  C
  C7       1.0000 0.64875  0.24695  0.90257  Biso   1.000  C
  C8       1.0000 0.35125  0.75305  0.40257  Biso   1.000  C
  C9       1.0000 0.85125  0.74695  0.90257  Biso   1.000  C
  C10      1.0000 0.14875  0.25305  0.40257  Biso   1.000  C
  C11      1.0000 0.85125  0.25305  0.09743  Biso   1.000  C
  C12      1.0000 0.14875  0.74695  0.59743  Biso   1.000  C
  C13      1.0000 0.35125  0.24695  0.90257  Biso   1.000  C
  C14      1.0000 0.64875  0.75305  0.40257  Biso   1.000  C
  C15      1.0000 0.35125  0.75305  0.09743  Biso   1.000  C
  C16      1.0000 0.64875  0.24695  0.59743  Biso   1.000  C
  C17      1.0000 0.18734  0.33230  0.25000  Biso   1.000  C
  C18      1.0000 0.81266  0.66770  0.75000  Biso   1.000  C
  C19      1.0000 0.18734  0.66770  0.75000  Biso   1.000  C
  C20      1.0000 0.81266  0.33230  0.25000  Biso   1.000  C
  C21      1.0000 0.68734  0.83230  0.25000  Biso   1.000  C
  C22      1.0000 0.31266  0.16770  0.75000  Biso   1.000  C
  C23      1.0000 0.68734  0.16770  0.75000  Biso   1.000  C
  C24      1.0000 0.31266  0.83230  0.25000  Biso   1.000  C
  O1       1.0000 0.50000  0.13545  0.25000  Biso   1.000  O
  O2       1.0000 0.50000  0.86455  0.75000  Biso   1.000  O
  O3       1.0000 0.00000  0.63545  0.25000  Biso   1.000  O
  O4       1.0000 0.00000  0.36455  0.75000  Biso   1.000  O
