data_image0
_cell_length_a       11.07
_cell_length_b       6.65
_cell_length_c       12.143
_cell_angle_alpha    90
_cell_angle_beta     101.6
_cell_angle_gamma    90

_symmetry_space_group_name_H-M    "P 1"
_symmetry_int_tables_number       1

loop_
  _symmetry_equiv_pos_as_xyz
  'x, y, z'

loop_
  _atom_site_label
  _atom_site_occupancy
  _atom_site_fract_x
  _atom_site_fract_y
  _atom_site_fract_z
  _atom_site_thermal_displace_type
  _atom_site_B_iso_or_equiv
  _atom_site_type_symbol
  Cu1      1.0000 0.00000  0.00000  0.00000  Biso   1.000  Cu
  Cu2      1.0000 0.00000  0.50000  0.50000  Biso   1.000  Cu
  Na1      1.0000 0.09280  0.34890  0.20200  Biso   1.000  Na
  Na2      1.0000 0.90720  0.84890  0.29800  Biso   1.000  Na
  Na3      1.0000 0.90720  0.65110  0.79800  Biso   1.000  Na
  Na4      1.0000 0.09280  0.15110  0.70200  Biso   1.000  Na
  O1       1.0000 0.89020  0.19480  0.05270  Biso   1.000  O
  O2       1.0000 0.10980  0.69480  0.44730  Biso   1.000  O
  O3       1.0000 0.10980  0.80520  0.94730  Biso   1.000  O
  O4       1.0000 0.89020  0.30520  0.55270  Biso   1.000  O
  O5       1.0000 0.80590  0.91500  0.10320  Biso   1.000  O
  O6       1.0000 0.19410  0.41500  0.39680  Biso   1.000  O
  O7       1.0000 0.19410  0.08500  0.89680  Biso   1.000  O
  O8       1.0000 0.80590  0.58500  0.60320  Biso   1.000  O
  O9       1.0000 0.93020  0.21230  0.29980  Biso   1.000  O
  O10      1.0000 0.06980  0.71230  0.20020  Biso   1.000  O
  O11      1.0000 0.06980  0.78770  0.70020  Biso   1.000  O
  O12      1.0000 0.93020  0.28770  0.79980  Biso   1.000  O
  O13      1.0000 0.88350  0.51480  0.35810  Biso   1.000  O
  O14      1.0000 0.11650  0.01480  0.14190  Biso   1.000  O
  O15      1.0000 0.11650  0.48520  0.64190  Biso   1.000  O
  O16      1.0000 0.88350  0.98520  0.85810  Biso   1.000  O
  O17      1.0000 0.16700  0.41210  0.04280  Biso   1.000  O
  O18      1.0000 0.83300  0.91210  0.45720  Biso   1.000  O
  O19      1.0000 0.83300  0.58790  0.95720  Biso   1.000  O
  O20      1.0000 0.16700  0.08790  0.54280  Biso   1.000  O
  C1       1.0000 0.70940  0.22480  0.12880  Biso   1.000  C
  C2       1.0000 0.29060  0.72480  0.37120  Biso   1.000  C
  C3       1.0000 0.29060  0.77520  0.87120  Biso   1.000  C
  C4       1.0000 0.70940  0.27520  0.62880  Biso   1.000  C
  C5       1.0000 0.73280  0.35090  0.22180  Biso   1.000  C
  C6       1.0000 0.26720  0.85090  0.27820  Biso   1.000  C
  C7       1.0000 0.26720  0.64910  0.77820  Biso   1.000  C
  C8       1.0000 0.73280  0.14910  0.72180  Biso   1.000  C
  C9       1.0000 0.63610  0.46370  0.24830  Biso   1.000  C
  C10      1.0000 0.36390  0.96370  0.25170  Biso   1.000  C
  C11      1.0000 0.36390  0.53630  0.75170  Biso   1.000  C
  C12      1.0000 0.63610  0.03630  0.74830  Biso   1.000  C
  C13      1.0000 0.51830  0.45040  0.18370  Biso   1.000  C
  C14      1.0000 0.48170  0.95040  0.31630  Biso   1.000  C
  C15      1.0000 0.48170  0.54960  0.81630  Biso   1.000  C
  C16      1.0000 0.51830  0.04960  0.68370  Biso   1.000  C
  C17      1.0000 0.49550  0.32690  0.09010  Biso   1.000  C
  C18      1.0000 0.50450  0.82690  0.40990  Biso   1.000  C
  C19      1.0000 0.50450  0.67310  0.90990  Biso   1.000  C
  C20      1.0000 0.49550  0.17310  0.59010  Biso   1.000  C
  C21      1.0000 0.59160  0.21380  0.06210  Biso   1.000  C
  C22      1.0000 0.40840  0.71380  0.43790  Biso   1.000  C
  C23      1.0000 0.40840  0.78620  0.93790  Biso   1.000  C
  C24      1.0000 0.59160  0.28620  0.56210  Biso   1.000  C
  C25      1.0000 0.80930  0.09990  0.09330  Biso   1.000  C
  C26      1.0000 0.19070  0.59990  0.40670  Biso   1.000  C
  C27      1.0000 0.19070  0.90010  0.90670  Biso   1.000  C
  C28      1.0000 0.80930  0.40010  0.59330  Biso   1.000  C
  C29      1.0000 0.85830  0.35530  0.29770  Biso   1.000  C
  C30      1.0000 0.14170  0.85530  0.20230  Biso   1.000  C
  C31      1.0000 0.14170  0.64470  0.70230  Biso   1.000  C
  C32      1.0000 0.85830  0.14470  0.79770  Biso   1.000  C
  H1       1.0000 0.65800  0.56900  0.31800  Biso   1.000  H
  H2       1.0000 0.34200  0.06900  0.18200  Biso   1.000  H
  H3       1.0000 0.34200  0.43100  0.68200  Biso   1.000  H
  H4       1.0000 0.65800  0.93100  0.81800  Biso   1.000  H
  H5       1.0000 0.44900  0.54100  0.20900  Biso   1.000  H
  H6       1.0000 0.55100  0.04100  0.29100  Biso   1.000  H
  H7       1.0000 0.55100  0.45900  0.79100  Biso   1.000  H
  H8       1.0000 0.44900  0.95900  0.70900  Biso   1.000  H
  H9       1.0000 0.41200  0.32000  0.04300  Biso   1.000  H
  H10      1.0000 0.58800  0.82000  0.45700  Biso   1.000  H
  H11      1.0000 0.58800  0.68000  0.95700  Biso   1.000  H
  H12      1.0000 0.41200  0.18000  0.54300  Biso   1.000  H
  H13      1.0000 0.57300  0.12400  0.98700  Biso   1.000  H
  H14      1.0000 0.42700  0.62400  0.51300  Biso   1.000  H
  H15      1.0000 0.42700  0.87600  0.01300  Biso   1.000  H
  H16      1.0000 0.57300  0.37600  0.48700  Biso   1.000  H
  H17      1.0000 0.17900  0.33100  0.99500  Biso   1.000  H
  H18      1.0000 0.82100  0.83100  0.50500  Biso   1.000  H
  H19      1.0000 0.82100  0.66900  0.00500  Biso   1.000  H
  H20      1.0000 0.17900  0.16900  0.49500  Biso   1.000  H
  H21      1.0000 0.14400  0.51400  0.00600  Biso   1.000  H
  H22      1.0000 0.85600  0.01400  0.49400  Biso   1.000  H
  H23      1.0000 0.85600  0.48600  0.99400  Biso   1.000  H
  H24      1.0000 0.14400  0.98600  0.50600  Biso   1.000  H
