data_image0
_cell_length_a       11.086
_cell_length_b       6.648
_cell_length_c       12.195
_cell_angle_alpha    90
_cell_angle_beta     101.88
_cell_angle_gamma    90

_symmetry_space_group_name_H-M    "P 1"
_symmetry_int_tables_number       1

loop_
  _symmetry_equiv_pos_as_xyz
  'x, y, z'

loop_
  _atom_site_label
  _atom_site_occupancy
  _atom_site_fract_x
  _atom_site_fract_y
  _atom_site_fract_z
  _atom_site_thermal_displace_type
  _atom_site_B_iso_or_equiv
  _atom_site_type_symbol
  Cu1      1.0000 0.00000  0.00000  0.00000  Biso   1.000  Cu
  Cu2      1.0000 0.00000  0.50000  0.50000  Biso   1.000  Cu
  Na1      1.0000 0.90756  0.34802  0.79779  Biso   1.000  Na
  Na2      1.0000 0.90756  0.15198  0.29779  Biso   1.000  Na
  Na3      1.0000 0.09244  0.65198  0.20221  Biso   1.000  Na
  Na4      1.0000 0.09244  0.84802  0.70221  Biso   1.000  Na
  O1       1.0000 0.88313  0.01460  0.85749  Biso   1.000  O
  O2       1.0000 0.88313  0.48540  0.35749  Biso   1.000  O
  O3       1.0000 0.11687  0.98540  0.14251  Biso   1.000  O
  O4       1.0000 0.11687  0.51460  0.64251  Biso   1.000  O
  O5       1.0000 0.92969  0.71090  0.79928  Biso   1.000  O
  O6       1.0000 0.92969  0.78910  0.29928  Biso   1.000  O
  O7       1.0000 0.07031  0.28910  0.20072  Biso   1.000  O
  O8       1.0000 0.07031  0.21090  0.70072  Biso   1.000  O
  O9       1.0000 0.80596  0.41430  0.60321  Biso   1.000  O
  O10      1.0000 0.80596  0.08570  0.10321  Biso   1.000  O
  O11      1.0000 0.19404  0.58570  0.39679  Biso   1.000  O
  O12      1.0000 0.19404  0.91430  0.89679  Biso   1.000  O
  O13      1.0000 0.89060  0.69480  0.55309  Biso   1.000  O
  O14      1.0000 0.89060  0.80520  0.05309  Biso   1.000  O
  O15      1.0000 0.10940  0.30520  0.44691  Biso   1.000  O
  O16      1.0000 0.10940  0.19480  0.94691  Biso   1.000  O
  O17      1.0000 0.83210  0.41250  0.95598  Biso   1.000  O
  O18      1.0000 0.83210  0.08750  0.45598  Biso   1.000  O
  O19      1.0000 0.16790  0.58750  0.04402  Biso   1.000  O
  O20      1.0000 0.16790  0.91250  0.54402  Biso   1.000  O
  C1       1.0000 0.85840  0.85570  0.79740  Biso   1.000  C
  C2       1.0000 0.85840  0.64430  0.29740  Biso   1.000  C
  C3       1.0000 0.14160  0.14430  0.20260  Biso   1.000  C
  C4       1.0000 0.14160  0.35570  0.70260  Biso   1.000  C
  C5       1.0000 0.73300  0.85080  0.72219  Biso   1.000  C
  C6       1.0000 0.73300  0.64920  0.22219  Biso   1.000  C
  C7       1.0000 0.26700  0.14920  0.27781  Biso   1.000  C
  C8       1.0000 0.26700  0.35080  0.77781  Biso   1.000  C
  C9       1.0000 0.63670  0.96370  0.74800  Biso   1.000  C
  C10      1.0000 0.63670  0.53630  0.24800  Biso   1.000  C
  C11      1.0000 0.36330  0.03630  0.25200  Biso   1.000  C
  C12      1.0000 0.36330  0.46370  0.75200  Biso   1.000  C
  H1       1.0000 0.65190  0.04930  0.80960  Biso   1.000  H
  H2       1.0000 0.65190  0.45070  0.30960  Biso   1.000  H
  H3       1.0000 0.34810  0.95070  0.19040  Biso   1.000  H
  H4       1.0000 0.34810  0.54930  0.69040  Biso   1.000  H
  C13      1.0000 0.51890  0.95040  0.68330  Biso   1.000  C
  C14      1.0000 0.51890  0.54960  0.18330  Biso   1.000  C
  C15      1.0000 0.48110  0.04960  0.31670  Biso   1.000  C
  C16      1.0000 0.48110  0.45040  0.81670  Biso   1.000  C
  H5       1.0000 0.45500  0.02430  0.70230  Biso   1.000  H
  H6       1.0000 0.45500  0.47570  0.20230  Biso   1.000  H
  H7       1.0000 0.54500  0.97570  0.29770  Biso   1.000  H
  H8       1.0000 0.54500  0.52430  0.79770  Biso   1.000  H
  C17      1.0000 0.49670  0.82670  0.59050  Biso   1.000  C
  C18      1.0000 0.49670  0.67330  0.09050  Biso   1.000  C
  C19      1.0000 0.50330  0.17330  0.40950  Biso   1.000  C
  C20      1.0000 0.50330  0.32670  0.90950  Biso   1.000  C
  H9       1.0000 0.41780  0.81820  0.54630  Biso   1.000  H
  H10      1.0000 0.41780  0.68180  0.04630  Biso   1.000  H
  H11      1.0000 0.58220  0.18180  0.45370  Biso   1.000  H
  H12      1.0000 0.58220  0.31820  0.95370  Biso   1.000  H
  C21      1.0000 0.59170  0.71520  0.56270  Biso   1.000  C
  C22      1.0000 0.59170  0.78480  0.06270  Biso   1.000  C
  C23      1.0000 0.40830  0.28480  0.43730  Biso   1.000  C
  C24      1.0000 0.40830  0.21520  0.93730  Biso   1.000  C
  H13      1.0000 0.57620  0.63310  0.49960  Biso   1.000  H
  H14      1.0000 0.57620  0.86690  0.99960  Biso   1.000  H
  H15      1.0000 0.42380  0.36690  0.50040  Biso   1.000  H
  H16      1.0000 0.42380  0.13310  0.00040  Biso   1.000  H
  C25      1.0000 0.70990  0.72490  0.62827  Biso   1.000  C
  C26      1.0000 0.70990  0.77510  0.12827  Biso   1.000  C
  C27      1.0000 0.29010  0.27510  0.37173  Biso   1.000  C
  C28      1.0000 0.29010  0.22490  0.87173  Biso   1.000  C
  C29      1.0000 0.80910  0.60070  0.59418  Biso   1.000  C
  C30      1.0000 0.80910  0.89930  0.09418  Biso   1.000  C
  C31      1.0000 0.19090  0.39930  0.40582  Biso   1.000  C
  C32      1.0000 0.19090  0.10070  0.90582  Biso   1.000  C
  H17      1.0000 0.84400  0.53000  0.99300  Biso   1.000  H
  H18      1.0000 0.84400  0.97000  0.49300  Biso   1.000  H
  H19      1.0000 0.15600  0.47000  0.00700  Biso   1.000  H
  H20      1.0000 0.15600  0.03000  0.50700  Biso   1.000  H
  H21      1.0000 0.82900  0.33900  0.00200  Biso   1.000  H
  H22      1.0000 0.82900  0.16100  0.50200  Biso   1.000  H
  H23      1.0000 0.17100  0.66100  0.99800  Biso   1.000  H
  H24      1.0000 0.17100  0.83900  0.49800  Biso   1.000  H
