data_image0
_cell_length_a       11.072
_cell_length_b       6.648
_cell_length_c       12.209
_cell_angle_alpha    90
_cell_angle_beta     101.8
_cell_angle_gamma    90

_symmetry_space_group_name_H-M    "P 1"
_symmetry_int_tables_number       1

loop_
  _symmetry_equiv_pos_as_xyz
  'x, y, z'

loop_
  _atom_site_label
  _atom_site_occupancy
  _atom_site_fract_x
  _atom_site_fract_y
  _atom_site_fract_z
  _atom_site_thermal_displace_type
  _atom_site_B_iso_or_equiv
  _atom_site_type_symbol
  Cu1      1.0000 0.50000  0.00000  0.00000  Biso   1.000  Cu
  Cu2      1.0000 0.50000  0.50000  0.50000  Biso   1.000  Cu
  Na1      1.0000 0.40741  0.15197  0.29799  Biso   1.000  Na
  Na2      1.0000 0.40741  0.34803  0.79799  Biso   1.000  Na
  Na3      1.0000 0.59259  0.84803  0.70201  Biso   1.000  Na
  Na4      1.0000 0.59259  0.65197  0.20201  Biso   1.000  Na
  O1       1.0000 0.30574  0.08550  0.10319  Biso   1.000  O
  O2       1.0000 0.30574  0.41450  0.60319  Biso   1.000  O
  O3       1.0000 0.69426  0.91450  0.89681  Biso   1.000  O
  O4       1.0000 0.69426  0.58550  0.39681  Biso   1.000  O
  O5       1.0000 0.39060  0.80520  0.05294  Biso   1.000  O
  O6       1.0000 0.39060  0.69480  0.55294  Biso   1.000  O
  O7       1.0000 0.60940  0.19480  0.94706  Biso   1.000  O
  O8       1.0000 0.60940  0.30520  0.44706  Biso   1.000  O
  O9       1.0000 0.38308  0.48570  0.35756  Biso   1.000  O
  O10      1.0000 0.38308  0.01430  0.85756  Biso   1.000  O
  O11      1.0000 0.61692  0.51430  0.64244  Biso   1.000  O
  O12      1.0000 0.61692  0.98570  0.14244  Biso   1.000  O
  O13      1.0000 0.42961  0.78900  0.29946  Biso   1.000  O
  O14      1.0000 0.42961  0.71100  0.79946  Biso   1.000  O
  O15      1.0000 0.57039  0.21100  0.70054  Biso   1.000  O
  O16      1.0000 0.57039  0.28900  0.20054  Biso   1.000  O
  O17      1.0000 0.33242  0.08780  0.45649  Biso   1.000  O
  O18      1.0000 0.33242  0.41220  0.95649  Biso   1.000  O
  O19      1.0000 0.66758  0.91220  0.54351  Biso   1.000  O
  O20      1.0000 0.66758  0.58780  0.04351  Biso   1.000  O
  C1       1.0000 0.30933  0.89990  0.09405  Biso   1.000  C
  C2       1.0000 0.30933  0.60010  0.59405  Biso   1.000  C
  C3       1.0000 0.69067  0.10010  0.90595  Biso   1.000  C
  C4       1.0000 0.69067  0.39990  0.40595  Biso   1.000  C
  C5       1.0000 0.20958  0.77480  0.12841  Biso   1.000  C
  C6       1.0000 0.20958  0.72520  0.62841  Biso   1.000  C
  C7       1.0000 0.79042  0.22520  0.87159  Biso   1.000  C
  C8       1.0000 0.79042  0.27480  0.37159  Biso   1.000  C
  C9       1.0000 0.09169  0.78510  0.06290  Biso   1.000  C
  C10      1.0000 0.09169  0.71490  0.56290  Biso   1.000  C
  C11      1.0000 0.90831  0.21490  0.93710  Biso   1.000  C
  C12      1.0000 0.90831  0.28510  0.43710  Biso   1.000  C
  H1       1.0000 0.07620  0.86770  0.00020  Biso   1.000  H
  H2       1.0000 0.07620  0.63230  0.50020  Biso   1.000  H
  H3       1.0000 0.92380  0.13230  0.99980  Biso   1.000  H
  H4       1.0000 0.92380  0.36770  0.49980  Biso   1.000  H
  C13      1.0000 0.99660  0.67270  0.09060  Biso   1.000  C
  C14      1.0000 0.99660  0.82730  0.59060  Biso   1.000  C
  C15      1.0000 0.00340  0.32730  0.90940  Biso   1.000  C
  C16      1.0000 0.00340  0.17270  0.40940  Biso   1.000  C
  H5       1.0000 0.91770  0.68010  0.04640  Biso   1.000  H
  H6       1.0000 0.91770  0.81990  0.54640  Biso   1.000  H
  H7       1.0000 0.08230  0.31990  0.95360  Biso   1.000  H
  H8       1.0000 0.08230  0.18010  0.45360  Biso   1.000  H
  C17      1.0000 0.01900  0.55010  0.18360  Biso   1.000  C
  C18      1.0000 0.01900  0.94990  0.68360  Biso   1.000  C
  C19      1.0000 0.98100  0.44990  0.81640  Biso   1.000  C
  C20      1.0000 0.98100  0.05010  0.31640  Biso   1.000  C
  H9       1.0000 0.95490  0.47660  0.20280  Biso   1.000  H
  H10      1.0000 0.95490  0.02340  0.70280  Biso   1.000  H
  H11      1.0000 0.04510  0.52340  0.79720  Biso   1.000  H
  H12      1.0000 0.04510  0.97660  0.29720  Biso   1.000  H
  C21      1.0000 0.13650  0.53660  0.24800  Biso   1.000  C
  C22      1.0000 0.13650  0.96340  0.74800  Biso   1.000  C
  C23      1.0000 0.86350  0.46340  0.75200  Biso   1.000  C
  C24      1.0000 0.86350  0.03660  0.25200  Biso   1.000  C
  H13      1.0000 0.15160  0.45100  0.30960  Biso   1.000  H
  H14      1.0000 0.15160  0.04900  0.80960  Biso   1.000  H
  H15      1.0000 0.84840  0.54900  0.69040  Biso   1.000  H
  H16      1.0000 0.84840  0.95100  0.19040  Biso   1.000  H
  C25      1.0000 0.23281  0.64900  0.22229  Biso   1.000  C
  C26      1.0000 0.23281  0.85100  0.72229  Biso   1.000  C
  C27      1.0000 0.76719  0.35100  0.77771  Biso   1.000  C
  C28      1.0000 0.76719  0.14900  0.27771  Biso   1.000  C
  C29      1.0000 0.35844  0.64510  0.29775  Biso   1.000  C
  C30      1.0000 0.35844  0.85490  0.79775  Biso   1.000  C
  C31      1.0000 0.64156  0.35490  0.70225  Biso   1.000  C
  C32      1.0000 0.64156  0.14510  0.20225  Biso   1.000  C
  H17      1.0000 0.35200  0.97400  0.49400  Biso   1.000  H
  H18      1.0000 0.35200  0.52600  0.99400  Biso   1.000  H
  H19      1.0000 0.64800  0.02600  0.50600  Biso   1.000  H
  H20      1.0000 0.64800  0.47400  0.00600  Biso   1.000  H
  H21      1.0000 0.32400  0.17400  0.50960  Biso   1.000  H
  H22      1.0000 0.32400  0.32600  0.00960  Biso   1.000  H
  H23      1.0000 0.67600  0.82600  0.49040  Biso   1.000  H
  H24      1.0000 0.67600  0.67400  0.99040  Biso   1.000  H
