data_image0
_cell_length_a       11.019
_cell_length_b       6.844
_cell_length_c       21.424
_cell_angle_alpha    90
_cell_angle_beta     93.8
_cell_angle_gamma    90

_symmetry_space_group_name_H-M    "P 1"
_symmetry_int_tables_number       1

loop_
  _symmetry_equiv_pos_as_xyz
  'x, y, z'

loop_
  _atom_site_label
  _atom_site_occupancy
  _atom_site_fract_x
  _atom_site_fract_y
  _atom_site_fract_z
  _atom_site_thermal_displace_type
  _atom_site_B_iso_or_equiv
  _atom_site_type_symbol
  Cu1      1.0000 0.69288  0.74759  0.09669  Biso   1.000  Cu
  Cu2      1.0000 0.30712  0.24759  0.40331  Biso   1.000  Cu
  Cu3      1.0000 0.30712  0.25241  0.90331  Biso   1.000  Cu
  Cu4      1.0000 0.69288  0.75241  0.59669  Biso   1.000  Cu
  O1       1.0000 0.68170  0.70270  0.00478  Biso   1.000  O
  O2       1.0000 0.31830  0.20270  0.49522  Biso   1.000  O
  O3       1.0000 0.31830  0.29730  0.99522  Biso   1.000  O
  O4       1.0000 0.68170  0.79730  0.50478  Biso   1.000  O
  H1       1.0000 0.62100  0.75300  0.98470  Biso   1.000  H
  H2       1.0000 0.37900  0.25300  0.51530  Biso   1.000  H
  H3       1.0000 0.37900  0.24700  0.01530  Biso   1.000  H
  H4       1.0000 0.62100  0.74700  0.48470  Biso   1.000  H
  H5       1.0000 0.66400  0.58200  0.99920  Biso   1.000  H
  H6       1.0000 0.33600  0.08200  0.50080  Biso   1.000  H
  H7       1.0000 0.33600  0.41800  0.00080  Biso   1.000  H
  H8       1.0000 0.66400  0.91800  0.49920  Biso   1.000  H
  O5       1.0000 0.51440  0.79080  0.09459  Biso   1.000  O
  O6       1.0000 0.48560  0.29080  0.40541  Biso   1.000  O
  O7       1.0000 0.48560  0.20920  0.90541  Biso   1.000  O
  O8       1.0000 0.51440  0.70920  0.59459  Biso   1.000  O
  H9       1.0000 0.47400  0.75100  0.06600  Biso   1.000  H
  H10      1.0000 0.52600  0.25100  0.43400  Biso   1.000  H
  H11      1.0000 0.52600  0.24900  0.93400  Biso   1.000  H
  H12      1.0000 0.47400  0.74900  0.56600  Biso   1.000  H
  H13      1.0000 0.50900  0.89700  0.09240  Biso   1.000  H
  H14      1.0000 0.49100  0.39700  0.40760  Biso   1.000  H
  H15      1.0000 0.49100  0.10300  0.90760  Biso   1.000  H
  H16      1.0000 0.50900  0.60300  0.59240  Biso   1.000  H
  S1       1.0000 0.62869  0.24807  0.06551  Biso   1.000  S
  S2       1.0000 0.37131  0.74807  0.43449  Biso   1.000  S
  S3       1.0000 0.37131  0.75193  0.93449  Biso   1.000  S
  S4       1.0000 0.62869  0.25193  0.56551  Biso   1.000  S
  O9       1.0000 0.71900  0.09130  0.07439  Biso   1.000  O
  O10      1.0000 0.28100  0.59130  0.42561  Biso   1.000  O
  O11      1.0000 0.28100  0.90870  0.92561  Biso   1.000  O
  O12      1.0000 0.71900  0.40870  0.57439  Biso   1.000  O
  O13      1.0000 0.65090  0.40460  0.11151  Biso   1.000  O
  O14      1.0000 0.34910  0.90460  0.38849  Biso   1.000  O
  O15      1.0000 0.34910  0.59540  0.88849  Biso   1.000  O
  O16      1.0000 0.65090  0.09540  0.61151  Biso   1.000  O
  O17      1.0000 0.50510  0.16720  0.07181  Biso   1.000  O
  O18      1.0000 0.49490  0.66720  0.42819  Biso   1.000  O
  O19      1.0000 0.49490  0.83280  0.92819  Biso   1.000  O
  O20      1.0000 0.50510  0.33280  0.57181  Biso   1.000  O
  O21      1.0000 0.63340  0.32950  0.00161  Biso   1.000  O
  O22      1.0000 0.36660  0.82950  0.49839  Biso   1.000  O
  O23      1.0000 0.36660  0.67050  0.99839  Biso   1.000  O
  O24      1.0000 0.63340  0.17050  0.50161  Biso   1.000  O
  N1       1.0000 0.69650  0.81150  0.18864  Biso   1.000  N
  N2       1.0000 0.30350  0.31150  0.31136  Biso   1.000  N
  N3       1.0000 0.30350  0.18850  0.81136  Biso   1.000  N
  N4       1.0000 0.69650  0.68850  0.68864  Biso   1.000  N
  C1       1.0000 0.74230  0.98050  0.21138  Biso   1.000  C
  C2       1.0000 0.25770  0.48050  0.28862  Biso   1.000  C
  C3       1.0000 0.25770  0.01950  0.78862  Biso   1.000  C
  C4       1.0000 0.74230  0.51950  0.71138  Biso   1.000  C
  H17      1.0000 0.79160  0.05410  0.18680  Biso   1.000  H
  H18      1.0000 0.20840  0.55410  0.31320  Biso   1.000  H
  H19      1.0000 0.20840  0.94590  0.81320  Biso   1.000  H
  H20      1.0000 0.79160  0.44590  0.68680  Biso   1.000  H
  C5       1.0000 0.71880  0.05010  0.27038  Biso   1.000  C
  C6       1.0000 0.28120  0.55010  0.22962  Biso   1.000  C
  C7       1.0000 0.28120  0.94990  0.72962  Biso   1.000  C
  C8       1.0000 0.71880  0.44990  0.77038  Biso   1.000  C
  C9       1.0000 0.64560  0.93860  0.30652  Biso   1.000  C
  C10      1.0000 0.35440  0.43860  0.19348  Biso   1.000  C
  C11      1.0000 0.35440  0.06140  0.69348  Biso   1.000  C
  C12      1.0000 0.64560  0.56140  0.80652  Biso   1.000  C
  H21      1.0000 0.62640  0.98260  0.34570  Biso   1.000  H
  H22      1.0000 0.37360  0.48260  0.15430  Biso   1.000  H
  H23      1.0000 0.37360  0.01740  0.65430  Biso   1.000  H
  H24      1.0000 0.62640  0.51740  0.84570  Biso   1.000  H
  C13      1.0000 0.60140  0.76170  0.28390  Biso   1.000  C
  C14      1.0000 0.39860  0.26170  0.21610  Biso   1.000  C
  C15      1.0000 0.39860  0.23830  0.71610  Biso   1.000  C
  C16      1.0000 0.60140  0.73830  0.78390  Biso   1.000  C
  H25      1.0000 0.55370  0.68380  0.30800  Biso   1.000  H
  H26      1.0000 0.44630  0.18380  0.19200  Biso   1.000  H
  H27      1.0000 0.44630  0.31620  0.69200  Biso   1.000  H
  H28      1.0000 0.55370  0.81620  0.80800  Biso   1.000  H
  C17      1.0000 0.62900  0.70230  0.22527  Biso   1.000  C
  C18      1.0000 0.37100  0.20230  0.27473  Biso   1.000  C
  C19      1.0000 0.37100  0.29770  0.77473  Biso   1.000  C
  C20      1.0000 0.62900  0.79770  0.72527  Biso   1.000  C
  H29      1.0000 0.60000  0.58230  0.21040  Biso   1.000  H
  H30      1.0000 0.40000  0.08230  0.28960  Biso   1.000  H
  H31      1.0000 0.40000  0.41770  0.78960  Biso   1.000  H
  H32      1.0000 0.60000  0.91770  0.71040  Biso   1.000  H
  C21      1.0000 0.76970  0.24330  0.29299  Biso   1.000  C
  C22      1.0000 0.23030  0.74330  0.20701  Biso   1.000  C
  C23      1.0000 0.23030  0.75670  0.70701  Biso   1.000  C
  C24      1.0000 0.76970  0.25670  0.79299  Biso   1.000  C
  O25      1.0000 0.86150  0.31120  0.26794  Biso   1.000  O
  O26      1.0000 0.13850  0.81120  0.23206  Biso   1.000  O
  O27      1.0000 0.13850  0.68880  0.73206  Biso   1.000  O
  O28      1.0000 0.86150  0.18880  0.76794  Biso   1.000  O
  N5       1.0000 0.72100  0.32870  0.33645  Biso   1.000  N
  N6       1.0000 0.27900  0.82870  0.16355  Biso   1.000  N
  N7       1.0000 0.27900  0.67130  0.66355  Biso   1.000  N
  N8       1.0000 0.72100  0.17130  0.83645  Biso   1.000  N
  H33      1.0000 0.74990  0.43810  0.35040  Biso   1.000  H
  H34      1.0000 0.25010  0.93810  0.14960  Biso   1.000  H
  H35      1.0000 0.25010  0.56190  0.64960  Biso   1.000  H
  H36      1.0000 0.74990  0.06190  0.85040  Biso   1.000  H
  H37      1.0000 0.65870  0.27800  0.35230  Biso   1.000  H
  H38      1.0000 0.34130  0.77800  0.14770  Biso   1.000  H
  H39      1.0000 0.34130  0.72200  0.64770  Biso   1.000  H
  H40      1.0000 0.65870  0.22200  0.85230  Biso   1.000  H
  N9       1.0000 0.87130  0.68240  0.09562  Biso   1.000  N
  N10      1.0000 0.12870  0.18240  0.40438  Biso   1.000  N
  N11      1.0000 0.12870  0.31760  0.90438  Biso   1.000  N
  N12      1.0000 0.87130  0.81760  0.59562  Biso   1.000  N
  C25      1.0000 0.91640  0.51340  0.11910  Biso   1.000  C
  C26      1.0000 0.08360  0.01340  0.38090  Biso   1.000  C
  C27      1.0000 0.08360  0.48660  0.88090  Biso   1.000  C
  C28      1.0000 0.91640  0.98660  0.61910  Biso   1.000  C
  H41      1.0000 0.86860  0.43860  0.14410  Biso   1.000  H
  H42      1.0000 0.13140  0.93860  0.35590  Biso   1.000  H
  H43      1.0000 0.13140  0.56140  0.85590  Biso   1.000  H
  H44      1.0000 0.86860  0.06140  0.64410  Biso   1.000  H
  C29      1.0000 0.03160  0.44570  0.10750  Biso   1.000  C
  C30      1.0000 0.96840  0.94570  0.39250  Biso   1.000  C
  C31      1.0000 0.96840  0.55430  0.89250  Biso   1.000  C
  C32      1.0000 0.03160  0.05430  0.60750  Biso   1.000  C
  C33      1.0000 0.10200  0.56020  0.07110  Biso   1.000  C
  C34      1.0000 0.89800  0.06020  0.42890  Biso   1.000  C
  C35      1.0000 0.89800  0.43980  0.92890  Biso   1.000  C
  C36      1.0000 0.10200  0.93980  0.57110  Biso   1.000  C
  H45      1.0000 0.17890  0.51790  0.06160  Biso   1.000  H
  H46      1.0000 0.82110  0.01790  0.43840  Biso   1.000  H
  H47      1.0000 0.82110  0.48210  0.93840  Biso   1.000  H
  H48      1.0000 0.17890  0.98210  0.56160  Biso   1.000  H
  C37      1.0000 0.05830  0.73650  0.04890  Biso   1.000  C
  C38      1.0000 0.94170  0.23650  0.45110  Biso   1.000  C
  C39      1.0000 0.94170  0.26350  0.95110  Biso   1.000  C
  C40      1.0000 0.05830  0.76350  0.54890  Biso   1.000  C
  H49      1.0000 0.10590  0.81660  0.02540  Biso   1.000  H
  H50      1.0000 0.89410  0.31660  0.47460  Biso   1.000  H
  H51      1.0000 0.89410  0.18340  0.97460  Biso   1.000  H
  H52      1.0000 0.10590  0.68340  0.52540  Biso   1.000  H
  C41      1.0000 0.94300  0.79300  0.06220  Biso   1.000  C
  C42      1.0000 0.05700  0.29300  0.43780  Biso   1.000  C
  C43      1.0000 0.05700  0.20700  0.93780  Biso   1.000  C
  C44      1.0000 0.94300  0.70700  0.56220  Biso   1.000  C
  H53      1.0000 0.91380  0.91280  0.04730  Biso   1.000  H
  H54      1.0000 0.08620  0.41280  0.45270  Biso   1.000  H
  H55      1.0000 0.08620  0.08720  0.95270  Biso   1.000  H
  H56      1.0000 0.91380  0.58720  0.54730  Biso   1.000  H
  C45      1.0000 0.07740  0.25210  0.13220  Biso   1.000  C
  C46      1.0000 0.92260  0.75210  0.36780  Biso   1.000  C
  C47      1.0000 0.92260  0.74790  0.86780  Biso   1.000  C
  C48      1.0000 0.07740  0.24790  0.63220  Biso   1.000  C
  O29      1.0000 0.16240  0.16950  0.10572  Biso   1.000  O
  O30      1.0000 0.83760  0.66950  0.39428  Biso   1.000  O
  O31      1.0000 0.83760  0.83050  0.89428  Biso   1.000  O
  O32      1.0000 0.16240  0.33050  0.60572  Biso   1.000  O
  N13      1.0000 0.02980  0.17820  0.17854  Biso   1.000  N
  N14      1.0000 0.97020  0.67820  0.32146  Biso   1.000  N
  N15      1.0000 0.97020  0.82180  0.82146  Biso   1.000  N
  N16      1.0000 0.02980  0.32180  0.67854  Biso   1.000  N
  H57      1.0000 0.05510  0.06740  0.19320  Biso   1.000  H
  H58      1.0000 0.94490  0.56740  0.30680  Biso   1.000  H
  H59      1.0000 0.94490  0.93260  0.80680  Biso   1.000  H
  H60      1.0000 0.05510  0.43260  0.69320  Biso   1.000  H
  H61      1.0000 0.97200  0.23840  0.19550  Biso   1.000  H
  H62      1.0000 0.02800  0.73840  0.30450  Biso   1.000  H
  H63      1.0000 0.02800  0.76160  0.80450  Biso   1.000  H
  H64      1.0000 0.97200  0.26160  0.69550  Biso   1.000  H
