data_image0
_cell_length_a       10.093
_cell_length_b       24.961
_cell_length_c       11.638
_cell_angle_alpha    90
_cell_angle_beta     108.81
_cell_angle_gamma    90

_symmetry_space_group_name_H-M    "P 1"
_symmetry_int_tables_number       1

loop_
  _symmetry_equiv_pos_as_xyz
  'x, y, z'

loop_
  _atom_site_label
  _atom_site_occupancy
  _atom_site_fract_x
  _atom_site_fract_y
  _atom_site_fract_z
  _atom_site_thermal_displace_type
  _atom_site_B_iso_or_equiv
  _atom_site_type_symbol
  Cu1      1.0000 0.73204  0.22259  0.18114  Biso   1.000  Cu
  Cu2      1.0000 0.26796  0.72259  0.31886  Biso   1.000  Cu
  Cu3      1.0000 0.26796  0.77741  0.81886  Biso   1.000  Cu
  Cu4      1.0000 0.73204  0.27741  0.68114  Biso   1.000  Cu
  N1       1.0000 0.63680  0.15880  0.20770  Biso   1.000  N
  N2       1.0000 0.36320  0.65880  0.29230  Biso   1.000  N
  N3       1.0000 0.36320  0.84120  0.79230  Biso   1.000  N
  N4       1.0000 0.63680  0.34120  0.70770  Biso   1.000  N
  N5       1.0000 0.54810  0.24965  0.09330  Biso   1.000  N
  N6       1.0000 0.45190  0.74965  0.40670  Biso   1.000  N
  N7       1.0000 0.45190  0.75035  0.90670  Biso   1.000  N
  N8       1.0000 0.54810  0.25035  0.59330  Biso   1.000  N
  N9       1.0000 0.83610  0.28649  0.15510  Biso   1.000  N
  N10      1.0000 0.16390  0.78649  0.34490  Biso   1.000  N
  N11      1.0000 0.16390  0.71351  0.84490  Biso   1.000  N
  N12      1.0000 0.83610  0.21351  0.65510  Biso   1.000  N
  O1       1.0000 0.90570  0.19994  0.29350  Biso   1.000  O
  O2       1.0000 0.09430  0.69994  0.20650  Biso   1.000  O
  O3       1.0000 0.09430  0.80006  0.70650  Biso   1.000  O
  O4       1.0000 0.90570  0.30006  0.79350  Biso   1.000  O
  O5       1.0000 0.06080  0.15269  0.42970  Biso   1.000  O
  O6       1.0000 0.93920  0.65269  0.07030  Biso   1.000  O
  O7       1.0000 0.93920  0.84731  0.57030  Biso   1.000  O
  O8       1.0000 0.06080  0.34731  0.92970  Biso   1.000  O
  O9       1.0000 0.40630  0.13498  0.17910  Biso   1.000  O
  O10      1.0000 0.59370  0.63498  0.32090  Biso   1.000  O
  O11      1.0000 0.59370  0.86502  0.82090  Biso   1.000  O
  O12      1.0000 0.40630  0.36502  0.67910  Biso   1.000  O
  O13      1.0000 0.32100  0.21902  0.02930  Biso   1.000  O
  O14      1.0000 0.67900  0.71902  0.47070  Biso   1.000  O
  O15      1.0000 0.67900  0.78098  0.97070  Biso   1.000  O
  O16      1.0000 0.32100  0.28098  0.52930  Biso   1.000  O
  C1       1.0000 0.94060  0.15649  0.35230  Biso   1.000  C
  C2       1.0000 0.05940  0.65649  0.14770  Biso   1.000  C
  C3       1.0000 0.05940  0.84351  0.64770  Biso   1.000  C
  C4       1.0000 0.94060  0.34351  0.85230  Biso   1.000  C
  C5       1.0000 0.84490  0.10970  0.32870  Biso   1.000  C
  C6       1.0000 0.15510  0.60970  0.17130  Biso   1.000  C
  C7       1.0000 0.15510  0.89030  0.67130  Biso   1.000  C
  C8       1.0000 0.84490  0.39030  0.82870  Biso   1.000  C
  C9       1.0000 0.90430  0.06101  0.37710  Biso   1.000  C
  C10      1.0000 0.09570  0.56101  0.12290  Biso   1.000  C
  C11      1.0000 0.09570  0.93899  0.62290  Biso   1.000  C
  C12      1.0000 0.90430  0.43899  0.87710  Biso   1.000  C
  C13      1.0000 0.83180  0.01373  0.36070  Biso   1.000  C
  C14      1.0000 0.16820  0.51373  0.13930  Biso   1.000  C
  C15      1.0000 0.16820  0.98627  0.63930  Biso   1.000  C
  C16      1.0000 0.83180  0.48627  0.86070  Biso   1.000  C
  C17      1.0000 0.69250  0.01492  0.29420  Biso   1.000  C
  C18      1.0000 0.30750  0.51492  0.20580  Biso   1.000  C
  C19      1.0000 0.30750  0.98508  0.70580  Biso   1.000  C
  C20      1.0000 0.69250  0.48508  0.79420  Biso   1.000  C
  C21      1.0000 0.62690  0.06219  0.24580  Biso   1.000  C
  C22      1.0000 0.37310  0.56219  0.25420  Biso   1.000  C
  C23      1.0000 0.37310  0.93781  0.75420  Biso   1.000  C
  C24      1.0000 0.62690  0.43781  0.74580  Biso   1.000  C
  C25      1.0000 0.70050  0.11074  0.26130  Biso   1.000  C
  C26      1.0000 0.29950  0.61074  0.23870  Biso   1.000  C
  C27      1.0000 0.29950  0.88926  0.73870  Biso   1.000  C
  C28      1.0000 0.70050  0.38926  0.76130  Biso   1.000  C
  C29      1.0000 0.49840  0.16468  0.16540  Biso   1.000  C
  C30      1.0000 0.50160  0.66468  0.33460  Biso   1.000  C
  C31      1.0000 0.50160  0.83532  0.83460  Biso   1.000  C
  C32      1.0000 0.49840  0.33532  0.66540  Biso   1.000  C
  C33      1.0000 0.44970  0.21526  0.08890  Biso   1.000  C
  C34      1.0000 0.55030  0.71526  0.41110  Biso   1.000  C
  C35      1.0000 0.55030  0.78474  0.91110  Biso   1.000  C
  C36      1.0000 0.44970  0.28474  0.58890  Biso   1.000  C
  C37      1.0000 0.51120  0.29725  0.01630  Biso   1.000  C
  C38      1.0000 0.48880  0.79725  0.48370  Biso   1.000  C
  C39      1.0000 0.48880  0.70275  0.98370  Biso   1.000  C
  C40      1.0000 0.51120  0.20275  0.51630  Biso   1.000  C
  C41      1.0000 0.62510  0.33974  0.05360  Biso   1.000  C
  C42      1.0000 0.37490  0.83974  0.44640  Biso   1.000  C
  C43      1.0000 0.37490  0.66026  0.94640  Biso   1.000  C
  C44      1.0000 0.62510  0.16026  0.55360  Biso   1.000  C
  C45      1.0000 0.76570  0.32267  0.05260  Biso   1.000  C
  C46      1.0000 0.23430  0.82267  0.44740  Biso   1.000  C
  C47      1.0000 0.23430  0.67733  0.94740  Biso   1.000  C
  C48      1.0000 0.76570  0.17733  0.55260  Biso   1.000  C
  Cu5      1.0000 0.04942  0.06296  0.16852  Biso   1.000  Cu
  Cu6      1.0000 0.95058  0.56296  0.33148  Biso   1.000  Cu
  Cu7      1.0000 0.95058  0.93704  0.83148  Biso   1.000  Cu
  Cu8      1.0000 0.04942  0.43704  0.66852  Biso   1.000  Cu
  N13      1.0000 0.86520  0.04386  0.05990  Biso   1.000  N
  N14      1.0000 0.13480  0.54386  0.44010  Biso   1.000  N
  N15      1.0000 0.13480  0.95614  0.94010  Biso   1.000  N
  N16      1.0000 0.86520  0.45614  0.55990  Biso   1.000  N
  N17      1.0000 0.06810  0.98844  0.21070  Biso   1.000  N
  N18      1.0000 0.93190  0.48844  0.28930  Biso   1.000  N
  N19      1.0000 0.93190  0.01156  0.78930  Biso   1.000  N
  N20      1.0000 0.06810  0.51156  0.71070  Biso   1.000  N
  N21      1.0000 0.22300  0.08679  0.29890  Biso   1.000  N
  N22      1.0000 0.77700  0.58679  0.20110  Biso   1.000  N
  N23      1.0000 0.77700  0.91321  0.70110  Biso   1.000  N
  N24      1.0000 0.22300  0.41321  0.79890  Biso   1.000  N
  O17      1.0000 0.04620  0.13211  0.09410  Biso   1.000  O
  O18      1.0000 0.95380  0.63211  0.40590  Biso   1.000  O
  O19      1.0000 0.95380  0.86789  0.90590  Biso   1.000  O
  O20      1.0000 0.04620  0.36789  0.59410  Biso   1.000  O
  O21      1.0000 0.97630  0.19211  0.94930  Biso   1.000  O
  O22      1.0000 0.02370  0.69211  0.55070  Biso   1.000  O
  O23      1.0000 0.02370  0.80789  0.05070  Biso   1.000  O
  O24      1.0000 0.97630  0.30789  0.44930  Biso   1.000  O
  O25      1.0000 0.93740  0.91107  0.16880  Biso   1.000  O
  O26      1.0000 0.06260  0.41107  0.33120  Biso   1.000  O
  O27      1.0000 0.06260  0.08893  0.83120  Biso   1.000  O
  O28      1.0000 0.93740  0.58893  0.66880  Biso   1.000  O
  O29      1.0000 0.74590  0.96463  0.98630  Biso   1.000  O
  O30      1.0000 0.25410  0.46463  0.51370  Biso   1.000  O
  O31      1.0000 0.25410  0.03537  0.01370  Biso   1.000  O
  O32      1.0000 0.74590  0.53537  0.48630  Biso   1.000  O
  C49      1.0000 0.94970  0.15391  0.00590  Biso   1.000  C
  C50      1.0000 0.05030  0.65391  0.49410  Biso   1.000  C
  C51      1.0000 0.05030  0.84609  0.99410  Biso   1.000  C
  C52      1.0000 0.94970  0.34609  0.50590  Biso   1.000  C
  C53      1.0000 0.80320  0.13292  0.96940  Biso   1.000  C
  C54      1.0000 0.19680  0.63292  0.53060  Biso   1.000  C
  C55      1.0000 0.19680  0.86708  0.03060  Biso   1.000  C
  C56      1.0000 0.80320  0.36708  0.46940  Biso   1.000  C
  C57      1.0000 0.69820  0.16908  0.90540  Biso   1.000  C
  C58      1.0000 0.30180  0.66908  0.59460  Biso   1.000  C
  C59      1.0000 0.30180  0.83092  0.09460  Biso   1.000  C
  C60      1.0000 0.69820  0.33092  0.40540  Biso   1.000  C
  C61      1.0000 0.55960  0.15601  0.86570  Biso   1.000  C
  C62      1.0000 0.44040  0.65601  0.63430  Biso   1.000  C
  C63      1.0000 0.44040  0.84399  0.13430  Biso   1.000  C
  C64      1.0000 0.55960  0.34399  0.36570  Biso   1.000  C
  C65      1.0000 0.52040  0.10531  0.89020  Biso   1.000  C
  C66      1.0000 0.47960  0.60531  0.60980  Biso   1.000  C
  C67      1.0000 0.47960  0.89469  0.10980  Biso   1.000  C
  C68      1.0000 0.52040  0.39469  0.39020  Biso   1.000  C
  C69      1.0000 0.62090  0.06809  0.95070  Biso   1.000  C
  C70      1.0000 0.37910  0.56809  0.54930  Biso   1.000  C
  C71      1.0000 0.37910  0.93191  0.04930  Biso   1.000  C
  C72      1.0000 0.62090  0.43191  0.45070  Biso   1.000  C
  C73      1.0000 0.76400  0.08085  0.99190  Biso   1.000  C
  C74      1.0000 0.23600  0.58085  0.50810  Biso   1.000  C
  C75      1.0000 0.23600  0.91915  0.00810  Biso   1.000  C
  C76      1.0000 0.76400  0.41915  0.49190  Biso   1.000  C
  C77      1.0000 0.84310  0.99099  0.05640  Biso   1.000  C
  C78      1.0000 0.15690  0.49099  0.44360  Biso   1.000  C
  C79      1.0000 0.15690  0.00901  0.94360  Biso   1.000  C
  C80      1.0000 0.84310  0.50901  0.55640  Biso   1.000  C
  C81      1.0000 0.95780  0.96003  0.15310  Biso   1.000  C
  C82      1.0000 0.04220  0.46003  0.34690  Biso   1.000  C
  C83      1.0000 0.04220  0.03997  0.84690  Biso   1.000  C
  C84      1.0000 0.95780  0.53997  0.65310  Biso   1.000  C
  C85      1.0000 0.18400  0.96130  0.30160  Biso   1.000  C
  C86      1.0000 0.81600  0.46130  0.19840  Biso   1.000  C
  C87      1.0000 0.81600  0.03870  0.69840  Biso   1.000  C
  C88      1.0000 0.18400  0.53870  0.80160  Biso   1.000  C
  C89      1.0000 0.31620  0.99420  0.33270  Biso   1.000  C
  C90      1.0000 0.68380  0.49420  0.16730  Biso   1.000  C
  C91      1.0000 0.68380  0.00580  0.66730  Biso   1.000  C
  C92      1.0000 0.31620  0.50580  0.83270  Biso   1.000  C
  C93      1.0000 0.30790  0.04790  0.38950  Biso   1.000  C
  C94      1.0000 0.69210  0.54790  0.11050  Biso   1.000  C
  C95      1.0000 0.69210  0.95210  0.61050  Biso   1.000  C
  C96      1.0000 0.30790  0.45210  0.88950  Biso   1.000  C
  Na1      1.0000 0.22251  0.12939  0.99674  Biso   1.000  Na
  Na2      1.0000 0.77749  0.62939  0.50326  Biso   1.000  Na
  Na3      1.0000 0.77749  0.87061  0.00326  Biso   1.000  Na
  Na4      1.0000 0.22251  0.37061  0.49674  Biso   1.000  Na
  Na5      1.0000 0.12309  0.24436  0.40525  Biso   1.000  Na
  Na6      1.0000 0.87691  0.74436  0.09475  Biso   1.000  Na
  Na7      1.0000 0.87691  0.75564  0.59475  Biso   1.000  Na
  Na8      1.0000 0.12309  0.25564  0.90525  Biso   1.000  Na
  O33      1.0000 0.18050  0.14080  0.67840  Biso   1.000  O
  O34      1.0000 0.81950  0.64080  0.82160  Biso   1.000  O
  O35      1.0000 0.81950  0.85920  0.32160  Biso   1.000  O
  O36      1.0000 0.18050  0.35920  0.17840  Biso   1.000  O
  O37      1.0000 0.17360  0.24720  0.22600  Biso   1.000  O
  O38      1.0000 0.82640  0.74720  0.27400  Biso   1.000  O
  O39      1.0000 0.82640  0.75280  0.77400  Biso   1.000  O
  O40      1.0000 0.17360  0.25280  0.72600  Biso   1.000  O
  H1       1.0000 0.63700  0.98450  0.28400  Biso   1.000  H
  H2       1.0000 0.36300  0.48450  0.21600  Biso   1.000  H
  H3       1.0000 0.36300  0.01550  0.71600  Biso   1.000  H
  H4       1.0000 0.63700  0.51550  0.78400  Biso   1.000  H
  H5       1.0000 0.73000  0.20110  0.89100  Biso   1.000  H
  H6       1.0000 0.27000  0.70110  0.60900  Biso   1.000  H
  H7       1.0000 0.27000  0.79890  0.10900  Biso   1.000  H
  H8       1.0000 0.73000  0.29890  0.39100  Biso   1.000  H
  H9       1.0000 0.98000  0.06030  0.41000  Biso   1.000  H
  H10      1.0000 0.02000  0.56030  0.09000  Biso   1.000  H
  H11      1.0000 0.02000  0.93970  0.59000  Biso   1.000  H
  H12      1.0000 0.98000  0.43970  0.91000  Biso   1.000  H
  H13      1.0000 0.27500  0.10340  0.26800  Biso   1.000  H
  H14      1.0000 0.72500  0.60340  0.23200  Biso   1.000  H
  H15      1.0000 0.72500  0.89660  0.73200  Biso   1.000  H
  H16      1.0000 0.27500  0.39660  0.76800  Biso   1.000  H
  H17      1.0000 0.82200  0.35320  0.05400  Biso   1.000  H
  H18      1.0000 0.17800  0.85320  0.44600  Biso   1.000  H
  H19      1.0000 0.17800  0.64680  0.94600  Biso   1.000  H
  H20      1.0000 0.82200  0.14680  0.55400  Biso   1.000  H
  H21      1.0000 0.42800  0.09500  0.87100  Biso   1.000  H
  H22      1.0000 0.57200  0.59500  0.62900  Biso   1.000  H
  H23      1.0000 0.57200  0.90500  0.12900  Biso   1.000  H
  H24      1.0000 0.42800  0.40500  0.37100  Biso   1.000  H
  H25      1.0000 0.75000  0.30300  0.96700  Biso   1.000  H
  H26      1.0000 0.25000  0.80300  0.53300  Biso   1.000  H
  H27      1.0000 0.25000  0.69700  0.03300  Biso   1.000  H
  H28      1.0000 0.75000  0.19700  0.46700  Biso   1.000  H
  H29      1.0000 0.20500  0.92470  0.26600  Biso   1.000  H
  H30      1.0000 0.79500  0.42470  0.23400  Biso   1.000  H
  H31      1.0000 0.79500  0.07530  0.73400  Biso   1.000  H
  H32      1.0000 0.20500  0.57530  0.76600  Biso   1.000  H
  H33      1.0000 0.89300  0.27600  0.14000  Biso   1.000  H
  H34      1.0000 0.10700  0.77600  0.36000  Biso   1.000  H
  H35      1.0000 0.10700  0.72400  0.86000  Biso   1.000  H
  H36      1.0000 0.89300  0.22400  0.64000  Biso   1.000  H
  H37      1.0000 0.40900  0.06420  0.41900  Biso   1.000  H
  H38      1.0000 0.59100  0.56420  0.08100  Biso   1.000  H
  H39      1.0000 0.59100  0.93580  0.58100  Biso   1.000  H
  H40      1.0000 0.40900  0.43580  0.91900  Biso   1.000  H
  H41      1.0000 0.19800  0.11890  0.33400  Biso   1.000  H
  H42      1.0000 0.80200  0.61890  0.16600  Biso   1.000  H
  H43      1.0000 0.80200  0.88110  0.66600  Biso   1.000  H
  H44      1.0000 0.19800  0.38110  0.83400  Biso   1.000  H
  H45      1.0000 0.52700  0.06220  0.20200  Biso   1.000  H
  H46      1.0000 0.47300  0.56220  0.29800  Biso   1.000  H
  H47      1.0000 0.47300  0.93780  0.79800  Biso   1.000  H
  H48      1.0000 0.52700  0.43780  0.70200  Biso   1.000  H
  H49      1.0000 0.59200  0.03320  0.96500  Biso   1.000  H
  H50      1.0000 0.40800  0.53320  0.53500  Biso   1.000  H
  H51      1.0000 0.40800  0.96680  0.03500  Biso   1.000  H
  H52      1.0000 0.59200  0.46680  0.46500  Biso   1.000  H
  H53      1.0000 0.88100  0.98180  0.38500  Biso   1.000  H
  H54      1.0000 0.11900  0.48180  0.11500  Biso   1.000  H
  H55      1.0000 0.11900  0.01820  0.61500  Biso   1.000  H
  H56      1.0000 0.88100  0.51820  0.88500  Biso   1.000  H
  H57      1.0000 0.49300  0.18500  0.82200  Biso   1.000  H
  H58      1.0000 0.50700  0.68500  0.67800  Biso   1.000  H
  H59      1.0000 0.50700  0.81500  0.17800  Biso   1.000  H
  H60      1.0000 0.49300  0.31500  0.32200  Biso   1.000  H
  H61      1.0000 0.43900  0.31220  0.02500  Biso   1.000  H
  H62      1.0000 0.56100  0.81220  0.47500  Biso   1.000  H
  H63      1.0000 0.56100  0.68780  0.97500  Biso   1.000  H
  H64      1.0000 0.43900  0.18780  0.52500  Biso   1.000  H
  H65      1.0000 0.59700  0.36580  0.99600  Biso   1.000  H
  H66      1.0000 0.40300  0.86580  0.50400  Biso   1.000  H
  H67      1.0000 0.40300  0.63420  0.00400  Biso   1.000  H
  H68      1.0000 0.59700  0.13420  0.49600  Biso   1.000  H
  H69      1.0000 0.26800  0.04260  0.44400  Biso   1.000  H
  H70      1.0000 0.73200  0.54260  0.05600  Biso   1.000  H
  H71      1.0000 0.73200  0.95740  0.55600  Biso   1.000  H
  H72      1.0000 0.26800  0.45740  0.94400  Biso   1.000  H
  H73      1.0000 0.15600  0.95140  0.37400  Biso   1.000  H
  H74      1.0000 0.84400  0.45140  0.12600  Biso   1.000  H
  H75      1.0000 0.84400  0.04860  0.62600  Biso   1.000  H
  H76      1.0000 0.15600  0.54860  0.87400  Biso   1.000  H
  H77      1.0000 0.39100  0.97480  0.39300  Biso   1.000  H
  H78      1.0000 0.60900  0.47480  0.10700  Biso   1.000  H
  H79      1.0000 0.60900  0.02520  0.60700  Biso   1.000  H
  H80      1.0000 0.39100  0.52520  0.89300  Biso   1.000  H
  H81      1.0000 0.34600  0.99930  0.26700  Biso   1.000  H
  H82      1.0000 0.65400  0.49930  0.23300  Biso   1.000  H
  H83      1.0000 0.65400  0.00070  0.73300  Biso   1.000  H
  H84      1.0000 0.34600  0.50070  0.76700  Biso   1.000  H
  H85      1.0000 0.49500  0.29100  0.93600  Biso   1.000  H
  H86      1.0000 0.50500  0.79100  0.56400  Biso   1.000  H
  H87      1.0000 0.50500  0.70900  0.06400  Biso   1.000  H
  H88      1.0000 0.49500  0.20900  0.43600  Biso   1.000  H
  H89      1.0000 0.86000  0.30900  0.22100  Biso   1.000  H
  H90      1.0000 0.14000  0.80900  0.27900  Biso   1.000  H
  H91      1.0000 0.14000  0.69100  0.77900  Biso   1.000  H
  H92      1.0000 0.86000  0.19100  0.72100  Biso   1.000  H
  H93      1.0000 0.64800  0.35300  0.14100  Biso   1.000  H
  H94      1.0000 0.35200  0.85300  0.35900  Biso   1.000  H
  H95      1.0000 0.35200  0.64700  0.85900  Biso   1.000  H
  H96      1.0000 0.64800  0.14700  0.64100  Biso   1.000  H
