data_image0
_cell_length_a       9.7179
_cell_length_b       19.0631
_cell_length_c       7.5064
_cell_angle_alpha    90
_cell_angle_beta     94.853
_cell_angle_gamma    90

_symmetry_space_group_name_H-M    "P 1"
_symmetry_int_tables_number       1

loop_
  _symmetry_equiv_pos_as_xyz
  'x, y, z'

loop_
  _atom_site_label
  _atom_site_occupancy
  _atom_site_fract_x
  _atom_site_fract_y
  _atom_site_fract_z
  _atom_site_thermal_displace_type
  _atom_site_B_iso_or_equiv
  _atom_site_type_symbol
  Cu1      1.0000 0.27326  0.16815  0.18302  Biso   1.000  Cu
  Cu2      1.0000 0.72674  0.66815  0.31698  Biso   1.000  Cu
  Cu3      1.0000 0.72674  0.83185  0.81698  Biso   1.000  Cu
  Cu4      1.0000 0.27326  0.33185  0.68302  Biso   1.000  Cu
  N1       1.0000 0.21990  0.09892  0.99160  Biso   1.000  N
  N2       1.0000 0.78010  0.59892  0.50840  Biso   1.000  N
  N3       1.0000 0.78010  0.90108  0.00840  Biso   1.000  N
  N4       1.0000 0.21990  0.40108  0.49160  Biso   1.000  N
  N5       1.0000 0.08480  0.15747  0.27150  Biso   1.000  N
  N6       1.0000 0.91520  0.65747  0.22850  Biso   1.000  N
  N7       1.0000 0.91520  0.84253  0.72850  Biso   1.000  N
  N8       1.0000 0.08480  0.34253  0.77150  Biso   1.000  N
  C1       1.0000 0.97150  0.14868  0.16150  Biso   1.000  C
  C2       1.0000 0.02850  0.64868  0.33850  Biso   1.000  C
  C3       1.0000 0.02850  0.85132  0.83850  Biso   1.000  C
  C4       1.0000 0.97150  0.35132  0.66150  Biso   1.000  C
  C5       1.0000 0.06780  0.17402  0.44530  Biso   1.000  C
  C6       1.0000 0.93220  0.67402  0.05470  Biso   1.000  C
  C7       1.0000 0.93220  0.82598  0.55470  Biso   1.000  C
  C8       1.0000 0.06780  0.32598  0.94530  Biso   1.000  C
  C9       1.0000 0.32240  0.06180  0.92260  Biso   1.000  C
  C10      1.0000 0.67760  0.56180  0.57740  Biso   1.000  C
  C11      1.0000 0.67760  0.93820  0.07740  Biso   1.000  C
  C12      1.0000 0.32240  0.43820  0.42260  Biso   1.000  C
  N9       1.0000 0.98310  0.12517  0.98970  Biso   1.000  N
  N10      1.0000 0.01690  0.62517  0.51030  Biso   1.000  N
  N11      1.0000 0.01690  0.87483  0.01030  Biso   1.000  N
  N12      1.0000 0.98310  0.37483  0.48970  Biso   1.000  N
  C13      1.0000 0.83890  0.16330  0.21440  Biso   1.000  C
  C14      1.0000 0.16110  0.66330  0.28560  Biso   1.000  C
  C15      1.0000 0.16110  0.83670  0.78560  Biso   1.000  C
  C16      1.0000 0.83890  0.33670  0.71440  Biso   1.000  C
  C17      1.0000 0.09040  0.08882  0.92140  Biso   1.000  C
  C18      1.0000 0.90960  0.58882  0.57860  Biso   1.000  C
  C19      1.0000 0.90960  0.91118  0.07860  Biso   1.000  C
  C20      1.0000 0.09040  0.41118  0.42140  Biso   1.000  C
  C21      1.0000 0.29770  0.01710  0.78080  Biso   1.000  C
  C22      1.0000 0.70230  0.51710  0.71920  Biso   1.000  C
  C23      1.0000 0.70230  0.98290  0.21920  Biso   1.000  C
  C24      1.0000 0.29770  0.48290  0.28080  Biso   1.000  C
  C25      1.0000 0.94150  0.18506  0.50660  Biso   1.000  C
  C26      1.0000 0.05850  0.68506  0.99340  Biso   1.000  C
  C27      1.0000 0.05850  0.81494  0.49340  Biso   1.000  C
  C28      1.0000 0.94150  0.31494  0.00660  Biso   1.000  C
  C29      1.0000 0.82630  0.18240  0.38810  Biso   1.000  C
  C30      1.0000 0.17370  0.68240  0.11190  Biso   1.000  C
  C31      1.0000 0.17370  0.81760  0.61190  Biso   1.000  C
  C32      1.0000 0.82630  0.31760  0.88810  Biso   1.000  C
  C33      1.0000 0.16460  0.00880  0.70590  Biso   1.000  C
  C34      1.0000 0.83540  0.50880  0.79410  Biso   1.000  C
  C35      1.0000 0.83540  0.99120  0.29410  Biso   1.000  C
  C36      1.0000 0.16460  0.49120  0.20590  Biso   1.000  C
  C37      1.0000 0.05950  0.04390  0.77640  Biso   1.000  C
  C38      1.0000 0.94050  0.54390  0.72360  Biso   1.000  C
  C39      1.0000 0.94050  0.95610  0.22360  Biso   1.000  C
  C40      1.0000 0.05950  0.45610  0.27640  Biso   1.000  C
  O1       1.0000 0.43810  0.19641  0.06390  Biso   1.000  O
  O2       1.0000 0.56190  0.69641  0.43610  Biso   1.000  O
  O3       1.0000 0.56190  0.80359  0.93610  Biso   1.000  O
  O4       1.0000 0.43810  0.30359  0.56390  Biso   1.000  O
  O5       1.0000 0.30740  0.25664  0.86220  Biso   1.000  O
  O6       1.0000 0.69260  0.75664  0.63780  Biso   1.000  O
  O7       1.0000 0.69260  0.74336  0.13780  Biso   1.000  O
  O8       1.0000 0.30740  0.24336  0.36220  Biso   1.000  O
  O9       1.0000 0.38100  0.08520  0.34930  Biso   1.000  O
  O10      1.0000 0.61900  0.58520  0.15070  Biso   1.000  O
  O11      1.0000 0.61900  0.91480  0.65070  Biso   1.000  O
  O12      1.0000 0.38100  0.41480  0.84930  Biso   1.000  O
  C41      1.0000 0.42110  0.23496  0.93000  Biso   1.000  C
  C42      1.0000 0.57890  0.73496  0.57000  Biso   1.000  C
  C43      1.0000 0.57890  0.76504  0.07000  Biso   1.000  C
  C44      1.0000 0.42110  0.26504  0.43000  Biso   1.000  C
  N13      1.0000 0.65880  0.10260  0.71360  Biso   1.000  N
  N14      1.0000 0.34120  0.60260  0.78640  Biso   1.000  N
  N15      1.0000 0.34120  0.89740  0.28640  Biso   1.000  N
  N16      1.0000 0.65880  0.39740  0.21360  Biso   1.000  N
  O13      1.0000 0.67280  0.15710  0.75040  Biso   1.000  O
  O14      1.0000 0.32720  0.65710  0.74960  Biso   1.000  O
  O15      1.0000 0.32720  0.84290  0.24960  Biso   1.000  O
  O16      1.0000 0.67280  0.34290  0.25040  Biso   1.000  O
  O17      1.0000 0.71940  0.15340  0.81170  Biso   1.000  O
  O18      1.0000 0.28060  0.65340  0.68830  Biso   1.000  O
  O19      1.0000 0.28060  0.84660  0.18830  Biso   1.000  O
  O20      1.0000 0.71940  0.34660  0.31170  Biso   1.000  O
  O21      1.0000 0.59300  0.07490  0.58720  Biso   1.000  O
  O22      1.0000 0.40700  0.57490  0.91280  Biso   1.000  O
  O23      1.0000 0.40700  0.92510  0.41280  Biso   1.000  O
  O24      1.0000 0.59300  0.42510  0.08720  Biso   1.000  O
  O25      1.0000 0.54040  0.13000  0.64760  Biso   1.000  O
  O26      1.0000 0.45960  0.63000  0.85240  Biso   1.000  O
  O27      1.0000 0.45960  0.87000  0.35240  Biso   1.000  O
  O28      1.0000 0.54040  0.37000  0.14760  Biso   1.000  O
  O29      1.0000 0.72800  0.05570  0.79430  Biso   1.000  O
  O30      1.0000 0.27200  0.55570  0.70570  Biso   1.000  O
  O31      1.0000 0.27200  0.94430  0.20570  Biso   1.000  O
  O32      1.0000 0.72800  0.44430  0.29430  Biso   1.000  O
  O33      1.0000 0.71030  0.05340  0.68000  Biso   1.000  O
  O34      1.0000 0.28970  0.55340  0.82000  Biso   1.000  O
  O35      1.0000 0.28970  0.94660  0.32000  Biso   1.000  O
  O36      1.0000 0.71030  0.44660  0.18000  Biso   1.000  O
  H1       1.0000 0.42400  0.09200  0.42300  Biso   1.000  H
  H2       1.0000 0.57600  0.59200  0.07700  Biso   1.000  H
  H3       1.0000 0.57600  0.90800  0.57700  Biso   1.000  H
  H4       1.0000 0.42400  0.40800  0.92300  Biso   1.000  H
  H5       1.0000 0.76600  0.15260  0.13100  Biso   1.000  H
  H6       1.0000 0.23400  0.65260  0.36900  Biso   1.000  H
  H7       1.0000 0.23400  0.84740  0.86900  Biso   1.000  H
  H8       1.0000 0.76600  0.34740  0.63100  Biso   1.000  H
  H9       1.0000 0.50200  0.24690  0.87700  Biso   1.000  H
  H10      1.0000 0.49800  0.74690  0.62300  Biso   1.000  H
  H11      1.0000 0.49800  0.75310  0.12300  Biso   1.000  H
  H12      1.0000 0.50200  0.25310  0.37700  Biso   1.000  H
  H13      1.0000 0.41800  0.07030  0.98500  Biso   1.000  H
  H14      1.0000 0.58200  0.57030  0.51500  Biso   1.000  H
  H15      1.0000 0.58200  0.92970  0.01500  Biso   1.000  H
  H16      1.0000 0.41800  0.42970  0.48500  Biso   1.000  H
  H17      1.0000 0.37300  0.99300  0.74400  Biso   1.000  H
  H18      1.0000 0.62700  0.49300  0.75600  Biso   1.000  H
  H19      1.0000 0.62700  0.00700  0.25600  Biso   1.000  H
  H20      1.0000 0.37300  0.50700  0.24400  Biso   1.000  H
  H21      1.0000 0.93100  0.19800  0.63200  Biso   1.000  H
  H22      1.0000 0.06900  0.69800  0.86800  Biso   1.000  H
  H23      1.0000 0.06900  0.80200  0.36800  Biso   1.000  H
  H24      1.0000 0.93100  0.30200  0.13200  Biso   1.000  H
  H25      1.0000 0.96600  0.04200  0.73000  Biso   1.000  H
  H26      1.0000 0.03400  0.54200  0.77000  Biso   1.000  H
  H27      1.0000 0.03400  0.95800  0.27000  Biso   1.000  H
  H28      1.0000 0.96600  0.45800  0.23000  Biso   1.000  H
  H29      1.0000 0.73200  0.19200  0.43200  Biso   1.000  H
  H30      1.0000 0.26800  0.69200  0.06800  Biso   1.000  H
  H31      1.0000 0.26800  0.80800  0.56800  Biso   1.000  H
  H32      1.0000 0.73200  0.30800  0.93200  Biso   1.000  H
  H33      1.0000 0.14600  0.98000  0.60600  Biso   1.000  H
  H34      1.0000 0.85400  0.48000  0.89400  Biso   1.000  H
  H35      1.0000 0.85400  0.02000  0.39400  Biso   1.000  H
  H36      1.0000 0.14600  0.52000  0.10600  Biso   1.000  H
  H37      1.0000 0.15200  0.17970  0.51600  Biso   1.000  H
  H38      1.0000 0.84800  0.67970  0.98400  Biso   1.000  H
  H39      1.0000 0.84800  0.82030  0.48400  Biso   1.000  H
  H40      1.0000 0.15200  0.32030  0.01600  Biso   1.000  H
  H41      1.0000 0.91400  0.12100  0.93700  Biso   1.000  H
  H42      1.0000 0.08600  0.62100  0.56300  Biso   1.000  H
  H43      1.0000 0.08600  0.87900  0.06300  Biso   1.000  H
  H44      1.0000 0.91400  0.37900  0.43700  Biso   1.000  H
  H45      1.0000 0.36400  0.04300  0.35100  Biso   1.000  H
  H46      1.0000 0.63600  0.54300  0.14900  Biso   1.000  H
  H47      1.0000 0.63600  0.95700  0.64900  Biso   1.000  H
  H48      1.0000 0.36400  0.45700  0.85100  Biso   1.000  H
