data_image0
_cell_length_a       11.7066
_cell_length_b       12.6984
_cell_length_c       13.6077
_cell_angle_alpha    71.836
_cell_angle_beta     85.232
_cell_angle_gamma    81.455

_symmetry_space_group_name_H-M    "P 1"
_symmetry_int_tables_number       1

loop_
  _symmetry_equiv_pos_as_xyz
  'x, y, z'

loop_
  _atom_site_label
  _atom_site_occupancy
  _atom_site_fract_x
  _atom_site_fract_y
  _atom_site_fract_z
  _atom_site_thermal_displace_type
  _atom_site_B_iso_or_equiv
  _atom_site_type_symbol
  C1       1.0000 0.46160  0.02640  0.81800  Biso   1.000  C
  C2       1.0000 0.53840  0.97360  0.18200  Biso   1.000  C
  H1       1.0000 0.51040  0.95950  0.84060  Biso   1.000  H
  H2       1.0000 0.48960  0.04050  0.15940  Biso   1.000  H
  C3       1.0000 0.47980  0.12370  0.82870  Biso   1.000  C
  C4       1.0000 0.52020  0.87630  0.17130  Biso   1.000  C
  H3       1.0000 0.54490  0.13030  0.86010  Biso   1.000  H
  H4       1.0000 0.45510  0.86970  0.13990  Biso   1.000  H
  C5       1.0000 0.00290  0.30430  0.89950  Biso   1.000  C
  C6       1.0000 0.99710  0.69570  0.10050  Biso   1.000  C
  H5       1.0000 0.97380  0.28280  0.84820  Biso   1.000  H
  H6       1.0000 0.02620  0.71720  0.15180  Biso   1.000  H
  N1       1.0000 0.09560  0.36460  0.88030  Biso   1.000  N
  N2       1.0000 0.90440  0.63540  0.11970  Biso   1.000  N
  Na1      1.0000 0.74989  0.73363  0.72840  Biso   1.000  Na
  Na2      1.0000 0.25011  0.26637  0.27160  Biso   1.000  Na
  O1       1.0000 0.74920  0.92030  0.69550  Biso   1.000  O
  O2       1.0000 0.25080  0.07970  0.30450  Biso   1.000  O
  S1       1.0000 0.77020  0.01299  0.60190  Biso   1.000  S
  S2       1.0000 0.22980  0.98701  0.39810  Biso   1.000  S
  C7       1.0000 0.67850  0.12950  0.61120  Biso   1.000  C
  C8       1.0000 0.32150  0.87050  0.38880  Biso   1.000  C
  H7       1.0000 0.69000  0.19170  0.55110  Biso   1.000  H
  H8       1.0000 0.31000  0.80830  0.44890  Biso   1.000  H
  H9       1.0000 0.59980  0.11480  0.61560  Biso   1.000  H
  H10      1.0000 0.40020  0.88520  0.38440  Biso   1.000  H
  H11      1.0000 0.69470  0.14680  0.67200  Biso   1.000  H
  H12      1.0000 0.30530  0.85320  0.32800  Biso   1.000  H
  C9       1.0000 0.69980  0.98340  0.51300  Biso   1.000  C
  C10      1.0000 0.30020  0.01660  0.48700  Biso   1.000  C
  H13      1.0000 0.70750  0.03930  0.44730  Biso   1.000  H
  H14      1.0000 0.29250  0.96070  0.55270  Biso   1.000  H
  H15      1.0000 0.73220  0.91150  0.50720  Biso   1.000  H
  H16      1.0000 0.26780  0.08850  0.49280  Biso   1.000  H
  H17      1.0000 0.61950  0.98260  0.53380  Biso   1.000  H
  H18      1.0000 0.38050  0.01740  0.46620  Biso   1.000  H
  H19      1.0000 0.34800  0.39300  0.77000  Biso   1.000  H
  H20      1.0000 0.65200  0.60700  0.23000  Biso   1.000  H
  C11      1.0000 0.95260  0.48570  0.62920  Biso   1.000  C
  C12      1.0000 0.04740  0.51430  0.37080  Biso   1.000  C
  C13      1.0000 0.85310  0.47270  0.58860  Biso   1.000  C
  C14      1.0000 0.14690  0.52730  0.41140  Biso   1.000  C
  H21      1.0000 0.79190  0.53020  0.57290  Biso   1.000  H
  H22      1.0000 0.20810  0.46980  0.42710  Biso   1.000  H
  C15      1.0000 0.84730  0.37180  0.57190  Biso   1.000  C
  C16      1.0000 0.15270  0.62820  0.42810  Biso   1.000  C
  H23      1.0000 0.78140  0.36110  0.54430  Biso   1.000  H
  H24      1.0000 0.21860  0.63890  0.45570  Biso   1.000  H
  C17      1.0000 0.93830  0.28660  0.59550  Biso   1.000  C
  C18      1.0000 0.06170  0.71340  0.40450  Biso   1.000  C
  H25      1.0000 0.93480  0.21860  0.58410  Biso   1.000  H
  H26      1.0000 0.06520  0.78140  0.41590  Biso   1.000  H
  C19      1.0000 0.03430  0.30520  0.63660  Biso   1.000  C
  C20      1.0000 0.96570  0.69480  0.36340  Biso   1.000  C
  C21      1.0000 0.13810  0.22010  0.67030  Biso   1.000  C
  C22      1.0000 0.86190  0.77990  0.32970  Biso   1.000  C
  C23      1.0000 0.31370  0.18380  0.75110  Biso   1.000  C
  C24      1.0000 0.68630  0.81620  0.24890  Biso   1.000  C
  C25      1.0000 0.97480  0.59070  0.64600  Biso   1.000  C
  C26      1.0000 0.02520  0.40930  0.35400  Biso   1.000  C
  C27      1.0000 0.10920  0.67600  0.70120  Biso   1.000  C
  C28      1.0000 0.89080  0.32400  0.29880  Biso   1.000  C
  C29      1.0000 0.21050  0.77890  0.75650  Biso   1.000  C
  C30      1.0000 0.78950  0.22110  0.24350  Biso   1.000  C
  H27      1.0000 0.26950  0.79160  0.79150  Biso   1.000  H
  H28      1.0000 0.73050  0.20840  0.20850  Biso   1.000  H
  C31      1.0000 0.13210  0.86210  0.70570  Biso   1.000  C
  C32      1.0000 0.86790  0.13790  0.29430  Biso   1.000  C
  H29      1.0000 0.13120  0.93710  0.70010  Biso   1.000  H
  H30      1.0000 0.86880  0.06290  0.29990  Biso   1.000  H
  C33      1.0000 0.44150  0.64450  0.94470  Biso   1.000  C
  C34      1.0000 0.55850  0.35550  0.05530  Biso   1.000  C
  C35      1.0000 0.47040  0.68060  0.02370  Biso   1.000  C
  C36      1.0000 0.52960  0.31940  0.97630  Biso   1.000  C
  H31      1.0000 0.52860  0.72580  0.01380  Biso   1.000  H
  H32      1.0000 0.47140  0.27420  0.98620  Biso   1.000  H
  C37      1.0000 0.41110  0.64840  0.11800  Biso   1.000  C
  C38      1.0000 0.58890  0.35160  0.88200  Biso   1.000  C
  H33      1.0000 0.42780  0.67330  0.17200  Biso   1.000  H
  H34      1.0000 0.57220  0.32670  0.82800  Biso   1.000  H
  C39      1.0000 0.32720  0.57920  0.13210  Biso   1.000  C
  C40      1.0000 0.67280  0.42080  0.86790  Biso   1.000  C
  H35      1.0000 0.28770  0.55550  0.19560  Biso   1.000  H
  H36      1.0000 0.71230  0.44450  0.80440  Biso   1.000  H
  C41      1.0000 0.30320  0.54590  0.04990  Biso   1.000  C
  C42      1.0000 0.69680  0.45410  0.95010  Biso   1.000  C
  C43      1.0000 0.21810  0.46690  0.05610  Biso   1.000  C
  C44      1.0000 0.78190  0.53310  0.94390  Biso   1.000  C
  C45      1.0000 0.12010  0.38560  0.96390  Biso   1.000  C
  C46      1.0000 0.87990  0.61440  0.03610  Biso   1.000  C
  C47      1.0000 0.95760  0.27880  0.99590  Biso   1.000  C
  C48      1.0000 0.04240  0.72120  0.00410  Biso   1.000  C
  H37      1.0000 0.89510  0.23880  0.01900  Biso   1.000  H
  H38      1.0000 0.10490  0.76120  0.98100  Biso   1.000  H
  C49      1.0000 0.50210  0.67040  0.83930  Biso   1.000  C
  C50      1.0000 0.49790  0.32960  0.16070  Biso   1.000  C
  C51      1.0000 0.50800  0.64050  0.67740  Biso   1.000  C
  C52      1.0000 0.49200  0.35950  0.32260  Biso   1.000  C
  C53      1.0000 0.54260  0.65110  0.49640  Biso   1.000  C
  C54      1.0000 0.45740  0.34890  0.50360  Biso   1.000  C
  H39      1.0000 0.54490  0.64980  0.42830  Biso   1.000  H
  H40      1.0000 0.45510  0.35020  0.57170  Biso   1.000  H
  C55      1.0000 0.61480  0.69630  0.53460  Biso   1.000  C
  C56      1.0000 0.38520  0.30370  0.46540  Biso   1.000  C
  H41      1.0000 0.67440  0.73130  0.49410  Biso   1.000  H
  H42      1.0000 0.32560  0.26870  0.50590  Biso   1.000  H
  Cu1      1.0000 0.17080  0.41979  0.72216  Biso   1.000  Cu
  Cu2      1.0000 0.82920  0.58021  0.27784  Biso   1.000  Cu
  Cu3      1.0000 0.31804  0.53085  0.84524  Biso   1.000  Cu
  Cu4      1.0000 0.68196  0.46915  0.15476  Biso   1.000  Cu
  N3       1.0000 0.07900  0.58280  0.68510  Biso   1.000  N
  N4       1.0000 0.92100  0.41720  0.31490  Biso   1.000  N
  N5       1.0000 0.03940  0.40280  0.65280  Biso   1.000  N
  N6       1.0000 0.96060  0.59720  0.34720  Biso   1.000  N
  N7       1.0000 0.21890  0.25800  0.71010  Biso   1.000  N
  N8       1.0000 0.78110  0.74200  0.28990  Biso   1.000  N
  N9       1.0000 0.39710  0.21340  0.79090  Biso   1.000  N
  N10      1.0000 0.60290  0.78660  0.20910  Biso   1.000  N
  N11      1.0000 0.19850  0.67370  0.75390  Biso   1.000  N
  N12      1.0000 0.80150  0.32630  0.24610  Biso   1.000  N
  N13      1.0000 0.46180  0.62140  0.77710  Biso   1.000  N
  N14      1.0000 0.53820  0.37860  0.22290  Biso   1.000  N
  N15      1.0000 0.35790  0.58030  0.95780  Biso   1.000  N
  N16      1.0000 0.64210  0.41970  0.04220  Biso   1.000  N
  N17      1.0000 0.20540  0.44850  0.96580  Biso   1.000  N
  N18      1.0000 0.79460  0.55150  0.03420  Biso   1.000  N
  N19      1.0000 0.59840  0.68960  0.63640  Biso   1.000  N
  N20      1.0000 0.40160  0.31040  0.36360  Biso   1.000  N
  O3       1.0000 0.90080  0.67470  0.62217  Biso   1.000  O
  O4       1.0000 0.09920  0.32530  0.37783  Biso   1.000  O
  O5       1.0000 0.14060  0.12620  0.66080  Biso   1.000  O
  O6       1.0000 0.85940  0.87380  0.33920  Biso   1.000  O
  O7       1.0000 0.57990  0.72990  0.82410  Biso   1.000  O
  O8       1.0000 0.42010  0.27010  0.17590  Biso   1.000  O
  O9       1.0000 0.16820  0.42600  0.14060  Biso   1.000  O
  O10      1.0000 0.83180  0.57400  0.85940  Biso   1.000  O
  O11      1.0000 0.31620  0.44530  0.75430  Biso   1.000  O
  O12      1.0000 0.68380  0.55470  0.24570  Biso   1.000  O
  S3       1.0000 0.02998  0.32985  0.07100  Biso   1.000  S
  S4       1.0000 0.97002  0.67015  0.92900  Biso   1.000  S
  S5       1.0000 0.44364  0.59508  0.59044  Biso   1.000  S
  S6       1.0000 0.55636  0.40492  0.40956  Biso   1.000  S
  S7       1.0000 0.03412  0.81023  0.65261  Biso   1.000  S
  S8       1.0000 0.96588  0.18977  0.34739  Biso   1.000  S
  S9       1.0000 0.33516  0.04311  0.75669  Biso   1.000  S
  S10      1.0000 0.66484  0.95689  0.24331  Biso   1.000  S
  H43      1.0000 0.65270  0.03280  0.45860  Biso   1.000  H
  H44      1.0000 0.34730  0.96720  0.54140  Biso   1.000  H
  H45      1.0000 0.77950  0.99390  0.49620  Biso   1.000  H
  H46      1.0000 0.22050  0.00610  0.50380  Biso   1.000  H
  H47      1.0000 0.69040  0.90740  0.52060  Biso   1.000  H
  H48      1.0000 0.30960  0.09260  0.47940  Biso   1.000  H
  S11      1.0000 0.66010  0.01110  0.62220  Biso   1.000  S
  S12      1.0000 0.33990  0.98890  0.37780  Biso   1.000  S
  C57      1.0000 0.71500  0.13000  0.55500  Biso   1.000  C
  C58      1.0000 0.28500  0.87000  0.44500  Biso   1.000  C
  H49      1.0000 0.65630  0.18090  0.51290  Biso   1.000  H
  H50      1.0000 0.34370  0.81910  0.48710  Biso   1.000  H
  H51      1.0000 0.73910  0.16360  0.60310  Biso   1.000  H
  H52      1.0000 0.26090  0.83640  0.39690  Biso   1.000  H
  H53      1.0000 0.77960  0.11310  0.51250  Biso   1.000  H
  H54      1.0000 0.22040  0.88690  0.48750  Biso   1.000  H
  C59      1.0000 0.75180  0.93200  0.95660  Biso   1.000  C
  C60      1.0000 0.24820  0.06800  0.04340  Biso   1.000  C
  H55      1.0000 0.79680  0.86660  0.99900  Biso   1.000  H
  H56      1.0000 0.20320  0.13340  0.00100  Biso   1.000  H
  H57      1.0000 0.67920  0.94540  0.99190  Biso   1.000  H
  H58      1.0000 0.32080  0.05460  0.00810  Biso   1.000  H
  H59      1.0000 0.73810  0.92080  0.89220  Biso   1.000  H
  H60      1.0000 0.26190  0.07920  0.10780  Biso   1.000  H
  C61      1.0000 0.93580  0.00960  0.85060  Biso   1.000  C
  C62      1.0000 0.06420  0.99040  0.14940  Biso   1.000  C
  H61      1.0000 0.98390  0.94410  0.88920  Biso   1.000  H
  H62      1.0000 0.01610  0.05590  0.11080  Biso   1.000  H
  H63      1.0000 0.90150  0.99360  0.79610  Biso   1.000  H
  H64      1.0000 0.09850  0.00640  0.20390  Biso   1.000  H
  H65      1.0000 0.98190  0.06930  0.82140  Biso   1.000  H
  H66      1.0000 0.01810  0.93070  0.17860  Biso   1.000  H
  O13      1.0000 0.76060  0.14660  0.86890  Biso   1.000  O
  O14      1.0000 0.23940  0.85340  0.13110  Biso   1.000  O
  S13      1.0000 0.82795  0.04889  0.93220  Biso   1.000  S
  S14      1.0000 0.17205  0.95111  0.06780  Biso   1.000  S
