data_image0
_cell_length_a       15.9769
_cell_length_b       15.9769
_cell_length_c       23.5446
_cell_angle_alpha    90
_cell_angle_beta     90
_cell_angle_gamma    90

_symmetry_space_group_name_H-M    "P 1"
_symmetry_int_tables_number       1

loop_
  _symmetry_equiv_pos_as_xyz
  'x, y, z'

loop_
  _atom_site_label
  _atom_site_occupancy
  _atom_site_fract_x
  _atom_site_fract_y
  _atom_site_fract_z
  _atom_site_thermal_displace_type
  _atom_site_B_iso_or_equiv
  _atom_site_type_symbol
  O1       1.0000 0.45607  0.48736  0.09168  Biso   1.000  O
  O2       1.0000 0.04393  0.51264  0.59168  Biso   1.000  O
  O3       1.0000 0.26264  0.70607  0.34168  Biso   1.000  O
  O4       1.0000 0.23736  0.29393  0.84168  Biso   1.000  O
  O5       1.0000 0.95607  0.98736  0.59168  Biso   1.000  O
  O6       1.0000 0.54393  0.01264  0.09168  Biso   1.000  O
  O7       1.0000 0.76264  0.20607  0.84168  Biso   1.000  O
  O8       1.0000 0.73736  0.79393  0.34168  Biso   1.000  O
  O9       1.0000 0.54393  0.51264  0.90832  Biso   1.000  O
  O10      1.0000 0.95607  0.48736  0.40832  Biso   1.000  O
  O11      1.0000 0.23736  0.79393  0.15832  Biso   1.000  O
  O12      1.0000 0.26264  0.20607  0.65832  Biso   1.000  O
  O13      1.0000 0.04393  0.01264  0.40832  Biso   1.000  O
  O14      1.0000 0.45607  0.98736  0.90832  Biso   1.000  O
  O15      1.0000 0.73736  0.29393  0.65832  Biso   1.000  O
  O16      1.0000 0.76264  0.70607  0.15832  Biso   1.000  O
  O17      1.0000 0.45076  0.37872  0.03237  Biso   1.000  O
  O18      1.0000 0.04924  0.62128  0.53237  Biso   1.000  O
  O19      1.0000 0.37128  0.70076  0.28237  Biso   1.000  O
  O20      1.0000 0.12872  0.29924  0.78237  Biso   1.000  O
  O21      1.0000 0.95076  0.87872  0.53237  Biso   1.000  O
  O22      1.0000 0.54924  0.12128  0.03237  Biso   1.000  O
  O23      1.0000 0.87128  0.20076  0.78237  Biso   1.000  O
  O24      1.0000 0.62872  0.79924  0.28237  Biso   1.000  O
  O25      1.0000 0.54924  0.62128  0.96763  Biso   1.000  O
  O26      1.0000 0.95076  0.37872  0.46763  Biso   1.000  O
  O27      1.0000 0.12872  0.79924  0.21763  Biso   1.000  O
  O28      1.0000 0.37128  0.20076  0.71763  Biso   1.000  O
  O29      1.0000 0.04924  0.12128  0.46763  Biso   1.000  O
  O30      1.0000 0.45076  0.87872  0.96763  Biso   1.000  O
  O31      1.0000 0.62872  0.29924  0.71763  Biso   1.000  O
  O32      1.0000 0.87128  0.70076  0.21763  Biso   1.000  O
  N1       1.0000 0.50242  0.67349  0.08850  Biso   1.000  N
  N2       1.0000 0.99758  0.32651  0.58850  Biso   1.000  N
  N3       1.0000 0.07651  0.75242  0.33850  Biso   1.000  N
  N4       1.0000 0.42349  0.24758  0.83850  Biso   1.000  N
  N5       1.0000 0.00242  0.17349  0.58850  Biso   1.000  N
  N6       1.0000 0.49758  0.82651  0.08850  Biso   1.000  N
  N7       1.0000 0.57651  0.25242  0.83850  Biso   1.000  N
  N8       1.0000 0.92349  0.74758  0.33850  Biso   1.000  N
  N9       1.0000 0.49758  0.32651  0.91150  Biso   1.000  N
  N10      1.0000 0.00242  0.67349  0.41150  Biso   1.000  N
  N11      1.0000 0.42349  0.74758  0.16150  Biso   1.000  N
  N12      1.0000 0.07651  0.25242  0.66150  Biso   1.000  N
  N13      1.0000 0.99758  0.82651  0.41150  Biso   1.000  N
  N14      1.0000 0.50242  0.17349  0.91150  Biso   1.000  N
  N15      1.0000 0.92349  0.24758  0.66150  Biso   1.000  N
  N16      1.0000 0.57651  0.75242  0.16150  Biso   1.000  N
  O33      1.0000 0.38960  0.58776  0.00521  Biso   1.000  O
  O34      1.0000 0.11040  0.41224  0.50521  Biso   1.000  O
  O35      1.0000 0.16224  0.63960  0.25521  Biso   1.000  O
  O36      1.0000 0.33776  0.36040  0.75521  Biso   1.000  O
  O37      1.0000 0.88960  0.08776  0.50521  Biso   1.000  O
  O38      1.0000 0.61040  0.91224  0.00521  Biso   1.000  O
  O39      1.0000 0.66224  0.13960  0.75521  Biso   1.000  O
  O40      1.0000 0.83776  0.86040  0.25521  Biso   1.000  O
  O41      1.0000 0.61040  0.41224  0.99479  Biso   1.000  O
  O42      1.0000 0.88960  0.58776  0.49479  Biso   1.000  O
  O43      1.0000 0.33776  0.86040  0.24479  Biso   1.000  O
  O44      1.0000 0.16224  0.13960  0.74479  Biso   1.000  O
  O45      1.0000 0.11040  0.91224  0.49479  Biso   1.000  O
  O46      1.0000 0.38960  0.08776  0.99479  Biso   1.000  O
  O47      1.0000 0.83776  0.36040  0.74479  Biso   1.000  O
  O48      1.0000 0.66224  0.63960  0.24479  Biso   1.000  O
  C1       1.0000 0.42710  0.67252  0.12488  Biso   1.000  C
  C2       1.0000 0.07290  0.32748  0.62488  Biso   1.000  C
  C3       1.0000 0.07748  0.67710  0.37488  Biso   1.000  C
  C4       1.0000 0.42252  0.32290  0.87488  Biso   1.000  C
  C5       1.0000 0.92710  0.17252  0.62488  Biso   1.000  C
  C6       1.0000 0.57290  0.82748  0.12488  Biso   1.000  C
  C7       1.0000 0.57748  0.17710  0.87488  Biso   1.000  C
  C8       1.0000 0.92252  0.82290  0.37488  Biso   1.000  C
  C9       1.0000 0.57290  0.32748  0.87512  Biso   1.000  C
  C10      1.0000 0.92710  0.67252  0.37512  Biso   1.000  C
  C11      1.0000 0.42252  0.82290  0.12512  Biso   1.000  C
  C12      1.0000 0.07748  0.17710  0.62512  Biso   1.000  C
  C13      1.0000 0.07290  0.82748  0.37512  Biso   1.000  C
  C14      1.0000 0.42710  0.17252  0.87512  Biso   1.000  C
  C15      1.0000 0.92252  0.32290  0.62512  Biso   1.000  C
  C16      1.0000 0.57748  0.67710  0.12512  Biso   1.000  C
  H1       1.0000 0.37750  0.67040  0.10120  Biso   1.000  H
  H2       1.0000 0.12250  0.32960  0.60120  Biso   1.000  H
  H3       1.0000 0.07960  0.62750  0.35120  Biso   1.000  H
  H4       1.0000 0.42040  0.37250  0.85120  Biso   1.000  H
  H5       1.0000 0.87750  0.17040  0.60120  Biso   1.000  H
  H6       1.0000 0.62250  0.82960  0.10120  Biso   1.000  H
  H7       1.0000 0.57960  0.12750  0.85120  Biso   1.000  H
  H8       1.0000 0.92040  0.87250  0.35120  Biso   1.000  H
  H9       1.0000 0.62250  0.32960  0.89880  Biso   1.000  H
  H10      1.0000 0.87750  0.67040  0.39880  Biso   1.000  H
  H11      1.0000 0.42040  0.87250  0.14880  Biso   1.000  H
  H12      1.0000 0.07960  0.12750  0.64880  Biso   1.000  H
  H13      1.0000 0.12250  0.82960  0.39880  Biso   1.000  H
  H14      1.0000 0.37750  0.17040  0.89880  Biso   1.000  H
  H15      1.0000 0.92040  0.37250  0.64880  Biso   1.000  H
  H16      1.0000 0.57960  0.62750  0.14880  Biso   1.000  H
  H17      1.0000 0.42770  0.62270  0.14840  Biso   1.000  H
  H18      1.0000 0.07230  0.37730  0.64840  Biso   1.000  H
  H19      1.0000 0.12730  0.67770  0.39840  Biso   1.000  H
  H20      1.0000 0.37270  0.32230  0.89840  Biso   1.000  H
  H21      1.0000 0.92770  0.12270  0.64840  Biso   1.000  H
  H22      1.0000 0.57230  0.87730  0.14840  Biso   1.000  H
  H23      1.0000 0.62730  0.17770  0.89840  Biso   1.000  H
  H24      1.0000 0.87270  0.82230  0.39840  Biso   1.000  H
  H25      1.0000 0.57230  0.37730  0.85160  Biso   1.000  H
  H26      1.0000 0.92770  0.62270  0.35160  Biso   1.000  H
  H27      1.0000 0.37270  0.82230  0.10160  Biso   1.000  H
  H28      1.0000 0.12730  0.17770  0.60160  Biso   1.000  H
  H29      1.0000 0.07230  0.87730  0.35160  Biso   1.000  H
  H30      1.0000 0.42770  0.12270  0.85160  Biso   1.000  H
  H31      1.0000 0.87270  0.32230  0.60160  Biso   1.000  H
  H32      1.0000 0.62730  0.67770  0.10160  Biso   1.000  H
  C17      1.0000 0.44129  0.41203  0.08033  Biso   1.000  C
  C18      1.0000 0.05871  0.58797  0.58033  Biso   1.000  C
  C19      1.0000 0.33797  0.69129  0.33033  Biso   1.000  C
  C20      1.0000 0.16203  0.30871  0.83033  Biso   1.000  C
  C21      1.0000 0.94129  0.91203  0.58033  Biso   1.000  C
  C22      1.0000 0.55871  0.08797  0.08033  Biso   1.000  C
  C23      1.0000 0.83797  0.19129  0.83033  Biso   1.000  C
  C24      1.0000 0.66203  0.80871  0.33033  Biso   1.000  C
  C25      1.0000 0.55871  0.58797  0.91967  Biso   1.000  C
  C26      1.0000 0.94129  0.41203  0.41967  Biso   1.000  C
  C27      1.0000 0.16203  0.80871  0.16967  Biso   1.000  C
  C28      1.0000 0.33797  0.19129  0.66967  Biso   1.000  C
  C29      1.0000 0.05871  0.08797  0.41967  Biso   1.000  C
  C30      1.0000 0.44129  0.91203  0.91967  Biso   1.000  C
  C31      1.0000 0.66203  0.30871  0.66967  Biso   1.000  C
  C32      1.0000 0.83797  0.69129  0.16967  Biso   1.000  C
  C33      1.0000 0.50000  0.75000  0.05323  Biso   1.000  C
  C34      1.0000 0.00000  0.25000  0.55323  Biso   1.000  C
  C35      1.0000 0.00000  0.75000  0.30323  Biso   1.000  C
  C36      1.0000 0.50000  0.25000  0.80323  Biso   1.000  C
  C37      1.0000 0.50000  0.25000  0.94677  Biso   1.000  C
  C38      1.0000 0.00000  0.75000  0.44677  Biso   1.000  C
  C39      1.0000 0.50000  0.75000  0.19677  Biso   1.000  C
  C40      1.0000 0.00000  0.25000  0.69677  Biso   1.000  C
  H33      1.0000 0.54910  0.75150  0.02900  Biso   1.000  H
  H34      1.0000 0.95090  0.24850  0.52900  Biso   1.000  H
  H35      1.0000 0.99850  0.79910  0.27900  Biso   1.000  H
  H36      1.0000 0.50150  0.20090  0.77900  Biso   1.000  H
  H37      1.0000 0.04910  0.25150  0.52900  Biso   1.000  H
  H38      1.0000 0.45090  0.74850  0.02900  Biso   1.000  H
  H39      1.0000 0.49850  0.29910  0.77900  Biso   1.000  H
  H40      1.0000 0.00150  0.70090  0.27900  Biso   1.000  H
  H41      1.0000 0.45090  0.24850  0.97100  Biso   1.000  H
  H42      1.0000 0.04910  0.75150  0.47100  Biso   1.000  H
  H43      1.0000 0.50150  0.70090  0.22100  Biso   1.000  H
  H44      1.0000 0.99850  0.29910  0.72100  Biso   1.000  H
  H45      1.0000 0.95090  0.74850  0.47100  Biso   1.000  H
  H46      1.0000 0.54910  0.25150  0.97100  Biso   1.000  H
  H47      1.0000 0.00150  0.20090  0.72100  Biso   1.000  H
  H48      1.0000 0.49850  0.79910  0.22100  Biso   1.000  H
  Cu1      1.0000 0.50294  0.56288  0.03381  Biso   1.000  Cu
  Cu2      1.0000 0.99706  0.43712  0.53382  Biso   1.000  Cu
  Cu3      1.0000 0.18712  0.75294  0.28381  Biso   1.000  Cu
  Cu4      1.0000 0.31288  0.24706  0.78382  Biso   1.000  Cu
  Cu5      1.0000 0.00294  0.06288  0.53382  Biso   1.000  Cu
  Cu6      1.0000 0.49706  0.93712  0.03381  Biso   1.000  Cu
  Cu7      1.0000 0.68712  0.25294  0.78382  Biso   1.000  Cu
  Cu8      1.0000 0.81288  0.74706  0.28381  Biso   1.000  Cu
  Cu9      1.0000 0.49706  0.43712  0.96618  Biso   1.000  Cu
  Cu10     1.0000 0.00294  0.56288  0.46619  Biso   1.000  Cu
  Cu11     1.0000 0.31288  0.74706  0.21618  Biso   1.000  Cu
  Cu12     1.0000 0.18712  0.25294  0.71618  Biso   1.000  Cu
  Cu13     1.0000 0.99706  0.93712  0.46619  Biso   1.000  Cu
  Cu14     1.0000 0.50294  0.06288  0.96618  Biso   1.000  Cu
  Cu15     1.0000 0.81288  0.24706  0.71618  Biso   1.000  Cu
  Cu16     1.0000 0.68712  0.75294  0.21618  Biso   1.000  Cu
  O49      1.0000 0.38500  0.47828  0.94629  Biso   1.000  O
  O50      1.0000 0.11500  0.52172  0.44629  Biso   1.000  O
  O51      1.0000 0.27172  0.63500  0.19629  Biso   1.000  O
  O52      1.0000 0.22828  0.36500  0.69629  Biso   1.000  O
  O53      1.0000 0.88500  0.97828  0.44629  Biso   1.000  O
  O54      1.0000 0.61500  0.02172  0.94629  Biso   1.000  O
  O55      1.0000 0.77172  0.13500  0.69629  Biso   1.000  O
  O56      1.0000 0.72828  0.86500  0.19629  Biso   1.000  O
  O57      1.0000 0.61500  0.52172  0.05371  Biso   1.000  O
  O58      1.0000 0.88500  0.47828  0.55371  Biso   1.000  O
  O59      1.0000 0.22828  0.86500  0.30371  Biso   1.000  O
  O60      1.0000 0.27172  0.13500  0.80371  Biso   1.000  O
  O61      1.0000 0.11500  0.02172  0.55371  Biso   1.000  O
  O62      1.0000 0.38500  0.97828  0.05371  Biso   1.000  O
  O63      1.0000 0.72828  0.36500  0.80371  Biso   1.000  O
  O64      1.0000 0.77172  0.63500  0.30371  Biso   1.000  O
  C41      1.0000 0.35492  0.54424  0.96715  Biso   1.000  C
  C42      1.0000 0.14508  0.45576  0.46715  Biso   1.000  C
  C43      1.0000 0.20576  0.60492  0.21715  Biso   1.000  C
  C44      1.0000 0.29424  0.39508  0.71715  Biso   1.000  C
  C45      1.0000 0.85492  0.04424  0.46715  Biso   1.000  C
  C46      1.0000 0.64508  0.95576  0.96715  Biso   1.000  C
  C47      1.0000 0.70576  0.10492  0.71715  Biso   1.000  C
  C48      1.0000 0.79424  0.89508  0.21715  Biso   1.000  C
  C49      1.0000 0.64508  0.45576  0.03285  Biso   1.000  C
  C50      1.0000 0.85492  0.54424  0.53285  Biso   1.000  C
  C51      1.0000 0.29424  0.89508  0.28285  Biso   1.000  C
  C52      1.0000 0.20576  0.10492  0.78285  Biso   1.000  C
  C53      1.0000 0.14508  0.95576  0.53285  Biso   1.000  C
  C54      1.0000 0.35492  0.04424  0.03285  Biso   1.000  C
  C55      1.0000 0.79424  0.39508  0.78285  Biso   1.000  C
  C56      1.0000 0.70576  0.60492  0.28285  Biso   1.000  C
  C57      1.0000 0.27243  0.57367  0.94498  Biso   1.000  C
  C58      1.0000 0.22757  0.42633  0.44498  Biso   1.000  C
  C59      1.0000 0.17633  0.52243  0.19498  Biso   1.000  C
  C60      1.0000 0.32367  0.47757  0.69498  Biso   1.000  C
  C61      1.0000 0.77243  0.07367  0.44498  Biso   1.000  C
  C62      1.0000 0.72757  0.92633  0.94498  Biso   1.000  C
  C63      1.0000 0.67633  0.02243  0.69498  Biso   1.000  C
  C64      1.0000 0.82367  0.97757  0.19498  Biso   1.000  C
  C65      1.0000 0.72757  0.42633  0.05502  Biso   1.000  C
  C66      1.0000 0.77243  0.57367  0.55502  Biso   1.000  C
  C67      1.0000 0.32367  0.97757  0.30502  Biso   1.000  C
  C68      1.0000 0.17633  0.02243  0.80502  Biso   1.000  C
  C69      1.0000 0.22757  0.92633  0.55502  Biso   1.000  C
  C70      1.0000 0.27243  0.07367  0.05502  Biso   1.000  C
  C71      1.0000 0.82367  0.47757  0.80502  Biso   1.000  C
  C72      1.0000 0.67633  0.52243  0.30502  Biso   1.000  C
  C73      1.0000 0.23479  0.53296  0.89955  Biso   1.000  C
  C74      1.0000 0.26521  0.46704  0.39955  Biso   1.000  C
  C75      1.0000 0.21704  0.48479  0.14955  Biso   1.000  C
  C76      1.0000 0.28296  0.51521  0.64955  Biso   1.000  C
  C77      1.0000 0.73479  0.03296  0.39955  Biso   1.000  C
  C78      1.0000 0.76521  0.96704  0.89955  Biso   1.000  C
  C79      1.0000 0.71704  0.98479  0.64955  Biso   1.000  C
  C80      1.0000 0.78296  0.01521  0.14955  Biso   1.000  C
  C81      1.0000 0.76521  0.46704  0.10045  Biso   1.000  C
  C82      1.0000 0.73479  0.53296  0.60045  Biso   1.000  C
  C83      1.0000 0.28296  0.01521  0.35045  Biso   1.000  C
  C84      1.0000 0.21704  0.98479  0.85045  Biso   1.000  C
  C85      1.0000 0.26521  0.96704  0.60045  Biso   1.000  C
  C86      1.0000 0.23479  0.03296  0.10045  Biso   1.000  C
  C87      1.0000 0.78296  0.51521  0.85045  Biso   1.000  C
  C88      1.0000 0.71704  0.48479  0.35045  Biso   1.000  C
  H49      1.0000 0.26060  0.48660  0.88330  Biso   1.000  H
  H50      1.0000 0.23940  0.51340  0.38330  Biso   1.000  H
  H51      1.0000 0.26340  0.51060  0.13330  Biso   1.000  H
  H52      1.0000 0.23660  0.48940  0.63330  Biso   1.000  H
  H53      1.0000 0.76060  0.98660  0.38330  Biso   1.000  H
  H54      1.0000 0.73940  0.01340  0.88330  Biso   1.000  H
  H55      1.0000 0.76340  0.01060  0.63330  Biso   1.000  H
  H56      1.0000 0.73660  0.98940  0.13330  Biso   1.000  H
  H57      1.0000 0.73940  0.51340  0.11670  Biso   1.000  H
  H58      1.0000 0.76060  0.48660  0.61670  Biso   1.000  H
  H59      1.0000 0.23660  0.98940  0.36670  Biso   1.000  H
  H60      1.0000 0.26340  0.01060  0.86670  Biso   1.000  H
  H61      1.0000 0.23940  0.01340  0.61670  Biso   1.000  H
  H62      1.0000 0.26060  0.98660  0.11670  Biso   1.000  H
  H63      1.0000 0.73660  0.48940  0.86670  Biso   1.000  H
  H64      1.0000 0.76340  0.51060  0.36670  Biso   1.000  H
  C89      1.0000 0.23341  0.64319  0.96859  Biso   1.000  C
  C90      1.0000 0.26659  0.35681  0.46859  Biso   1.000  C
  C91      1.0000 0.10681  0.48341  0.21859  Biso   1.000  C
  C92      1.0000 0.39319  0.51659  0.71859  Biso   1.000  C
  C93      1.0000 0.73341  0.14319  0.46859  Biso   1.000  C
  C94      1.0000 0.76659  0.85681  0.96859  Biso   1.000  C
  C95      1.0000 0.60681  0.98341  0.71859  Biso   1.000  C
  C96      1.0000 0.89319  0.01659  0.21859  Biso   1.000  C
  C97      1.0000 0.76659  0.35681  0.03141  Biso   1.000  C
  C98      1.0000 0.73341  0.64319  0.53141  Biso   1.000  C
  C99      1.0000 0.39319  0.01659  0.28141  Biso   1.000  C
  C100     1.0000 0.10681  0.98341  0.78141  Biso   1.000  C
  C101     1.0000 0.26659  0.85681  0.53141  Biso   1.000  C
  C102     1.0000 0.23341  0.14319  0.03141  Biso   1.000  C
  C103     1.0000 0.89319  0.51659  0.78141  Biso   1.000  C
  C104     1.0000 0.60681  0.48341  0.28141  Biso   1.000  C
  H65      1.0000 0.25820  0.67090  0.99900  Biso   1.000  H
  H66      1.0000 0.24180  0.32910  0.49900  Biso   1.000  H
  H67      1.0000 0.07910  0.50820  0.24900  Biso   1.000  H
  H68      1.0000 0.42090  0.49180  0.74900  Biso   1.000  H
  H69      1.0000 0.75820  0.17090  0.49900  Biso   1.000  H
  H70      1.0000 0.74180  0.82910  0.99900  Biso   1.000  H
  H71      1.0000 0.57910  0.00820  0.74900  Biso   1.000  H
  H72      1.0000 0.92090  0.99180  0.24900  Biso   1.000  H
  H73      1.0000 0.74180  0.32910  0.00100  Biso   1.000  H
  H74      1.0000 0.75820  0.67090  0.50100  Biso   1.000  H
  H75      1.0000 0.42090  0.99180  0.25100  Biso   1.000  H
  H76      1.0000 0.07910  0.00820  0.75100  Biso   1.000  H
  H77      1.0000 0.24180  0.82910  0.50100  Biso   1.000  H
  H78      1.0000 0.25820  0.17090  0.00100  Biso   1.000  H
  H79      1.0000 0.92090  0.49180  0.75100  Biso   1.000  H
  H80      1.0000 0.57910  0.50820  0.25100  Biso   1.000  H
  C105     1.0000 0.12091  0.63042  0.90223  Biso   1.000  C
  C106     1.0000 0.37909  0.36958  0.40223  Biso   1.000  C
  C107     1.0000 0.11958  0.37091  0.15223  Biso   1.000  C
  C108     1.0000 0.38042  0.62909  0.65223  Biso   1.000  C
  C109     1.0000 0.62091  0.13042  0.40223  Biso   1.000  C
  C110     1.0000 0.87909  0.86958  0.90223  Biso   1.000  C
  C111     1.0000 0.61958  0.87091  0.65223  Biso   1.000  C
  C112     1.0000 0.88042  0.12909  0.15223  Biso   1.000  C
  C113     1.0000 0.87909  0.36958  0.09777  Biso   1.000  C
  C114     1.0000 0.62091  0.63042  0.59777  Biso   1.000  C
  C115     1.0000 0.38042  0.12909  0.34777  Biso   1.000  C
  C116     1.0000 0.11958  0.87091  0.84777  Biso   1.000  C
  C117     1.0000 0.37909  0.86958  0.59777  Biso   1.000  C
  C118     1.0000 0.12091  0.13042  0.09777  Biso   1.000  C
  C119     1.0000 0.88042  0.62909  0.84777  Biso   1.000  C
  C120     1.0000 0.61958  0.37091  0.34777  Biso   1.000  C
  H81      1.0000 0.07010  0.64940  0.88790  Biso   1.000  H
  H82      1.0000 0.42990  0.35060  0.38790  Biso   1.000  H
  H83      1.0000 0.10060  0.32010  0.13790  Biso   1.000  H
  H84      1.0000 0.39940  0.67990  0.63790  Biso   1.000  H
  H85      1.0000 0.57010  0.14940  0.38790  Biso   1.000  H
  H86      1.0000 0.92990  0.85060  0.88790  Biso   1.000  H
  H87      1.0000 0.60060  0.82010  0.63790  Biso   1.000  H
  H88      1.0000 0.89940  0.17990  0.13790  Biso   1.000  H
  H89      1.0000 0.92990  0.35060  0.11210  Biso   1.000  H
  H90      1.0000 0.57010  0.64940  0.61210  Biso   1.000  H
  H91      1.0000 0.39940  0.17990  0.36210  Biso   1.000  H
  H92      1.0000 0.10060  0.82010  0.86210  Biso   1.000  H
  H93      1.0000 0.42990  0.85060  0.61210  Biso   1.000  H
  H94      1.0000 0.07010  0.14940  0.11210  Biso   1.000  H
  H95      1.0000 0.89940  0.67990  0.86210  Biso   1.000  H
  H96      1.0000 0.60060  0.32010  0.36210  Biso   1.000  H
  C121     1.0000 0.15900  0.56117  0.87836  Biso   1.000  C
  C122     1.0000 0.34100  0.43883  0.37836  Biso   1.000  C
  C123     1.0000 0.18883  0.40900  0.12836  Biso   1.000  C
  C124     1.0000 0.31117  0.59100  0.62836  Biso   1.000  C
  C125     1.0000 0.65900  0.06117  0.37836  Biso   1.000  C
  C126     1.0000 0.84100  0.93883  0.87836  Biso   1.000  C
  C127     1.0000 0.68883  0.90900  0.62836  Biso   1.000  C
  C128     1.0000 0.81117  0.09100  0.12836  Biso   1.000  C
  C129     1.0000 0.84100  0.43883  0.12164  Biso   1.000  C
  C130     1.0000 0.65900  0.56117  0.62164  Biso   1.000  C
  C131     1.0000 0.31117  0.09100  0.37164  Biso   1.000  C
  C132     1.0000 0.18883  0.90900  0.87164  Biso   1.000  C
  C133     1.0000 0.34100  0.93883  0.62164  Biso   1.000  C
  C134     1.0000 0.15900  0.06117  0.12164  Biso   1.000  C
  C135     1.0000 0.81117  0.59100  0.87164  Biso   1.000  C
  C136     1.0000 0.68883  0.40900  0.37164  Biso   1.000  C
  H97      1.0000 0.13380  0.53350  0.84810  Biso   1.000  H
  H98      1.0000 0.36620  0.46650  0.34810  Biso   1.000  H
  H99      1.0000 0.21650  0.38380  0.09810  Biso   1.000  H
  H100     1.0000 0.28350  0.61620  0.59810  Biso   1.000  H
  H101     1.0000 0.63380  0.03350  0.34810  Biso   1.000  H
  H102     1.0000 0.86620  0.96650  0.84810  Biso   1.000  H
  H103     1.0000 0.71650  0.88380  0.59810  Biso   1.000  H
  H104     1.0000 0.78350  0.11620  0.09810  Biso   1.000  H
  H105     1.0000 0.86620  0.46650  0.15190  Biso   1.000  H
  H106     1.0000 0.63380  0.53350  0.65190  Biso   1.000  H
  H107     1.0000 0.28350  0.11620  0.40190  Biso   1.000  H
  H108     1.0000 0.21650  0.88380  0.90190  Biso   1.000  H
  H109     1.0000 0.36620  0.96650  0.65190  Biso   1.000  H
  H110     1.0000 0.13380  0.03350  0.15190  Biso   1.000  H
  H111     1.0000 0.78350  0.61620  0.90190  Biso   1.000  H
  H112     1.0000 0.71650  0.38380  0.40190  Biso   1.000  H
  C137     1.0000 0.15790  0.67146  0.94707  Biso   1.000  C
  C138     1.0000 0.34210  0.32854  0.44707  Biso   1.000  C
  C139     1.0000 0.07854  0.40790  0.19707  Biso   1.000  C
  C140     1.0000 0.42146  0.59210  0.69707  Biso   1.000  C
  C141     1.0000 0.65790  0.17146  0.44707  Biso   1.000  C
  C142     1.0000 0.84210  0.82854  0.94707  Biso   1.000  C
  C143     1.0000 0.57854  0.90790  0.69707  Biso   1.000  C
  C144     1.0000 0.92146  0.09210  0.19707  Biso   1.000  C
  C145     1.0000 0.84210  0.32854  0.05293  Biso   1.000  C
  C146     1.0000 0.65790  0.67146  0.55293  Biso   1.000  C
  C147     1.0000 0.42146  0.09210  0.30293  Biso   1.000  C
  C148     1.0000 0.07854  0.90790  0.80293  Biso   1.000  C
  C149     1.0000 0.34210  0.82854  0.55293  Biso   1.000  C
  C150     1.0000 0.15790  0.17146  0.05293  Biso   1.000  C
  C151     1.0000 0.92146  0.59210  0.80293  Biso   1.000  C
  C152     1.0000 0.57854  0.40790  0.30293  Biso   1.000  C
  H113     1.0000 0.13220  0.71820  0.96290  Biso   1.000  H
  H114     1.0000 0.36780  0.28180  0.46290  Biso   1.000  H
  H115     1.0000 0.03180  0.38220  0.21290  Biso   1.000  H
  H116     1.0000 0.46820  0.61780  0.71290  Biso   1.000  H
  H117     1.0000 0.63220  0.21820  0.46290  Biso   1.000  H
  H118     1.0000 0.86780  0.78180  0.96290  Biso   1.000  H
  H119     1.0000 0.53180  0.88220  0.71290  Biso   1.000  H
  H120     1.0000 0.96820  0.11780  0.21290  Biso   1.000  H
  H121     1.0000 0.86780  0.28180  0.03710  Biso   1.000  H
  H122     1.0000 0.63220  0.71820  0.53710  Biso   1.000  H
  H123     1.0000 0.46820  0.11780  0.28710  Biso   1.000  H
  H124     1.0000 0.03180  0.88220  0.78710  Biso   1.000  H
  H125     1.0000 0.36780  0.78180  0.53710  Biso   1.000  H
  H126     1.0000 0.13220  0.21820  0.03710  Biso   1.000  H
  H127     1.0000 0.96820  0.61780  0.78710  Biso   1.000  H
  H128     1.0000 0.53180  0.38220  0.28710  Biso   1.000  H
  C153     1.0000 0.41000  0.35733  0.12751  Biso   1.000  C
  C154     1.0000 0.09000  0.64267  0.62751  Biso   1.000  C
  C155     1.0000 0.39267  0.66000  0.37751  Biso   1.000  C
  C156     1.0000 0.10733  0.34000  0.87751  Biso   1.000  C
  C157     1.0000 0.91000  0.85733  0.62751  Biso   1.000  C
  C158     1.0000 0.59000  0.14267  0.12751  Biso   1.000  C
  C159     1.0000 0.89267  0.16000  0.87751  Biso   1.000  C
  C160     1.0000 0.60733  0.84000  0.37751  Biso   1.000  C
  C161     1.0000 0.59000  0.64267  0.87249  Biso   1.000  C
  C162     1.0000 0.91000  0.35733  0.37249  Biso   1.000  C
  C163     1.0000 0.10733  0.84000  0.12249  Biso   1.000  C
  C164     1.0000 0.39267  0.16000  0.62249  Biso   1.000  C
  C165     1.0000 0.09000  0.14267  0.37249  Biso   1.000  C
  C166     1.0000 0.41000  0.85733  0.87249  Biso   1.000  C
  C167     1.0000 0.60733  0.34000  0.62249  Biso   1.000  C
  C168     1.0000 0.89267  0.66000  0.12249  Biso   1.000  C
  C169     1.0000 0.39844  0.38974  0.18168  Biso   1.000  C
  C170     1.0000 0.10156  0.61026  0.68168  Biso   1.000  C
  C171     1.0000 0.36026  0.64844  0.43168  Biso   1.000  C
  C172     1.0000 0.13974  0.35156  0.93168  Biso   1.000  C
  C173     1.0000 0.89844  0.88974  0.68168  Biso   1.000  C
  C174     1.0000 0.60156  0.11026  0.18168  Biso   1.000  C
  C175     1.0000 0.86026  0.14844  0.93168  Biso   1.000  C
  C176     1.0000 0.63974  0.85156  0.43168  Biso   1.000  C
  C177     1.0000 0.60156  0.61026  0.81832  Biso   1.000  C
  C178     1.0000 0.89844  0.38974  0.31832  Biso   1.000  C
  C179     1.0000 0.13974  0.85156  0.06832  Biso   1.000  C
  C180     1.0000 0.36026  0.14844  0.56832  Biso   1.000  C
  C181     1.0000 0.10156  0.11026  0.31832  Biso   1.000  C
  C182     1.0000 0.39844  0.88974  0.81832  Biso   1.000  C
  C183     1.0000 0.63974  0.35156  0.56832  Biso   1.000  C
  C184     1.0000 0.86026  0.64844  0.06832  Biso   1.000  C
  H129     1.0000 0.41130  0.44540  0.18910  Biso   1.000  H
  H130     1.0000 0.08870  0.55460  0.68910  Biso   1.000  H
  H131     1.0000 0.30460  0.66130  0.43910  Biso   1.000  H
  H132     1.0000 0.19540  0.33870  0.93910  Biso   1.000  H
  H133     1.0000 0.91130  0.94540  0.68910  Biso   1.000  H
  H134     1.0000 0.58870  0.05460  0.18910  Biso   1.000  H
  H135     1.0000 0.80460  0.16130  0.93910  Biso   1.000  H
  H136     1.0000 0.69540  0.83870  0.43910  Biso   1.000  H
  H137     1.0000 0.58870  0.55460  0.81090  Biso   1.000  H
  H138     1.0000 0.91130  0.44540  0.31090  Biso   1.000  H
  H139     1.0000 0.19540  0.83870  0.06090  Biso   1.000  H
  H140     1.0000 0.30460  0.16130  0.56090  Biso   1.000  H
  H141     1.0000 0.08870  0.05460  0.31090  Biso   1.000  H
  H142     1.0000 0.41130  0.94540  0.81090  Biso   1.000  H
  H143     1.0000 0.69540  0.33870  0.56090  Biso   1.000  H
  H144     1.0000 0.80460  0.66130  0.06090  Biso   1.000  H
  C185     1.0000 0.39092  0.27383  0.11723  Biso   1.000  C
  C186     1.0000 0.10908  0.72617  0.61723  Biso   1.000  C
  C187     1.0000 0.47617  0.64092  0.36723  Biso   1.000  C
  C188     1.0000 0.02383  0.35908  0.86723  Biso   1.000  C
  C189     1.0000 0.89092  0.77383  0.61723  Biso   1.000  C
  C190     1.0000 0.60908  0.22617  0.11723  Biso   1.000  C
  C191     1.0000 0.97617  0.14092  0.86723  Biso   1.000  C
  C192     1.0000 0.52383  0.85908  0.36723  Biso   1.000  C
  C193     1.0000 0.60908  0.72617  0.88277  Biso   1.000  C
  C194     1.0000 0.89092  0.27383  0.38277  Biso   1.000  C
  C195     1.0000 0.02383  0.85908  0.13277  Biso   1.000  C
  C196     1.0000 0.47617  0.14092  0.63277  Biso   1.000  C
  C197     1.0000 0.10908  0.22617  0.38277  Biso   1.000  C
  C198     1.0000 0.39092  0.77383  0.88277  Biso   1.000  C
  C199     1.0000 0.52383  0.35908  0.63277  Biso   1.000  C
  C200     1.0000 0.97617  0.64092  0.13277  Biso   1.000  C
  H145     1.0000 0.39880  0.25150  0.08120  Biso   1.000  H
  H146     1.0000 0.10120  0.74850  0.58120  Biso   1.000  H
  H147     1.0000 0.49850  0.64880  0.33120  Biso   1.000  H
  H148     1.0000 0.00150  0.35120  0.83120  Biso   1.000  H
  H149     1.0000 0.89880  0.75150  0.58120  Biso   1.000  H
  H150     1.0000 0.60120  0.24850  0.08120  Biso   1.000  H
  H151     1.0000 0.99850  0.14880  0.83120  Biso   1.000  H
  H152     1.0000 0.50150  0.85120  0.33120  Biso   1.000  H
  H153     1.0000 0.60120  0.74850  0.91880  Biso   1.000  H
  H154     1.0000 0.89880  0.25150  0.41880  Biso   1.000  H
  H155     1.0000 0.00150  0.85120  0.16880  Biso   1.000  H
  H156     1.0000 0.49850  0.14880  0.66880  Biso   1.000  H
  H157     1.0000 0.10120  0.24850  0.41880  Biso   1.000  H
  H158     1.0000 0.39880  0.75150  0.91880  Biso   1.000  H
  H159     1.0000 0.50150  0.35120  0.66880  Biso   1.000  H
  H160     1.0000 0.99850  0.64880  0.16880  Biso   1.000  H
  C201     1.0000 0.34902  0.25661  0.21380  Biso   1.000  C
  C202     1.0000 0.15098  0.74339  0.71380  Biso   1.000  C
  C203     1.0000 0.49339  0.59902  0.46380  Biso   1.000  C
  C204     1.0000 0.00661  0.40098  0.96380  Biso   1.000  C
  C205     1.0000 0.84902  0.75661  0.71380  Biso   1.000  C
  C206     1.0000 0.65098  0.24339  0.21380  Biso   1.000  C
  C207     1.0000 0.99339  0.09902  0.96380  Biso   1.000  C
  C208     1.0000 0.50661  0.90098  0.46380  Biso   1.000  C
  C209     1.0000 0.65098  0.74339  0.78620  Biso   1.000  C
  C210     1.0000 0.84902  0.25661  0.28620  Biso   1.000  C
  C211     1.0000 0.00661  0.90098  0.03620  Biso   1.000  C
  C212     1.0000 0.49339  0.09902  0.53620  Biso   1.000  C
  C213     1.0000 0.15098  0.24339  0.28620  Biso   1.000  C
  C214     1.0000 0.34902  0.75661  0.78620  Biso   1.000  C
  C215     1.0000 0.50661  0.40098  0.53620  Biso   1.000  C
  C216     1.0000 0.99339  0.59902  0.03620  Biso   1.000  C
  H161     1.0000 0.32860  0.22280  0.24280  Biso   1.000  H
  H162     1.0000 0.17140  0.77720  0.74280  Biso   1.000  H
  H163     1.0000 0.52720  0.57860  0.49280  Biso   1.000  H
  H164     1.0000 0.97280  0.42140  0.99280  Biso   1.000  H
  H165     1.0000 0.82860  0.72280  0.74280  Biso   1.000  H
  H166     1.0000 0.67140  0.27720  0.24280  Biso   1.000  H
  H167     1.0000 0.02720  0.07860  0.99280  Biso   1.000  H
  H168     1.0000 0.47280  0.92140  0.49280  Biso   1.000  H
  H169     1.0000 0.67140  0.77720  0.75720  Biso   1.000  H
  H170     1.0000 0.82860  0.22280  0.25720  Biso   1.000  H
  H171     1.0000 0.97280  0.92140  0.00720  Biso   1.000  H
  H172     1.0000 0.52720  0.07860  0.50720  Biso   1.000  H
  H173     1.0000 0.17140  0.27720  0.25720  Biso   1.000  H
  H174     1.0000 0.32860  0.72280  0.75720  Biso   1.000  H
  H175     1.0000 0.47280  0.42140  0.50720  Biso   1.000  H
  H176     1.0000 0.02720  0.57860  0.00720  Biso   1.000  H
  C217     1.0000 0.36780  0.33916  0.22455  Biso   1.000  C
  C218     1.0000 0.13220  0.66084  0.72455  Biso   1.000  C
  C219     1.0000 0.41084  0.61780  0.47455  Biso   1.000  C
  C220     1.0000 0.08916  0.38220  0.97455  Biso   1.000  C
  C221     1.0000 0.86780  0.83916  0.72455  Biso   1.000  C
  C222     1.0000 0.63220  0.16084  0.22455  Biso   1.000  C
  C223     1.0000 0.91084  0.11780  0.97455  Biso   1.000  C
  C224     1.0000 0.58916  0.88220  0.47455  Biso   1.000  C
  C225     1.0000 0.63220  0.66084  0.77545  Biso   1.000  C
  C226     1.0000 0.86780  0.33916  0.27545  Biso   1.000  C
  C227     1.0000 0.08916  0.88220  0.02545  Biso   1.000  C
  C228     1.0000 0.41084  0.11780  0.52545  Biso   1.000  C
  C229     1.0000 0.13220  0.16084  0.27545  Biso   1.000  C
  C230     1.0000 0.36780  0.83916  0.77545  Biso   1.000  C
  C231     1.0000 0.58916  0.38220  0.52545  Biso   1.000  C
  C232     1.0000 0.91084  0.61780  0.02545  Biso   1.000  C
  H177     1.0000 0.35990  0.36100  0.26080  Biso   1.000  H
  H178     1.0000 0.14010  0.63900  0.76080  Biso   1.000  H
  H179     1.0000 0.38900  0.60990  0.51080  Biso   1.000  H
  H180     1.0000 0.11100  0.39010  0.01080  Biso   1.000  H
  H181     1.0000 0.85990  0.86100  0.76080  Biso   1.000  H
  H182     1.0000 0.64010  0.13900  0.26080  Biso   1.000  H
  H183     1.0000 0.88900  0.10990  0.01080  Biso   1.000  H
  H184     1.0000 0.61100  0.89010  0.51080  Biso   1.000  H
  H185     1.0000 0.64010  0.63900  0.73920  Biso   1.000  H
  H186     1.0000 0.85990  0.36100  0.23920  Biso   1.000  H
  H187     1.0000 0.11100  0.89010  0.98920  Biso   1.000  H
  H188     1.0000 0.38900  0.10990  0.48920  Biso   1.000  H
  H189     1.0000 0.14010  0.13900  0.23920  Biso   1.000  H
  H190     1.0000 0.35990  0.86100  0.73920  Biso   1.000  H
  H191     1.0000 0.61100  0.39010  0.48920  Biso   1.000  H
  H192     1.0000 0.88900  0.60990  0.98920  Biso   1.000  H
  C233     1.0000 0.36033  0.22395  0.16035  Biso   1.000  C
  C234     1.0000 0.13967  0.77605  0.66035  Biso   1.000  C
  C235     1.0000 0.52605  0.61033  0.41035  Biso   1.000  C
  C236     1.0000 0.97395  0.38967  0.91035  Biso   1.000  C
  C237     1.0000 0.86033  0.72395  0.66035  Biso   1.000  C
  C238     1.0000 0.63967  0.27605  0.16035  Biso   1.000  C
  C239     1.0000 0.02605  0.11033  0.91035  Biso   1.000  C
  C240     1.0000 0.47395  0.88967  0.41035  Biso   1.000  C
  C241     1.0000 0.63967  0.77605  0.83965  Biso   1.000  C
  C242     1.0000 0.86033  0.22395  0.33965  Biso   1.000  C
  C243     1.0000 0.97395  0.88967  0.08965  Biso   1.000  C
  C244     1.0000 0.52605  0.11033  0.58965  Biso   1.000  C
  C245     1.0000 0.13967  0.27605  0.33965  Biso   1.000  C
  C246     1.0000 0.36033  0.72395  0.83965  Biso   1.000  C
  C247     1.0000 0.47395  0.38967  0.58965  Biso   1.000  C
  C248     1.0000 0.02605  0.61033  0.08965  Biso   1.000  C
  H193     1.0000 0.34740  0.16820  0.15320  Biso   1.000  H
  H194     1.0000 0.15260  0.83180  0.65320  Biso   1.000  H
  H195     1.0000 0.58180  0.59740  0.40320  Biso   1.000  H
  H196     1.0000 0.91820  0.40260  0.90320  Biso   1.000  H
  H197     1.0000 0.84740  0.66820  0.65320  Biso   1.000  H
  H198     1.0000 0.65260  0.33180  0.15320  Biso   1.000  H
  H199     1.0000 0.08180  0.09740  0.90320  Biso   1.000  H
  H200     1.0000 0.41820  0.90260  0.40320  Biso   1.000  H
  H201     1.0000 0.65260  0.83180  0.84680  Biso   1.000  H
  H202     1.0000 0.84740  0.16820  0.34680  Biso   1.000  H
  H203     1.0000 0.91820  0.90260  0.09680  Biso   1.000  H
  H204     1.0000 0.58180  0.09740  0.59680  Biso   1.000  H
  H205     1.0000 0.15260  0.33180  0.34680  Biso   1.000  H
  H206     1.0000 0.34740  0.66820  0.84680  Biso   1.000  H
  H207     1.0000 0.41820  0.40260  0.59680  Biso   1.000  H
  H208     1.0000 0.08180  0.59740  0.09680  Biso   1.000  H
