data_image0
_cell_length_a       7.3655
_cell_length_b       13.955
_cell_length_c       14.337
_cell_angle_alpha    90
_cell_angle_beta     94.72
_cell_angle_gamma    90

_symmetry_space_group_name_H-M    "P 1"
_symmetry_int_tables_number       1

loop_
  _symmetry_equiv_pos_as_xyz
  'x, y, z'

loop_
  _atom_site_label
  _atom_site_occupancy
  _atom_site_fract_x
  _atom_site_fract_y
  _atom_site_fract_z
  _atom_site_thermal_displace_type
  _atom_site_B_iso_or_equiv
  _atom_site_type_symbol
  Cu1      1.0000 0.24140  0.02949  0.24411  Biso   1.000  Cu
  Cu2      1.0000 0.25860  0.52949  0.25589  Biso   1.000  Cu
  Cu3      1.0000 0.75860  0.97051  0.75589  Biso   1.000  Cu
  Cu4      1.0000 0.74140  0.47051  0.74411  Biso   1.000  Cu
  N1       1.0000 0.02500  0.09830  0.28680  Biso   1.000  N
  N2       1.0000 0.47500  0.59830  0.21320  Biso   1.000  N
  N3       1.0000 0.97500  0.90170  0.71320  Biso   1.000  N
  N4       1.0000 0.52500  0.40170  0.78680  Biso   1.000  N
  C1       1.0000 0.91500  0.13710  0.32340  Biso   1.000  C
  C2       1.0000 0.58500  0.63710  0.17660  Biso   1.000  C
  C3       1.0000 0.08500  0.86290  0.67660  Biso   1.000  C
  C4       1.0000 0.41500  0.36290  0.82340  Biso   1.000  C
  N5       1.0000 0.45400  0.13910  0.31290  Biso   1.000  N
  N6       1.0000 0.04600  0.63910  0.18710  Biso   1.000  N
  N7       1.0000 0.54600  0.86090  0.68710  Biso   1.000  N
  N8       1.0000 0.95400  0.36090  0.81290  Biso   1.000  N
  C5       1.0000 0.59600  0.16250  0.33730  Biso   1.000  C
  C6       1.0000 0.90400  0.66250  0.16270  Biso   1.000  C
  C7       1.0000 0.40400  0.83750  0.66270  Biso   1.000  C
  C8       1.0000 0.09600  0.33750  0.83730  Biso   1.000  C
  N9       1.0000 0.45100  0.38270  0.33830  Biso   1.000  N
  N10      1.0000 0.04900  0.88270  0.16170  Biso   1.000  N
  N11      1.0000 0.54900  0.61730  0.66170  Biso   1.000  N
  N12      1.0000 0.95100  0.11730  0.83830  Biso   1.000  N
  C9       1.0000 0.56100  0.35920  0.39270  Biso   1.000  C
  C10      1.0000 0.93900  0.85920  0.10730  Biso   1.000  C
  C11      1.0000 0.43900  0.64080  0.60730  Biso   1.000  C
  C12      1.0000 0.06100  0.14080  0.89270  Biso   1.000  C
  N13      1.0000 0.70700  0.40390  0.62110  Biso   1.000  N
  N14      1.0000 0.79300  0.90390  0.87890  Biso   1.000  N
  N15      1.0000 0.29300  0.59610  0.37890  Biso   1.000  N
  N16      1.0000 0.20700  0.09610  0.12110  Biso   1.000  N
  C13      1.0000 0.70500  0.37180  0.54770  Biso   1.000  C
  C14      1.0000 0.79500  0.87180  0.95230  Biso   1.000  C
  C15      1.0000 0.29500  0.62820  0.45230  Biso   1.000  C
  C16      1.0000 0.20500  0.12820  0.04770  Biso   1.000  C
  N17      1.0000 0.14600  0.39490  0.57260  Biso   1.000  N
  N18      1.0000 0.35400  0.89490  0.92740  Biso   1.000  N
  N19      1.0000 0.85400  0.60510  0.42740  Biso   1.000  N
  N20      1.0000 0.64600  0.10510  0.07260  Biso   1.000  N
  C17      1.0000 0.07900  0.33050  0.53520  Biso   1.000  C
  C18      1.0000 0.42100  0.83050  0.96480  Biso   1.000  C
  C19      1.0000 0.92100  0.66950  0.46480  Biso   1.000  C
  C20      1.0000 0.57900  0.16950  0.03520  Biso   1.000  C
  N21      1.0000 0.16000  0.08830  0.51900  Biso   1.000  N
  N22      1.0000 0.34000  0.58830  0.98100  Biso   1.000  N
  N23      1.0000 0.84000  0.91170  0.48100  Biso   1.000  N
  N24      1.0000 0.66000  0.41170  0.01900  Biso   1.000  N
  C21      1.0000 0.08600  0.16220  0.50620  Biso   1.000  C
  C22      1.0000 0.41400  0.66220  0.99380  Biso   1.000  C
  C23      1.0000 0.91400  0.83780  0.49380  Biso   1.000  C
  C24      1.0000 0.58600  0.33780  0.00620  Biso   1.000  C
  C25      1.0000 0.82000  0.25490  0.43880  Biso   1.000  C
  C26      1.0000 0.68000  0.75490  0.06120  Biso   1.000  C
  C27      1.0000 0.18000  0.74510  0.56120  Biso   1.000  C
  C28      1.0000 0.32000  0.24510  0.93880  Biso   1.000  C
  C29      1.0000 0.77800  0.18660  0.36730  Biso   1.000  C
  C30      1.0000 0.72200  0.68660  0.13270  Biso   1.000  C
  C31      1.0000 0.22200  0.81340  0.63270  Biso   1.000  C
  C32      1.0000 0.27800  0.31340  0.86730  Biso   1.000  C
  C33      1.0000 0.69900  0.32760  0.45930  Biso   1.000  C
  C34      1.0000 0.80100  0.82760  0.04070  Biso   1.000  C
  C35      1.0000 0.30100  0.67240  0.54070  Biso   1.000  C
  C36      1.0000 0.19900  0.17240  0.95930  Biso   1.000  C
  C37      1.0000 0.99000  0.24800  0.49530  Biso   1.000  C
  C38      1.0000 0.51000  0.74800  0.00470  Biso   1.000  C
  C39      1.0000 0.01000  0.75200  0.50470  Biso   1.000  C
  C40      1.0000 0.49000  0.25200  0.99530  Biso   1.000  C
  N25      1.0000 0.23300  0.94640  0.35870  Biso   1.000  N
  N26      1.0000 0.26700  0.44640  0.14130  Biso   1.000  N
  N27      1.0000 0.76700  0.05360  0.64130  Biso   1.000  N
  N28      1.0000 0.73300  0.55360  0.85870  Biso   1.000  N
  N29      1.0000 0.44400  0.95560  0.19420  Biso   1.000  N
  N30      1.0000 0.05600  0.45560  0.30580  Biso   1.000  N
  N31      1.0000 0.55600  0.04440  0.80580  Biso   1.000  N
  N32      1.0000 0.94400  0.54440  0.69420  Biso   1.000  N
  C41      1.0000 0.39700  0.89730  0.39680  Biso   1.000  C
  C42      1.0000 0.10300  0.39730  0.10320  Biso   1.000  C
  C43      1.0000 0.60300  0.10270  0.60320  Biso   1.000  C
  C44      1.0000 0.89700  0.60270  0.89680  Biso   1.000  C
  C45      1.0000 0.49100  0.84330  0.32610  Biso   1.000  C
  C46      1.0000 0.00900  0.34330  0.17390  Biso   1.000  C
  C47      1.0000 0.50900  0.15670  0.67390  Biso   1.000  C
  C48      1.0000 0.99100  0.65670  0.82610  Biso   1.000  C
  C49      1.0000 0.57900  0.90470  0.25790  Biso   1.000  C
  C50      1.0000 0.92100  0.40470  0.24210  Biso   1.000  C
  C51      1.0000 0.42100  0.09530  0.74210  Biso   1.000  C
  C52      1.0000 0.07900  0.59530  0.75790  Biso   1.000  C
  H1       1.0000 0.14410  0.89850  0.34380  Biso   1.000  H
  H2       1.0000 0.35590  0.39850  0.15620  Biso   1.000  H
  H3       1.0000 0.85590  0.10150  0.65620  Biso   1.000  H
  H4       1.0000 0.64410  0.60150  0.84380  Biso   1.000  H
  H5       1.0000 0.19500  0.98620  0.40700  Biso   1.000  H
  H6       1.0000 0.30500  0.48620  0.09300  Biso   1.000  H
  H7       1.0000 0.80500  0.01380  0.59300  Biso   1.000  H
  H8       1.0000 0.69500  0.51380  0.90700  Biso   1.000  H
  H9       1.0000 0.51080  0.99970  0.15970  Biso   1.000  H
  H10      1.0000 0.98920  0.49970  0.34030  Biso   1.000  H
  H11      1.0000 0.48920  0.00030  0.84030  Biso   1.000  H
  H12      1.0000 0.01080  0.50030  0.65970  Biso   1.000  H
  H13      1.0000 0.38920  0.90870  0.15290  Biso   1.000  H
  H14      1.0000 0.11080  0.40870  0.34710  Biso   1.000  H
  H15      1.0000 0.61080  0.09130  0.84710  Biso   1.000  H
  H16      1.0000 0.88920  0.59130  0.65290  Biso   1.000  H
  H17      1.0000 0.36360  0.85350  0.44320  Biso   1.000  H
  H18      1.0000 0.13640  0.35350  0.05680  Biso   1.000  H
  H19      1.0000 0.63640  0.14650  0.55680  Biso   1.000  H
  H20      1.0000 0.86360  0.64650  0.94320  Biso   1.000  H
  H21      1.0000 0.47860  0.94360  0.42470  Biso   1.000  H
  H22      1.0000 0.02140  0.44360  0.07530  Biso   1.000  H
  H23      1.0000 0.52140  0.05640  0.57530  Biso   1.000  H
  H24      1.0000 0.97860  0.55640  0.92470  Biso   1.000  H
  H25      1.0000 0.40490  0.80320  0.29230  Biso   1.000  H
  H26      1.0000 0.09510  0.30320  0.20770  Biso   1.000  H
  H27      1.0000 0.59510  0.19680  0.70770  Biso   1.000  H
  H28      1.0000 0.90490  0.69680  0.79230  Biso   1.000  H
  H29      1.0000 0.58310  0.80480  0.35800  Biso   1.000  H
  H30      1.0000 0.91690  0.30480  0.14200  Biso   1.000  H
  H31      1.0000 0.41690  0.19520  0.64200  Biso   1.000  H
  H32      1.0000 0.08310  0.69520  0.85800  Biso   1.000  H
  H33      1.0000 0.65380  0.95060  0.29140  Biso   1.000  H
  H34      1.0000 0.84620  0.45060  0.20860  Biso   1.000  H
  H35      1.0000 0.34620  0.04940  0.70860  Biso   1.000  H
  H36      1.0000 0.15380  0.54940  0.79140  Biso   1.000  H
  H37      1.0000 0.65190  0.86550  0.22180  Biso   1.000  H
  H38      1.0000 0.84810  0.36550  0.27820  Biso   1.000  H
  H39      1.0000 0.34810  0.13450  0.77820  Biso   1.000  H
  H40      1.0000 0.15190  0.63450  0.72180  Biso   1.000  H
