data_image0
_cell_length_a       7.7495
_cell_length_b       9.8432
_cell_length_c       10.9787
_cell_angle_alpha    97.6
_cell_angle_beta     101.2
_cell_angle_gamma    90.076

_symmetry_space_group_name_H-M    "P 1"
_symmetry_int_tables_number       1

loop_
  _symmetry_equiv_pos_as_xyz
  'x, y, z'

loop_
  _atom_site_label
  _atom_site_occupancy
  _atom_site_fract_x
  _atom_site_fract_y
  _atom_site_fract_z
  _atom_site_thermal_displace_type
  _atom_site_B_iso_or_equiv
  _atom_site_type_symbol
  Cu1      1.0000 0.21277  0.22176  0.99284  Biso   1.000  Cu
  Cu2      1.0000 0.78723  0.77824  0.00716  Biso   1.000  Cu
  N1       1.0000 0.39960  0.32530  0.11530  Biso   1.000  N
  N2       1.0000 0.60040  0.67470  0.88470  Biso   1.000  N
  N3       1.0000 0.76400  0.65650  0.13330  Biso   1.000  N
  N4       1.0000 0.23600  0.34350  0.86670  Biso   1.000  N
  N5       1.0000 0.69530  0.84270  0.40080  Biso   1.000  N
  N6       1.0000 0.30470  0.15730  0.59920  Biso   1.000  N
  N7       1.0000 0.92900  0.61350  0.68940  Biso   1.000  N
  N8       1.0000 0.07100  0.38650  0.31060  Biso   1.000  N
  N9       1.0000 0.70840  0.32400  0.65930  Biso   1.000  N
  N10      1.0000 0.29160  0.67600  0.34070  Biso   1.000  N
  N11      1.0000 0.71480  0.12760  0.28060  Biso   1.000  N
  N12      1.0000 0.28520  0.87240  0.71940  Biso   1.000  N
  C1       1.0000 0.50820  0.39770  0.17810  Biso   1.000  C
  C2       1.0000 0.49180  0.60230  0.82190  Biso   1.000  C
  C3       1.0000 0.70800  0.58180  0.18840  Biso   1.000  C
  C4       1.0000 0.29200  0.41820  0.81160  Biso   1.000  C
  C5       1.0000 0.72380  0.73570  0.42970  Biso   1.000  C
  C6       1.0000 0.27620  0.26430  0.57030  Biso   1.000  C
  C7       1.0000 0.85050  0.60510  0.58870  Biso   1.000  C
  C8       1.0000 0.14950  0.39490  0.41130  Biso   1.000  C
  C9       1.0000 0.70590  0.34050  0.55650  Biso   1.000  C
  C10      1.0000 0.29410  0.65950  0.44350  Biso   1.000  C
  C11      1.0000 0.70650  0.22910  0.34490  Biso   1.000  C
  C12      1.0000 0.29350  0.77090  0.65510  Biso   1.000  C
  C13      1.0000 0.69670  0.48100  0.38370  Biso   1.000  C
  C14      1.0000 0.30330  0.51900  0.61630  Biso   1.000  C
  C15      1.0000 0.63910  0.48660  0.25090  Biso   1.000  C
  C16      1.0000 0.36090  0.51340  0.74910  Biso   1.000  C
  C17      1.0000 0.75580  0.60260  0.46430  Biso   1.000  C
  C18      1.0000 0.24420  0.39740  0.53570  Biso   1.000  C
  C19      1.0000 0.69230  0.35520  0.42610  Biso   1.000  C
  C20      1.0000 0.30770  0.64480  0.57390  Biso   1.000  C
  N13      1.0000 0.16630  0.09220  0.11670  Biso   1.000  N
  N14      1.0000 0.83370  0.90780  0.88330  Biso   1.000  N
  N15      1.0000 0.97560  0.90510  0.12380  Biso   1.000  N
  N16      1.0000 0.02440  0.09490  0.87620  Biso   1.000  N
  C21      1.0000 0.03850  0.99940  0.06560  Biso   1.000  C
  C22      1.0000 0.96150  0.00060  0.93440  Biso   1.000  C
  C23      1.0000 0.23840  0.08960  0.23910  Biso   1.000  C
  C24      1.0000 0.76160  0.91040  0.76090  Biso   1.000  C
  C25      1.0000 0.17880  0.99630  0.30560  Biso   1.000  C
  C26      1.0000 0.82120  0.00370  0.69440  Biso   1.000  C
  C27      1.0000 0.04530  0.90510  0.24540  Biso   1.000  C
  C28      1.0000 0.95470  0.09490  0.75460  Biso   1.000  C
  O1       1.0000 0.98740  0.36630  0.04750  Biso   1.000  O
  O2       1.0000 0.01260  0.63370  0.95250  Biso   1.000  O
  O3       1.0000 0.42190  0.08110  0.91550  Biso   1.000  O
  O4       1.0000 0.57810  0.91890  0.08450  Biso   1.000  O
  O5       1.0000 0.66990  0.27350  0.90010  Biso   1.000  O
  O6       1.0000 0.33010  0.72650  0.09990  Biso   1.000  O
  H1       1.0000 0.22500  0.00000  0.38700  Biso   1.000  H
  H2       1.0000 0.77500  0.00000  0.61300  Biso   1.000  H
  H3       1.0000 0.33300  0.15200  0.27300  Biso   1.000  H
  H4       1.0000 0.66700  0.84800  0.72700  Biso   1.000  H
  H5       1.0000 0.99900  0.84700  0.29500  Biso   1.000  H
  H6       1.0000 0.00100  0.15300  0.70500  Biso   1.000  H
  H7       1.0000 0.99720  0.40170  0.11780  Biso   1.000  H
  H8       1.0000 0.00280  0.59830  0.88220  Biso   1.000  H
  H9       1.0000 0.00080  0.44140  0.01860  Biso   1.000  H
  H10      1.0000 0.99920  0.55860  0.98140  Biso   1.000  H
  H11      1.0000 0.36950  0.02490  0.82820  Biso   1.000  H
  H12      1.0000 0.63050  0.97510  0.17180  Biso   1.000  H
  H13      1.0000 0.47660  0.01880  0.94320  Biso   1.000  H
  H14      1.0000 0.52340  0.98120  0.05680  Biso   1.000  H
  H15      1.0000 0.68310  0.27910  0.80950  Biso   1.000  H
  H16      1.0000 0.31690  0.72090  0.19050  Biso   1.000  H
  H17      1.0000 0.77560  0.30710  0.94270  Biso   1.000  H
  H18      1.0000 0.22440  0.69290  0.05730  Biso   1.000  H
