data_image0
_cell_length_a       9.891
_cell_length_b       9.955
_cell_length_c       11.608
_cell_angle_alpha    73.11
_cell_angle_beta     66.83
_cell_angle_gamma    77.32

_symmetry_space_group_name_H-M    "P 1"
_symmetry_int_tables_number       1

loop_
  _symmetry_equiv_pos_as_xyz
  'x, y, z'

loop_
  _atom_site_label
  _atom_site_occupancy
  _atom_site_fract_x
  _atom_site_fract_y
  _atom_site_fract_z
  _atom_site_thermal_displace_type
  _atom_site_B_iso_or_equiv
  _atom_site_type_symbol
  Cu1      1.0000 0.50000  0.00000  0.00000  Biso   1.000  Cu
  Cu2      1.0000 0.00000  0.50000  0.50000  Biso   1.000  Cu
  N1       1.0000 0.42370  0.06710  0.21500  Biso   1.000  N
  N2       1.0000 0.57630  0.93290  0.78500  Biso   1.000  N
  N3       1.0000 0.06000  0.23100  0.51730  Biso   1.000  N
  N4       1.0000 0.94000  0.76900  0.48270  Biso   1.000  N
  N5       1.0000 0.23840  0.18400  0.72600  Biso   1.000  N
  N6       1.0000 0.76160  0.81600  0.27400  Biso   1.000  N
  C1       1.0000 0.26770  0.82730  0.78190  Biso   1.000  C
  C2       1.0000 0.73230  0.17270  0.21810  Biso   1.000  C
  N7       1.0000 0.55800  0.62950  0.63190  Biso   1.000  N
  N8       1.0000 0.44200  0.37050  0.36810  Biso   1.000  N
  N9       1.0000 0.38050  0.71790  0.33050  Biso   1.000  N
  N10      1.0000 0.61950  0.28210  0.66950  Biso   1.000  N
  C3       1.0000 0.35680  0.05310  0.32250  Biso   1.000  C
  C4       1.0000 0.64320  0.94690  0.67750  Biso   1.000  C
  C5       1.0000 0.15830  0.14520  0.49070  Biso   1.000  C
  C6       1.0000 0.84170  0.85480  0.50930  Biso   1.000  C
  C7       1.0000 0.25590  0.07720  0.70240  Biso   1.000  C
  C8       1.0000 0.74410  0.92280  0.29760  Biso   1.000  C
  N11      1.0000 0.25160  0.73860  0.87220  Biso   1.000  N
  N12      1.0000 0.74840  0.26140  0.12780  Biso   1.000  N
  C9       1.0000 0.48510  0.70510  0.58050  Biso   1.000  C
  C10      1.0000 0.51490  0.29490  0.41950  Biso   1.000  C
  C11      1.0000 0.38980  0.75570  0.41080  Biso   1.000  C
  C12      1.0000 0.61020  0.24430  0.58920  Biso   1.000  C
  C13      1.0000 0.31870  0.92720  0.54780  Biso   1.000  C
  C14      1.0000 0.68130  0.07280  0.45220  Biso   1.000  C
  C15      1.0000 0.27860  0.03820  0.45600  Biso   1.000  C
  C16      1.0000 0.72140  0.96180  0.54400  Biso   1.000  C
  C17      1.0000 0.27990  0.94330  0.67540  Biso   1.000  C
  C18      1.0000 0.72010  0.05670  0.32460  Biso   1.000  C
  C19      1.0000 0.39590  0.79810  0.51400  Biso   1.000  C
  C20      1.0000 0.60410  0.20190  0.48600  Biso   1.000  C
  N13      1.0000 0.33930  0.86950  0.06900  Biso   1.000  N
  N14      1.0000 0.66070  0.13050  0.93100  Biso   1.000  N
  N15      1.0000 0.35870  0.16510  0.94910  Biso   1.000  N
  N16      1.0000 0.64130  0.83490  0.05090  Biso   1.000  N
  C21      1.0000 0.18370  0.91930  0.13680  Biso   1.000  C
  C22      1.0000 0.81630  0.08070  0.86320  Biso   1.000  C
  C23      1.0000 0.12870  0.05310  0.06080  Biso   1.000  C
  C24      1.0000 0.87130  0.94690  0.93920  Biso   1.000  C
  C25      1.0000 0.20420  0.17950  0.03470  Biso   1.000  C
  C26      1.0000 0.79580  0.82050  0.96530  Biso   1.000  C
  N17      1.0000 0.15390  0.49200  0.57680  Biso   1.000  N
  N18      1.0000 0.84610  0.50800  0.42320  Biso   1.000  N
  N19      1.0000 0.84520  0.46210  0.67610  Biso   1.000  N
  N20      1.0000 0.15480  0.53790  0.32390  Biso   1.000  N
  C27      1.0000 0.11580  0.55150  0.68950  Biso   1.000  C
  C28      1.0000 0.88420  0.44850  0.31050  Biso   1.000  C
  C29      1.0000 0.98890  0.48680  0.80140  Biso   1.000  C
  C30      1.0000 0.01110  0.51320  0.19860  Biso   1.000  C
  C31      1.0000 0.84330  0.52020  0.78010  Biso   1.000  C
  C32      1.0000 0.15670  0.47980  0.21990  Biso   1.000  C
  O1       1.0000 0.45990  0.45140  0.90410  Biso   1.000  O
  O2       1.0000 0.54010  0.54860  0.09590  Biso   1.000  O
  H1       1.0000 0.36750  0.78980  0.12710  Biso   1.000  H
  H2       1.0000 0.63250  0.21020  0.87290  Biso   1.000  H
  H3       1.0000 0.34080  0.84060  0.99730  Biso   1.000  H
  H4       1.0000 0.65920  0.15940  0.00270  Biso   1.000  H
  H5       1.0000 0.35820  0.15960  0.86890  Biso   1.000  H
  H6       1.0000 0.64180  0.84040  0.13110  Biso   1.000  H
  H7       1.0000 0.39810  0.24870  0.93810  Biso   1.000  H
  H8       1.0000 0.60190  0.75130  0.06190  Biso   1.000  H
  H9       1.0000 0.17580  0.93530  0.21620  Biso   1.000  H
  H10      1.0000 0.82420  0.06470  0.78380  Biso   1.000  H
  H11      1.0000 0.12400  0.84830  0.15310  Biso   1.000  H
  H12      1.0000 0.87600  0.15170  0.84690  Biso   1.000  H
  H13      1.0000 0.02630  0.07470  0.10660  Biso   1.000  H
  H14      1.0000 0.97370  0.92530  0.89340  Biso   1.000  H
  H15      1.0000 0.14120  0.03680  0.98030  Biso   1.000  H
  H16      1.0000 0.85880  0.96320  0.01970  Biso   1.000  H
  H17      1.0000 0.15270  0.26070  0.99600  Biso   1.000  H
  H18      1.0000 0.84730  0.73930  0.00400  Biso   1.000  H
  H19      1.0000 0.20110  0.19130  0.11410  Biso   1.000  H
  H20      1.0000 0.79890  0.80870  0.88590  Biso   1.000  H
  H21      1.0000 0.23230  0.53980  0.51010  Biso   1.000  H
  H22      1.0000 0.76770  0.46020  0.48990  Biso   1.000  H
  H23      1.0000 0.18870  0.39490  0.60060  Biso   1.000  H
  H24      1.0000 0.81130  0.60510  0.39940  Biso   1.000  H
  H25      1.0000 0.08890  0.65050  0.66660  Biso   1.000  H
  H26      1.0000 0.91110  0.34950  0.33340  Biso   1.000  H
  H27      1.0000 0.19990  0.53390  0.71440  Biso   1.000  H
  H28      1.0000 0.80010  0.46610  0.28560  Biso   1.000  H
  H29      1.0000 0.97670  0.52050  0.87400  Biso   1.000  H
  H30      1.0000 0.02330  0.47950  0.12600  Biso   1.000  H
  H31      1.0000 0.01360  0.38700  0.81880  Biso   1.000  H
  H32      1.0000 0.98640  0.61300  0.18120  Biso   1.000  H
  H33      1.0000 0.76880  0.48160  0.85760  Biso   1.000  H
  H34      1.0000 0.23120  0.51840  0.14240  Biso   1.000  H
  H35      1.0000 0.82040  0.62000  0.75870  Biso   1.000  H
  H36      1.0000 0.17960  0.38000  0.24130  Biso   1.000  H
  H37      1.0000 0.85230  0.36230  0.70660  Biso   1.000  H
  H38      1.0000 0.14770  0.63770  0.29340  Biso   1.000  H
  H39      1.0000 0.75250  0.49630  0.66530  Biso   1.000  H
  H40      1.0000 0.24750  0.50370  0.33470  Biso   1.000  H
