data_image0
_cell_length_a       29.9341
_cell_length_b       28.039
_cell_length_c       7.9233
_cell_angle_alpha    90
_cell_angle_beta     90
_cell_angle_gamma    90

_symmetry_space_group_name_H-M    "P 1"
_symmetry_int_tables_number       1

loop_
  _symmetry_equiv_pos_as_xyz
  'x, y, z'

loop_
  _atom_site_label
  _atom_site_occupancy
  _atom_site_fract_x
  _atom_site_fract_y
  _atom_site_fract_z
  _atom_site_thermal_displace_type
  _atom_site_B_iso_or_equiv
  _atom_site_type_symbol
  Cu1      1.0000 0.50000  0.17641  0.75000  Biso   1.000  Cu
  Cu2      1.0000 0.50000  0.82359  0.25000  Biso   1.000  Cu
  Cu3      1.0000 0.00000  0.67641  0.75000  Biso   1.000  Cu
  Cu4      1.0000 0.00000  0.32359  0.25000  Biso   1.000  Cu
  Si1      1.0000 0.50000  0.17744  0.25000  Biso   1.000  Si
  Si2      1.0000 0.50000  0.82256  0.75000  Biso   1.000  Si
  Si3      1.0000 0.00000  0.67744  0.25000  Biso   1.000  Si
  Si4      1.0000 0.00000  0.32256  0.75000  Biso   1.000  Si
  F1       1.0000 0.50000  0.17722  0.46250  Biso   1.000  F
  F2       1.0000 0.50000  0.82278  0.96250  Biso   1.000  F
  F3       1.0000 0.50000  0.82278  0.53750  Biso   1.000  F
  F4       1.0000 0.50000  0.17722  0.03750  Biso   1.000  F
  F5       1.0000 0.00000  0.67722  0.46250  Biso   1.000  F
  F6       1.0000 0.00000  0.32278  0.96250  Biso   1.000  F
  F7       1.0000 0.00000  0.32278  0.53750  Biso   1.000  F
  F8       1.0000 0.00000  0.67722  0.03750  Biso   1.000  F
  F9       1.0000 0.50000  0.11778  0.25000  Biso   1.000  F
  F10      1.0000 0.50000  0.88222  0.75000  Biso   1.000  F
  F11      1.0000 0.00000  0.61778  0.25000  Biso   1.000  F
  F12      1.0000 0.00000  0.38222  0.75000  Biso   1.000  F
  F13      1.0000 0.44469  0.17600  0.25000  Biso   1.000  F
  F14      1.0000 0.55531  0.82400  0.75000  Biso   1.000  F
  F15      1.0000 0.44469  0.82400  0.75000  Biso   1.000  F
  F16      1.0000 0.55531  0.17600  0.25000  Biso   1.000  F
  F17      1.0000 0.94469  0.67600  0.25000  Biso   1.000  F
  F18      1.0000 0.05531  0.32400  0.75000  Biso   1.000  F
  F19      1.0000 0.94469  0.32400  0.75000  Biso   1.000  F
  F20      1.0000 0.05531  0.67600  0.25000  Biso   1.000  F
  F21      1.0000 0.50000  0.23610  0.25000  Biso   1.000  F
  F22      1.0000 0.50000  0.76390  0.75000  Biso   1.000  F
  F23      1.0000 0.00000  0.73610  0.25000  Biso   1.000  F
  F24      1.0000 0.00000  0.26390  0.75000  Biso   1.000  F
  N1       1.0000 0.54803  0.22690  0.75000  Biso   1.000  N
  N2       1.0000 0.45197  0.77310  0.25000  Biso   1.000  N
  N3       1.0000 0.54803  0.77310  0.25000  Biso   1.000  N
  N4       1.0000 0.45197  0.22690  0.75000  Biso   1.000  N
  N5       1.0000 0.04803  0.72690  0.75000  Biso   1.000  N
  N6       1.0000 0.95197  0.27310  0.25000  Biso   1.000  N
  N7       1.0000 0.04803  0.27310  0.25000  Biso   1.000  N
  N8       1.0000 0.95197  0.72690  0.75000  Biso   1.000  N
  N9       1.0000 0.95164  0.62508  0.75000  Biso   1.000  N
  N10      1.0000 0.04836  0.37492  0.25000  Biso   1.000  N
  N11      1.0000 0.95164  0.37492  0.25000  Biso   1.000  N
  N12      1.0000 0.04836  0.62508  0.75000  Biso   1.000  N
  N13      1.0000 0.45164  0.12508  0.75000  Biso   1.000  N
  N14      1.0000 0.54836  0.87492  0.25000  Biso   1.000  N
  N15      1.0000 0.45164  0.87492  0.25000  Biso   1.000  N
  N16      1.0000 0.54836  0.12508  0.75000  Biso   1.000  N
  C1       1.0000 0.56700  0.24230  0.88450  Biso   1.000  C
  C2       1.0000 0.43300  0.75770  0.38450  Biso   1.000  C
  C3       1.0000 0.56700  0.75770  0.11550  Biso   1.000  C
  C4       1.0000 0.43300  0.24230  0.61550  Biso   1.000  C
  C5       1.0000 0.06700  0.74230  0.88450  Biso   1.000  C
  C6       1.0000 0.93300  0.25770  0.38450  Biso   1.000  C
  C7       1.0000 0.06700  0.25770  0.11550  Biso   1.000  C
  C8       1.0000 0.93300  0.74230  0.61550  Biso   1.000  C
  C9       1.0000 0.43300  0.75770  0.11550  Biso   1.000  C
  C10      1.0000 0.56700  0.24230  0.61550  Biso   1.000  C
  C11      1.0000 0.43300  0.24230  0.88450  Biso   1.000  C
  C12      1.0000 0.56700  0.75770  0.38450  Biso   1.000  C
  C13      1.0000 0.93300  0.25770  0.11550  Biso   1.000  C
  C14      1.0000 0.06700  0.74230  0.61550  Biso   1.000  C
  C15      1.0000 0.93300  0.74230  0.88450  Biso   1.000  C
  C16      1.0000 0.06700  0.25770  0.38450  Biso   1.000  C
  H1       1.0000 0.55740  0.22920  0.98890  Biso   1.000  H
  H2       1.0000 0.44260  0.77080  0.48890  Biso   1.000  H
  H3       1.0000 0.55740  0.77080  0.01110  Biso   1.000  H
  H4       1.0000 0.44260  0.22920  0.51110  Biso   1.000  H
  H5       1.0000 0.05740  0.72920  0.98890  Biso   1.000  H
  H6       1.0000 0.94260  0.27080  0.48890  Biso   1.000  H
  H7       1.0000 0.05740  0.27080  0.01110  Biso   1.000  H
  H8       1.0000 0.94260  0.72920  0.51110  Biso   1.000  H
  H9       1.0000 0.44260  0.77080  0.01110  Biso   1.000  H
  H10      1.0000 0.55740  0.22920  0.51110  Biso   1.000  H
  H11      1.0000 0.44260  0.22920  0.98890  Biso   1.000  H
  H12      1.0000 0.55740  0.77080  0.48890  Biso   1.000  H
  H13      1.0000 0.94260  0.27080  0.01110  Biso   1.000  H
  H14      1.0000 0.05740  0.72920  0.51110  Biso   1.000  H
  H15      1.0000 0.94260  0.72920  0.98890  Biso   1.000  H
  H16      1.0000 0.05740  0.27080  0.48890  Biso   1.000  H
  C17      1.0000 0.59990  0.27620  0.89010  Biso   1.000  C
  C18      1.0000 0.40010  0.72380  0.39010  Biso   1.000  C
  C19      1.0000 0.59990  0.72380  0.10990  Biso   1.000  C
  C20      1.0000 0.40010  0.27620  0.60990  Biso   1.000  C
  C21      1.0000 0.09990  0.77620  0.89010  Biso   1.000  C
  C22      1.0000 0.90010  0.22380  0.39010  Biso   1.000  C
  C23      1.0000 0.09990  0.22380  0.10990  Biso   1.000  C
  C24      1.0000 0.90010  0.77620  0.60990  Biso   1.000  C
  C25      1.0000 0.40010  0.72380  0.10990  Biso   1.000  C
  C26      1.0000 0.59990  0.27620  0.60990  Biso   1.000  C
  C27      1.0000 0.40010  0.27620  0.89010  Biso   1.000  C
  C28      1.0000 0.59990  0.72380  0.39010  Biso   1.000  C
  C29      1.0000 0.90010  0.22380  0.10990  Biso   1.000  C
  C30      1.0000 0.09990  0.77620  0.60990  Biso   1.000  C
  C31      1.0000 0.90010  0.77620  0.89010  Biso   1.000  C
  C32      1.0000 0.09990  0.22380  0.39010  Biso   1.000  C
  H17      1.0000 0.61170  0.28600  0.99570  Biso   1.000  H
  H18      1.0000 0.38830  0.71400  0.49570  Biso   1.000  H
  H19      1.0000 0.61170  0.71400  0.00430  Biso   1.000  H
  H20      1.0000 0.38830  0.28600  0.50430  Biso   1.000  H
  H21      1.0000 0.11170  0.78600  0.99570  Biso   1.000  H
  H22      1.0000 0.88830  0.21400  0.49570  Biso   1.000  H
  H23      1.0000 0.11170  0.21400  0.00430  Biso   1.000  H
  H24      1.0000 0.88830  0.78600  0.50430  Biso   1.000  H
  H25      1.0000 0.38830  0.71400  0.00430  Biso   1.000  H
  H26      1.0000 0.61170  0.28600  0.50430  Biso   1.000  H
  H27      1.0000 0.38830  0.28600  0.99570  Biso   1.000  H
  H28      1.0000 0.61170  0.71400  0.49570  Biso   1.000  H
  H29      1.0000 0.88830  0.21400  0.00430  Biso   1.000  H
  H30      1.0000 0.11170  0.78600  0.50430  Biso   1.000  H
  H31      1.0000 0.88830  0.78600  0.99570  Biso   1.000  H
  H32      1.0000 0.11170  0.21400  0.49570  Biso   1.000  H
  C33      1.0000 0.61500  0.29500  0.75000  Biso   1.000  C
  C34      1.0000 0.38500  0.70500  0.25000  Biso   1.000  C
  C35      1.0000 0.61500  0.70500  0.25000  Biso   1.000  C
  C36      1.0000 0.38500  0.29500  0.75000  Biso   1.000  C
  C37      1.0000 0.11500  0.79500  0.75000  Biso   1.000  C
  C38      1.0000 0.88500  0.20500  0.25000  Biso   1.000  C
  C39      1.0000 0.11500  0.20500  0.25000  Biso   1.000  C
  C40      1.0000 0.88500  0.79500  0.75000  Biso   1.000  C
  C41      1.0000 0.65050  0.32860  0.75000  Biso   1.000  C
  C42      1.0000 0.34950  0.67140  0.25000  Biso   1.000  C
  C43      1.0000 0.65050  0.67140  0.25000  Biso   1.000  C
  C44      1.0000 0.34950  0.32860  0.75000  Biso   1.000  C
  C45      1.0000 0.15050  0.82860  0.75000  Biso   1.000  C
  C46      1.0000 0.84950  0.17140  0.25000  Biso   1.000  C
  C47      1.0000 0.15050  0.17140  0.25000  Biso   1.000  C
  C48      1.0000 0.84950  0.82860  0.75000  Biso   1.000  C
  C49      1.0000 0.68180  0.35700  0.75000  Biso   1.000  C
  C50      1.0000 0.31820  0.64300  0.25000  Biso   1.000  C
  C51      1.0000 0.68180  0.64300  0.25000  Biso   1.000  C
  C52      1.0000 0.31820  0.35700  0.75000  Biso   1.000  C
  C53      1.0000 0.18180  0.85700  0.75000  Biso   1.000  C
  C54      1.0000 0.81820  0.14300  0.25000  Biso   1.000  C
  C55      1.0000 0.18180  0.14300  0.25000  Biso   1.000  C
  C56      1.0000 0.81820  0.85700  0.75000  Biso   1.000  C
  C57      1.0000 0.71710  0.39080  0.75000  Biso   1.000  C
  C58      1.0000 0.28290  0.60920  0.25000  Biso   1.000  C
  C59      1.0000 0.71710  0.60920  0.25000  Biso   1.000  C
  C60      1.0000 0.28290  0.39080  0.75000  Biso   1.000  C
  C61      1.0000 0.21710  0.89080  0.75000  Biso   1.000  C
  C62      1.0000 0.78290  0.10920  0.25000  Biso   1.000  C
  C63      1.0000 0.21710  0.10920  0.25000  Biso   1.000  C
  C64      1.0000 0.78290  0.89080  0.75000  Biso   1.000  C
  C65      1.0000 0.73640  0.40480  0.89920  Biso   1.000  C
  C66      1.0000 0.26360  0.59520  0.39920  Biso   1.000  C
  C67      1.0000 0.73640  0.59520  0.10080  Biso   1.000  C
  C68      1.0000 0.26360  0.40480  0.60080  Biso   1.000  C
  C69      1.0000 0.23640  0.90480  0.89920  Biso   1.000  C
  C70      1.0000 0.76360  0.09520  0.39920  Biso   1.000  C
  C71      1.0000 0.23640  0.09520  0.10080  Biso   1.000  C
  C72      1.0000 0.76360  0.90480  0.60080  Biso   1.000  C
  C73      1.0000 0.26360  0.59520  0.10080  Biso   1.000  C
  C74      1.0000 0.73640  0.40480  0.60080  Biso   1.000  C
  C75      1.0000 0.26360  0.40480  0.89920  Biso   1.000  C
  C76      1.0000 0.73640  0.59520  0.39920  Biso   1.000  C
  C77      1.0000 0.76360  0.09520  0.10080  Biso   1.000  C
  C78      1.0000 0.23640  0.90480  0.60080  Biso   1.000  C
  C79      1.0000 0.76360  0.90480  0.89920  Biso   1.000  C
  C80      1.0000 0.23640  0.09520  0.39920  Biso   1.000  C
  H33      1.0000 0.72590  0.39190  0.00270  Biso   1.000  H
  H34      1.0000 0.27410  0.60810  0.50270  Biso   1.000  H
  H35      1.0000 0.72590  0.60810  0.99730  Biso   1.000  H
  H36      1.0000 0.27410  0.39190  0.49730  Biso   1.000  H
  H37      1.0000 0.22590  0.89190  0.00270  Biso   1.000  H
  H38      1.0000 0.77410  0.10810  0.50270  Biso   1.000  H
  H39      1.0000 0.22590  0.10810  0.99730  Biso   1.000  H
  H40      1.0000 0.77410  0.89190  0.49730  Biso   1.000  H
  H41      1.0000 0.27410  0.60810  0.99730  Biso   1.000  H
  H42      1.0000 0.72590  0.39190  0.49730  Biso   1.000  H
  H43      1.0000 0.27410  0.39190  0.00270  Biso   1.000  H
  H44      1.0000 0.72590  0.60810  0.50270  Biso   1.000  H
  H45      1.0000 0.77410  0.10810  0.99730  Biso   1.000  H
  H46      1.0000 0.22590  0.89190  0.49730  Biso   1.000  H
  H47      1.0000 0.77410  0.89190  0.00270  Biso   1.000  H
  H48      1.0000 0.22590  0.10810  0.50270  Biso   1.000  H
  C81      1.0000 0.77110  0.43760  0.90040  Biso   1.000  C
  C82      1.0000 0.22890  0.56240  0.40040  Biso   1.000  C
  C83      1.0000 0.77110  0.56240  0.09960  Biso   1.000  C
  C84      1.0000 0.22890  0.43760  0.59960  Biso   1.000  C
  C85      1.0000 0.27110  0.93760  0.90040  Biso   1.000  C
  C86      1.0000 0.72890  0.06240  0.40040  Biso   1.000  C
  C87      1.0000 0.27110  0.06240  0.09960  Biso   1.000  C
  C88      1.0000 0.72890  0.93760  0.59960  Biso   1.000  C
  C89      1.0000 0.22890  0.56240  0.09960  Biso   1.000  C
  C90      1.0000 0.77110  0.43760  0.59960  Biso   1.000  C
  C91      1.0000 0.22890  0.43760  0.90040  Biso   1.000  C
  C92      1.0000 0.77110  0.56240  0.40040  Biso   1.000  C
  C93      1.0000 0.72890  0.06240  0.09960  Biso   1.000  C
  C94      1.0000 0.27110  0.93760  0.59960  Biso   1.000  C
  C95      1.0000 0.72890  0.93760  0.90040  Biso   1.000  C
  C96      1.0000 0.27110  0.06240  0.40040  Biso   1.000  C
  H49      1.0000 0.78280  0.44860  0.00470  Biso   1.000  H
  H50      1.0000 0.21720  0.55140  0.50470  Biso   1.000  H
  H51      1.0000 0.78280  0.55140  0.99530  Biso   1.000  H
  H52      1.0000 0.21720  0.44860  0.49530  Biso   1.000  H
  H53      1.0000 0.28280  0.94860  0.00470  Biso   1.000  H
  H54      1.0000 0.71720  0.05140  0.50470  Biso   1.000  H
  H55      1.0000 0.28280  0.05140  0.99530  Biso   1.000  H
  H56      1.0000 0.71720  0.94860  0.49530  Biso   1.000  H
  H57      1.0000 0.21720  0.55140  0.99530  Biso   1.000  H
  H58      1.0000 0.78280  0.44860  0.49530  Biso   1.000  H
  H59      1.0000 0.21720  0.44860  0.00470  Biso   1.000  H
  H60      1.0000 0.78280  0.55140  0.50470  Biso   1.000  H
  H61      1.0000 0.71720  0.05140  0.99530  Biso   1.000  H
  H62      1.0000 0.28280  0.94860  0.49530  Biso   1.000  H
  H63      1.0000 0.71720  0.94860  0.00470  Biso   1.000  H
  H64      1.0000 0.28280  0.05140  0.50470  Biso   1.000  H
  C97      1.0000 0.78870  0.45430  0.75000  Biso   1.000  C
  C98      1.0000 0.21130  0.54570  0.25000  Biso   1.000  C
  C99      1.0000 0.78870  0.54570  0.25000  Biso   1.000  C
  C100     1.0000 0.21130  0.45430  0.75000  Biso   1.000  C
  C101     1.0000 0.28870  0.95430  0.75000  Biso   1.000  C
  C102     1.0000 0.71130  0.04570  0.25000  Biso   1.000  C
  C103     1.0000 0.28870  0.04570  0.25000  Biso   1.000  C
  C104     1.0000 0.71130  0.95430  0.75000  Biso   1.000  C
  C105     1.0000 0.82310  0.48830  0.75000  Biso   1.000  C
  C106     1.0000 0.17690  0.51170  0.25000  Biso   1.000  C
  C107     1.0000 0.82310  0.51170  0.25000  Biso   1.000  C
  C108     1.0000 0.17690  0.48830  0.75000  Biso   1.000  C
  C109     1.0000 0.32310  0.98830  0.75000  Biso   1.000  C
  C110     1.0000 0.67690  0.01170  0.25000  Biso   1.000  C
  C111     1.0000 0.32310  0.01170  0.25000  Biso   1.000  C
  C112     1.0000 0.67690  0.98830  0.75000  Biso   1.000  C
  C113     1.0000 0.85260  0.51830  0.75000  Biso   1.000  C
  C114     1.0000 0.14740  0.48170  0.25000  Biso   1.000  C
  C115     1.0000 0.85260  0.48170  0.25000  Biso   1.000  C
  C116     1.0000 0.14740  0.51830  0.75000  Biso   1.000  C
  C117     1.0000 0.35260  0.01830  0.75000  Biso   1.000  C
  C118     1.0000 0.64740  0.98170  0.25000  Biso   1.000  C
  C119     1.0000 0.35260  0.98170  0.25000  Biso   1.000  C
  C120     1.0000 0.64740  0.01830  0.75000  Biso   1.000  C
  C121     1.0000 0.88570  0.55400  0.75000  Biso   1.000  C
  C122     1.0000 0.11430  0.44600  0.25000  Biso   1.000  C
  C123     1.0000 0.88570  0.44600  0.25000  Biso   1.000  C
  C124     1.0000 0.11430  0.55400  0.75000  Biso   1.000  C
  C125     1.0000 0.38570  0.05400  0.75000  Biso   1.000  C
  C126     1.0000 0.61430  0.94600  0.25000  Biso   1.000  C
  C127     1.0000 0.38570  0.94600  0.25000  Biso   1.000  C
  C128     1.0000 0.61430  0.05400  0.75000  Biso   1.000  C
  C129     1.0000 0.90350  0.57190  0.89540  Biso   1.000  C
  C130     1.0000 0.09650  0.42810  0.39540  Biso   1.000  C
  C131     1.0000 0.90350  0.42810  0.10460  Biso   1.000  C
  C132     1.0000 0.09650  0.57190  0.60460  Biso   1.000  C
  C133     1.0000 0.40350  0.07190  0.89540  Biso   1.000  C
  C134     1.0000 0.59650  0.92810  0.39540  Biso   1.000  C
  C135     1.0000 0.40350  0.92810  0.10460  Biso   1.000  C
  C136     1.0000 0.59650  0.07190  0.60460  Biso   1.000  C
  C137     1.0000 0.09650  0.42810  0.10460  Biso   1.000  C
  C138     1.0000 0.90350  0.57190  0.60460  Biso   1.000  C
  C139     1.0000 0.09650  0.57190  0.89540  Biso   1.000  C
  C140     1.0000 0.90350  0.42810  0.39540  Biso   1.000  C
  C141     1.0000 0.59650  0.92810  0.10460  Biso   1.000  C
  C142     1.0000 0.40350  0.07190  0.60460  Biso   1.000  C
  C143     1.0000 0.59650  0.07190  0.89540  Biso   1.000  C
  C144     1.0000 0.40350  0.92810  0.39540  Biso   1.000  C
  H65      1.0000 0.89360  0.56000  0.00130  Biso   1.000  H
  H66      1.0000 0.10640  0.44000  0.50130  Biso   1.000  H
  H67      1.0000 0.89360  0.44000  0.99870  Biso   1.000  H
  H68      1.0000 0.10640  0.56000  0.49870  Biso   1.000  H
  H69      1.0000 0.39360  0.06000  0.00130  Biso   1.000  H
  H70      1.0000 0.60640  0.94000  0.50130  Biso   1.000  H
  H71      1.0000 0.39360  0.94000  0.99870  Biso   1.000  H
  H72      1.0000 0.60640  0.06000  0.49870  Biso   1.000  H
  H73      1.0000 0.10640  0.44000  0.99870  Biso   1.000  H
  H74      1.0000 0.89360  0.56000  0.49870  Biso   1.000  H
  H75      1.0000 0.10640  0.56000  0.00130  Biso   1.000  H
  H76      1.0000 0.89360  0.44000  0.50130  Biso   1.000  H
  H77      1.0000 0.60640  0.94000  0.99870  Biso   1.000  H
  H78      1.0000 0.39360  0.06000  0.49870  Biso   1.000  H
  H79      1.0000 0.60640  0.06000  0.00130  Biso   1.000  H
  H80      1.0000 0.39360  0.94000  0.50130  Biso   1.000  H
  C145     1.0000 0.93530  0.60680  0.89000  Biso   1.000  C
  C146     1.0000 0.06470  0.39320  0.39000  Biso   1.000  C
  C147     1.0000 0.93530  0.39320  0.11000  Biso   1.000  C
  C148     1.0000 0.06470  0.60680  0.61000  Biso   1.000  C
  C149     1.0000 0.43530  0.10680  0.89000  Biso   1.000  C
  C150     1.0000 0.56470  0.89320  0.39000  Biso   1.000  C
  C151     1.0000 0.43530  0.89320  0.11000  Biso   1.000  C
  C152     1.0000 0.56470  0.10680  0.61000  Biso   1.000  C
  C153     1.0000 0.06470  0.39320  0.11000  Biso   1.000  C
  C154     1.0000 0.93530  0.60680  0.61000  Biso   1.000  C
  C155     1.0000 0.06470  0.60680  0.89000  Biso   1.000  C
  C156     1.0000 0.93530  0.39320  0.39000  Biso   1.000  C
  C157     1.0000 0.56470  0.89320  0.11000  Biso   1.000  C
  C158     1.0000 0.43530  0.10680  0.61000  Biso   1.000  C
  C159     1.0000 0.56470  0.10680  0.89000  Biso   1.000  C
  C160     1.0000 0.43530  0.89320  0.39000  Biso   1.000  C
  H81      1.0000 0.94640  0.61860  0.99430  Biso   1.000  H
  H82      1.0000 0.05360  0.38140  0.49430  Biso   1.000  H
  H83      1.0000 0.94640  0.38140  0.00570  Biso   1.000  H
  H84      1.0000 0.05360  0.61860  0.50570  Biso   1.000  H
  H85      1.0000 0.44640  0.11860  0.99430  Biso   1.000  H
  H86      1.0000 0.55360  0.88140  0.49430  Biso   1.000  H
  H87      1.0000 0.44640  0.88140  0.00570  Biso   1.000  H
  H88      1.0000 0.55360  0.11860  0.50570  Biso   1.000  H
  H89      1.0000 0.05360  0.38140  0.00570  Biso   1.000  H
  H90      1.0000 0.94640  0.61860  0.50570  Biso   1.000  H
  H91      1.0000 0.05360  0.61860  0.99430  Biso   1.000  H
  H92      1.0000 0.94640  0.38140  0.49430  Biso   1.000  H
  H93      1.0000 0.55360  0.88140  0.00570  Biso   1.000  H
  H94      1.0000 0.44640  0.11860  0.50570  Biso   1.000  H
  H95      1.0000 0.55360  0.11860  0.99430  Biso   1.000  H
  H96      1.0000 0.44640  0.88140  0.49430  Biso   1.000  H
