data_image0
_cell_length_a       6.8615
_cell_length_b       6.8615
_cell_length_c       7.0268
_cell_angle_alpha    90
_cell_angle_beta     90
_cell_angle_gamma    90

_symmetry_space_group_name_H-M    "P 1"
_symmetry_int_tables_number       1

loop_
  _symmetry_equiv_pos_as_xyz
  'x, y, z'

loop_
  _atom_site_label
  _atom_site_occupancy
  _atom_site_fract_x
  _atom_site_fract_y
  _atom_site_fract_z
  _atom_site_thermal_displace_type
  _atom_site_B_iso_or_equiv
  _atom_site_type_symbol
  Cu1      1.0000 0.50000  0.50000  0.50000  Biso   1.000  Cu
  F1       1.0000 0.50000  0.50000  0.16320  Biso   1.000  F
  F2       1.0000 0.50000  0.50000  0.83680  Biso   1.000  F
  H1       1.0000 0.50000  0.50000  0.00000  Biso   1.000  H
  N1       1.0000 0.79830  0.50000  0.50000  Biso   1.000  N
  N2       1.0000 0.20170  0.50000  0.50000  Biso   1.000  N
  N3       1.0000 0.50000  0.79830  0.50000  Biso   1.000  N
  N4       1.0000 0.50000  0.20170  0.50000  Biso   1.000  N
  C1       1.0000 0.89880  0.50000  0.33780  Biso   1.000  C
  C2       1.0000 0.10120  0.50000  0.33780  Biso   1.000  C
  C3       1.0000 0.50000  0.89880  0.33780  Biso   1.000  C
  C4       1.0000 0.50000  0.10120  0.33780  Biso   1.000  C
  C5       1.0000 0.10120  0.50000  0.66220  Biso   1.000  C
  C6       1.0000 0.89880  0.50000  0.66220  Biso   1.000  C
  C7       1.0000 0.50000  0.89880  0.66220  Biso   1.000  C
  C8       1.0000 0.50000  0.10120  0.66220  Biso   1.000  C
  H2       1.0000 0.83220  0.50000  0.22260  Biso   1.000  H
  H3       1.0000 0.16780  0.50000  0.22260  Biso   1.000  H
  H4       1.0000 0.50000  0.83220  0.22260  Biso   1.000  H
  H5       1.0000 0.50000  0.16780  0.22260  Biso   1.000  H
  H6       1.0000 0.16780  0.50000  0.77740  Biso   1.000  H
  H7       1.0000 0.83220  0.50000  0.77740  Biso   1.000  H
  H8       1.0000 0.50000  0.83220  0.77740  Biso   1.000  H
  H9       1.0000 0.50000  0.16780  0.77740  Biso   1.000  H
  Ta1      1.0000 0.00000  0.00000  0.00000  Biso   1.000  Ta
  F3       1.0000 0.19410  0.19410  0.00000  Biso   1.000  F
  F4       1.0000 0.80590  0.80590  0.00000  Biso   1.000  F
  F5       1.0000 0.80590  0.19410  0.00000  Biso   1.000  F
  F6       1.0000 0.19410  0.80590  0.00000  Biso   1.000  F
  F7       1.0000 0.00000  0.00000  0.73280  Biso   1.000  F
  F8       1.0000 0.00000  0.00000  0.26720  Biso   1.000  F
