data_image0
_cell_length_a       22.3946
_cell_length_b       4.8894
_cell_length_c       16.9441
_cell_angle_alpha    90
_cell_angle_beta     122.616
_cell_angle_gamma    90

_symmetry_space_group_name_H-M    "P 1"
_symmetry_int_tables_number       1

loop_
  _symmetry_equiv_pos_as_xyz
  'x, y, z'

loop_
  _atom_site_label
  _atom_site_occupancy
  _atom_site_fract_x
  _atom_site_fract_y
  _atom_site_fract_z
  _atom_site_thermal_displace_type
  _atom_site_B_iso_or_equiv
  _atom_site_type_symbol
  Cu1      1.0000 0.49248  0.76850  0.54906  Biso   1.000  Cu
  Cu2      1.0000 0.49248  0.23150  0.04906  Biso   1.000  Cu
  Cu3      1.0000 0.99248  0.26850  0.54906  Biso   1.000  Cu
  Cu4      1.0000 0.99248  0.73150  0.04906  Biso   1.000  Cu
  P1       1.0000 0.41616  0.30703  0.40312  Biso   1.000  P
  P2       1.0000 0.41616  0.69297  0.90312  Biso   1.000  P
  P3       1.0000 0.91616  0.80703  0.40312  Biso   1.000  P
  P4       1.0000 0.91616  0.19297  0.90312  Biso   1.000  P
  P5       1.0000 0.34965  0.51941  0.50462  Biso   1.000  P
  P6       1.0000 0.34965  0.48059  0.00462  Biso   1.000  P
  P7       1.0000 0.84965  0.01941  0.50462  Biso   1.000  P
  P8       1.0000 0.84965  0.98059  0.00462  Biso   1.000  P
  O1       1.0000 0.48178  0.47860  0.46264  Biso   1.000  O
  O2       1.0000 0.48178  0.52140  0.96264  Biso   1.000  O
  O3       1.0000 0.98178  0.97860  0.46264  Biso   1.000  O
  O4       1.0000 0.98178  0.02140  0.96264  Biso   1.000  O
  O5       1.0000 0.41872  0.01860  0.43215  Biso   1.000  O
  O6       1.0000 0.41872  0.98140  0.93215  Biso   1.000  O
  O7       1.0000 0.91872  0.51860  0.43215  Biso   1.000  O
  O8       1.0000 0.91872  0.48140  0.93215  Biso   1.000  O
  O9       1.0000 0.40045  0.31580  0.29962  Biso   1.000  O
  O10      1.0000 0.40045  0.68420  0.79962  Biso   1.000  O
  O11      1.0000 0.90045  0.81580  0.29962  Biso   1.000  O
  O12      1.0000 0.90045  0.18420  0.79962  Biso   1.000  O
  H1       1.0000 0.38800  0.17300  0.27500  Biso   1.000  H
  H2       1.0000 0.38800  0.82700  0.77500  Biso   1.000  H
  H3       1.0000 0.88800  0.67300  0.27500  Biso   1.000  H
  H4       1.0000 0.88800  0.32700  0.77500  Biso   1.000  H
  O13      1.0000 0.42445  0.61320  0.57444  Biso   1.000  O
  O14      1.0000 0.42445  0.38680  0.07444  Biso   1.000  O
  O15      1.0000 0.92445  0.11320  0.57444  Biso   1.000  O
  O16      1.0000 0.92445  0.88680  0.07444  Biso   1.000  O
  O17      1.0000 0.32669  0.26480  0.53050  Biso   1.000  O
  O18      1.0000 0.32669  0.73520  0.03050  Biso   1.000  O
  O19      1.0000 0.82669  0.76480  0.53050  Biso   1.000  O
  O20      1.0000 0.82669  0.23520  0.03050  Biso   1.000  O
  O21      1.0000 0.29505  0.75010  0.48896  Biso   1.000  O
  O22      1.0000 0.29505  0.24990  0.98896  Biso   1.000  O
  O23      1.0000 0.79505  0.25010  0.48896  Biso   1.000  O
  O24      1.0000 0.79505  0.74990  0.98896  Biso   1.000  O
  H5       1.0000 0.30780  0.90400  0.49600  Biso   1.000  H
  H6       1.0000 0.30780  0.09600  0.99600  Biso   1.000  H
  H7       1.0000 0.80780  0.40400  0.49600  Biso   1.000  H
  H8       1.0000 0.80780  0.59600  0.99600  Biso   1.000  H
  N1       1.0000 0.52599  0.03220  0.65716  Biso   1.000  N
  N2       1.0000 0.52599  0.96780  0.15716  Biso   1.000  N
  N3       1.0000 0.02599  0.53220  0.65716  Biso   1.000  N
  N4       1.0000 0.02599  0.46780  0.15716  Biso   1.000  N
  N5       1.0000 0.58246  0.90290  0.56067  Biso   1.000  N
  N6       1.0000 0.58246  0.09710  0.06067  Biso   1.000  N
  N7       1.0000 0.08246  0.40290  0.56067  Biso   1.000  N
  N8       1.0000 0.08246  0.59710  0.06067  Biso   1.000  N
  C1       1.0000 0.34091  0.47640  0.39315  Biso   1.000  C
  C2       1.0000 0.34091  0.52360  0.89315  Biso   1.000  C
  C3       1.0000 0.84091  0.97640  0.39315  Biso   1.000  C
  C4       1.0000 0.84091  0.02360  0.89315  Biso   1.000  C
  H9       1.0000 0.29850  0.37060  0.35200  Biso   1.000  H
  H10      1.0000 0.29850  0.62940  0.85200  Biso   1.000  H
  H11      1.0000 0.79850  0.87060  0.35200  Biso   1.000  H
  H12      1.0000 0.79850  0.12940  0.85200  Biso   1.000  H
  H13      1.0000 0.33520  0.65460  0.36470  Biso   1.000  H
  H14      1.0000 0.33520  0.34540  0.86470  Biso   1.000  H
  H15      1.0000 0.83520  0.15460  0.36470  Biso   1.000  H
  H16      1.0000 0.83520  0.84540  0.86470  Biso   1.000  H
  C5       1.0000 0.49609  0.08700  0.70460  Biso   1.000  C
  C6       1.0000 0.49609  0.91300  0.20460  Biso   1.000  C
  C7       1.0000 0.99609  0.58700  0.70460  Biso   1.000  C
  C8       1.0000 0.99609  0.41300  0.20460  Biso   1.000  C
  H17      1.0000 0.45650  0.98720  0.69200  Biso   1.000  H
  H18      1.0000 0.45650  0.01280  0.19200  Biso   1.000  H
  H19      1.0000 0.95650  0.48720  0.69200  Biso   1.000  H
  H20      1.0000 0.95650  0.51280  0.19200  Biso   1.000  H
  C9       1.0000 0.52239  0.29140  0.77370  Biso   1.000  C
  C10      1.0000 0.52239  0.70860  0.27370  Biso   1.000  C
  C11      1.0000 0.02239  0.79140  0.77370  Biso   1.000  C
  C12      1.0000 0.02239  0.20860  0.27370  Biso   1.000  C
  H21      1.0000 0.49980  0.32820  0.80520  Biso   1.000  H
  H22      1.0000 0.49980  0.67180  0.30520  Biso   1.000  H
  H23      1.0000 0.99980  0.82820  0.80520  Biso   1.000  H
  H24      1.0000 0.99980  0.17180  0.30520  Biso   1.000  H
  C13      1.0000 0.58116  0.43570  0.79430  Biso   1.000  C
  C14      1.0000 0.58116  0.56430  0.29430  Biso   1.000  C
  C15      1.0000 0.08116  0.93570  0.79430  Biso   1.000  C
  C16      1.0000 0.08116  0.06430  0.29430  Biso   1.000  C
  H25      1.0000 0.59920  0.56950  0.84060  Biso   1.000  H
  H26      1.0000 0.59920  0.43050  0.34060  Biso   1.000  H
  H27      1.0000 0.09920  0.06950  0.84060  Biso   1.000  H
  H28      1.0000 0.09920  0.93050  0.34060  Biso   1.000  H
  C17      1.0000 0.61445  0.38150  0.74526  Biso   1.000  C
  C18      1.0000 0.61445  0.61850  0.24526  Biso   1.000  C
  C19      1.0000 0.11445  0.88150  0.74526  Biso   1.000  C
  C20      1.0000 0.11445  0.11850  0.24526  Biso   1.000  C
  C21      1.0000 0.58394  0.17550  0.67684  Biso   1.000  C
  C22      1.0000 0.58394  0.82450  0.17684  Biso   1.000  C
  C23      1.0000 0.08394  0.67550  0.67684  Biso   1.000  C
  C24      1.0000 0.08394  0.32450  0.17684  Biso   1.000  C
  C25      1.0000 0.61471  0.10650  0.62461  Biso   1.000  C
  C26      1.0000 0.61471  0.89350  0.12461  Biso   1.000  C
  C27      1.0000 0.11471  0.60650  0.62461  Biso   1.000  C
  C28      1.0000 0.11471  0.39350  0.12461  Biso   1.000  C
  C29      1.0000 0.67553  0.24280  0.64050  Biso   1.000  C
  C30      1.0000 0.67553  0.75720  0.14050  Biso   1.000  C
  C31      1.0000 0.17553  0.74280  0.64050  Biso   1.000  C
  C32      1.0000 0.17553  0.25720  0.14050  Biso   1.000  C
  C33      1.0000 0.70304  0.15940  0.58740  Biso   1.000  C
  C34      1.0000 0.70304  0.84060  0.08740  Biso   1.000  C
  C35      1.0000 0.20304  0.65940  0.58740  Biso   1.000  C
  C36      1.0000 0.20304  0.34060  0.08740  Biso   1.000  C
  H29      1.0000 0.74270  0.24600  0.59460  Biso   1.000  H
  H30      1.0000 0.74270  0.75400  0.09460  Biso   1.000  H
  H31      1.0000 0.24270  0.74600  0.59460  Biso   1.000  H
  H32      1.0000 0.24270  0.25400  0.09460  Biso   1.000  H
  C37      1.0000 0.67142  0.95020  0.52490  Biso   1.000  C
  C38      1.0000 0.67142  0.04980  0.02490  Biso   1.000  C
  C39      1.0000 0.17142  0.45020  0.52490  Biso   1.000  C
  C40      1.0000 0.17142  0.54980  0.02490  Biso   1.000  C
  H33      1.0000 0.69020  0.88990  0.49070  Biso   1.000  H
  H34      1.0000 0.69020  0.11010  0.99070  Biso   1.000  H
  H35      1.0000 0.19020  0.38990  0.49070  Biso   1.000  H
  H36      1.0000 0.19020  0.61010  0.99070  Biso   1.000  H
  C41      1.0000 0.61061  0.82670  0.51260  Biso   1.000  C
  C42      1.0000 0.61061  0.17330  0.01260  Biso   1.000  C
  C43      1.0000 0.11061  0.32670  0.51260  Biso   1.000  C
  C44      1.0000 0.11061  0.67330  0.01260  Biso   1.000  C
  H37      1.0000 0.58920  0.68610  0.46910  Biso   1.000  H
  H38      1.0000 0.58920  0.31390  0.96910  Biso   1.000  H
  H39      1.0000 0.08920  0.18610  0.46910  Biso   1.000  H
  H40      1.0000 0.08920  0.81390  0.96910  Biso   1.000  H
  C45      1.0000 0.70529  0.45460  0.71030  Biso   1.000  C
  C46      1.0000 0.70529  0.54540  0.21030  Biso   1.000  C
  C47      1.0000 0.20529  0.95460  0.71030  Biso   1.000  C
  C48      1.0000 0.20529  0.04540  0.21030  Biso   1.000  C
  H41      1.0000 0.74520  0.54860  0.72140  Biso   1.000  H
  H42      1.0000 0.74520  0.45140  0.22140  Biso   1.000  H
  H43      1.0000 0.24520  0.04860  0.72140  Biso   1.000  H
  H44      1.0000 0.24520  0.95140  0.22140  Biso   1.000  H
  C49      1.0000 0.67617  0.51970  0.76030  Biso   1.000  C
  C50      1.0000 0.67617  0.48030  0.26030  Biso   1.000  C
  C51      1.0000 0.17617  0.01970  0.76030  Biso   1.000  C
  C52      1.0000 0.17617  0.98030  0.26030  Biso   1.000  C
  H45      1.0000 0.69670  0.65680  0.80530  Biso   1.000  H
  H46      1.0000 0.69670  0.34320  0.30530  Biso   1.000  H
  H47      1.0000 0.19670  0.15680  0.80530  Biso   1.000  H
  H48      1.0000 0.19670  0.84320  0.30530  Biso   1.000  H
  O25      1.0000 0.34860  0.84340  0.20326  Biso   1.000  O
  O26      1.0000 0.34860  0.15660  0.70326  Biso   1.000  O
  O27      1.0000 0.84860  0.34340  0.20326  Biso   1.000  O
  O28      1.0000 0.84860  0.65660  0.70326  Biso   1.000  O
  H49      1.0000 0.34600  0.80800  0.15400  Biso   1.000  H
  H50      1.0000 0.34600  0.19200  0.65400  Biso   1.000  H
  H51      1.0000 0.84600  0.30800  0.15400  Biso   1.000  H
  H52      1.0000 0.84600  0.69200  0.65400  Biso   1.000  H
  H53      1.0000 0.35700  0.69800  0.22500  Biso   1.000  H
  H54      1.0000 0.35700  0.30200  0.72500  Biso   1.000  H
  H55      1.0000 0.85700  0.19800  0.22500  Biso   1.000  H
  H56      1.0000 0.85700  0.80200  0.72500  Biso   1.000  H
