data_image0
_cell_length_a       8.9947
_cell_length_b       11.5251
_cell_length_c       12.287
_cell_angle_alpha    105.528
_cell_angle_beta     99.583
_cell_angle_gamma    101.062

_symmetry_space_group_name_H-M    "P 1"
_symmetry_int_tables_number       1

loop_
  _symmetry_equiv_pos_as_xyz
  'x, y, z'

loop_
  _atom_site_label
  _atom_site_occupancy
  _atom_site_fract_x
  _atom_site_fract_y
  _atom_site_fract_z
  _atom_site_thermal_displace_type
  _atom_site_B_iso_or_equiv
  _atom_site_type_symbol
  Cu1      1.0000 0.00000  0.00000  0.50000  Biso   1.000  Cu
  N1       1.0000 0.06108  0.79793  0.32779  Biso   1.000  N
  N2       1.0000 0.93892  0.20207  0.67221  Biso   1.000  N
  N3       1.0000 0.00623  0.82415  0.42168  Biso   1.000  N
  N4       1.0000 0.99377  0.17585  0.57832  Biso   1.000  N
  N5       1.0000 0.02939  0.67454  0.28291  Biso   1.000  N
  N6       1.0000 0.97061  0.32546  0.71709  Biso   1.000  N
  N7       1.0000 0.76397  0.93027  0.48634  Biso   1.000  N
  N8       1.0000 0.23603  0.06973  0.51366  Biso   1.000  N
  C1       1.0000 0.20820  0.55395  0.20391  Biso   1.000  C
  C2       1.0000 0.79180  0.44605  0.79609  Biso   1.000  C
  C3       1.0000 0.36300  0.62014  0.25839  Biso   1.000  C
  C4       1.0000 0.63700  0.37986  0.74161  Biso   1.000  C
  N9       1.0000 0.68226  0.87258  0.37942  Biso   1.000  N
  N10      1.0000 0.31774  0.12742  0.62058  Biso   1.000  N
  N11      1.0000 0.53609  0.82503  0.38440  Biso   1.000  N
  N12      1.0000 0.46391  0.17497  0.61560  Biso   1.000  N
  N13      1.0000 0.06520  0.96972  0.68822  Biso   1.000  N
  N14      1.0000 0.93480  0.03028  0.31178  Biso   1.000  N
  C5       1.0000 0.08020  0.61780  0.17748  Biso   1.000  C
  C6       1.0000 0.91980  0.38220  0.82252  Biso   1.000  C
  H1       1.0000 0.11850  0.68300  0.14320  Biso   1.000  H
  H2       1.0000 0.88150  0.31700  0.85680  Biso   1.000  H
  H3       1.0000 0.99020  0.55630  0.11970  Biso   1.000  H
  H4       1.0000 0.00980  0.44370  0.88030  Biso   1.000  H
  C7       1.0000 0.47180  0.55480  0.28599  Biso   1.000  C
  C8       1.0000 0.52820  0.44520  0.71401  Biso   1.000  C
  H5       1.0000 0.57570  0.59910  0.32550  Biso   1.000  H
  H6       1.0000 0.42430  0.40090  0.67450  Biso   1.000  H
  C9       1.0000 0.95100  0.61725  0.34786  Biso   1.000  C
  C10      1.0000 0.04900  0.38275  0.65214  Biso   1.000  C
  C11      1.0000 0.43080  0.42660  0.25670  Biso   1.000  C
  C12      1.0000 0.56920  0.57340  0.74330  Biso   1.000  C
  H7       1.0000 0.50650  0.38360  0.27600  Biso   1.000  H
  H8       1.0000 0.49350  0.61640  0.72400  Biso   1.000  H
  C13      1.0000 0.93770  0.71449  0.43924  Biso   1.000  C
  C14      1.0000 0.06230  0.28551  0.56076  Biso   1.000  C
  C15      1.0000 0.16910  0.42480  0.17394  Biso   1.000  C
  C16      1.0000 0.83090  0.57520  0.82606  Biso   1.000  C
  H9       1.0000 0.06510  0.37970  0.13540  Biso   1.000  H
  H10      1.0000 0.93490  0.62030  0.86460  Biso   1.000  H
  C17      1.0000 0.27980  0.36070  0.19950  Biso   1.000  C
  C18      1.0000 0.72020  0.63930  0.80050  Biso   1.000  C
  H11      1.0000 0.25200  0.27240  0.17780  Biso   1.000  H
  H12      1.0000 0.74800  0.72760  0.82220  Biso   1.000  H
  C19      1.0000 0.41540  0.75861  0.27796  Biso   1.000  C
  C20      1.0000 0.58460  0.24139  0.72204  Biso   1.000  C
  H13      1.0000 0.45560  0.77190  0.21080  Biso   1.000  H
  H14      1.0000 0.54440  0.22810  0.78920  Biso   1.000  H
  H15      1.0000 0.32410  0.79460  0.28130  Biso   1.000  H
  H16      1.0000 0.67590  0.20540  0.71870  Biso   1.000  H
  C21      1.0000 0.86330  0.69019  0.52549  Biso   1.000  C
  C22      1.0000 0.13670  0.30981  0.47451  Biso   1.000  C
  H17      1.0000 0.85610  0.75520  0.58940  Biso   1.000  H
  H18      1.0000 0.14390  0.24480  0.41060  Biso   1.000  H
  C23      1.0000 0.88780  0.49241  0.33452  Biso   1.000  C
  C24      1.0000 0.11220  0.50759  0.66548  Biso   1.000  C
  H19      1.0000 0.89590  0.42700  0.27140  Biso   1.000  H
  H20      1.0000 0.10410  0.57300  0.72860  Biso   1.000  H
  C25      1.0000 0.66920  0.91890  0.56269  Biso   1.000  C
  C26      1.0000 0.33080  0.08110  0.43731  Biso   1.000  C
  C27      1.0000 0.11800  0.01360  0.78460  Biso   1.000  C
  C28      1.0000 0.88200  0.98640  0.21540  Biso   1.000  C
  C29      1.0000 0.69640  0.96030  0.68463  Biso   1.000  C
  C30      1.0000 0.30360  0.03970  0.31537  Biso   1.000  C
  H21      1.0000 0.79610  0.00670  0.73170  Biso   1.000  H
  H22      1.0000 0.20390  0.99330  0.26830  Biso   1.000  H
  C31      1.0000 0.80130  0.56720  0.51239  Biso   1.000  C
  C32      1.0000 0.19870  0.43280  0.48761  Biso   1.000  C
  H23      1.0000 0.74890  0.54690  0.56840  Biso   1.000  H
  H24      1.0000 0.25110  0.45310  0.43160  Biso   1.000  H
  C33      1.0000 0.52150  0.85078  0.49566  Biso   1.000  C
  C34      1.0000 0.47850  0.14922  0.50434  Biso   1.000  C
  C35      1.0000 0.81330  0.47020  0.41818  Biso   1.000  C
  C36      1.0000 0.18670  0.52980  0.58182  Biso   1.000  C
  H25      1.0000 0.76810  0.38670  0.41270  Biso   1.000  H
  H26      1.0000 0.23190  0.61330  0.58730  Biso   1.000  H
  C37      1.0000 0.42230  0.86240  0.66336  Biso   1.000  C
  C38      1.0000 0.57770  0.13760  0.33664  Biso   1.000  C
  H27      1.0000 0.33960  0.84450  0.70010  Biso   1.000  H
  H28      1.0000 0.66040  0.15550  0.29990  Biso   1.000  H
  C39      1.0000 0.39400  0.82180  0.54487  Biso   1.000  C
  C40      1.0000 0.60600  0.17820  0.45513  Biso   1.000  C
  H29      1.0000 0.29370  0.77650  0.49820  Biso   1.000  H
  H30      1.0000 0.70630  0.22350  0.50180  Biso   1.000  H
  C41      1.0000 0.18210  0.07370  0.90830  Biso   1.000  C
  C42      1.0000 0.81790  0.92630  0.09170  Biso   1.000  C
  H31      1.0000 0.29610  0.09400  0.92400  Biso   1.000  H
  H32      1.0000 0.70390  0.90600  0.07600  Biso   1.000  H
  H33      1.0000 0.14600  0.01750  0.95110  Biso   1.000  H
  H34      1.0000 0.85400  0.98250  0.04890  Biso   1.000  H
  H35      1.0000 0.14750  0.15020  0.93330  Biso   1.000  H
  H36      1.0000 0.85250  0.84980  0.06670  Biso   1.000  H
  C43      1.0000 0.57200  0.93060  0.73267  Biso   1.000  C
  C44      1.0000 0.42800  0.06940  0.26733  Biso   1.000  C
  H37      1.0000 0.58710  0.95650  0.81480  Biso   1.000  H
  H38      1.0000 0.41290  0.04350  0.18520  Biso   1.000  H
  Cl1      1.0000 0.26629  0.77899  0.96916  Biso   1.000  Cl
  Cl2      1.0000 0.73371  0.22101  0.03084  Biso   1.000  Cl
  O1       1.0000 0.23280  0.65057  0.96472  Biso   1.000  O
  O2       1.0000 0.76720  0.34943  0.03528  Biso   1.000  O
  O3       1.0000 0.18260  0.84293  0.04640  Biso   1.000  O
  O4       1.0000 0.81740  0.15707  0.95360  Biso   1.000  O
  O5       1.0000 0.21370  0.78687  0.85575  Biso   1.000  O
  O6       1.0000 0.78630  0.21313  0.14425  Biso   1.000  O
  O7       1.0000 0.42740  0.83440  0.01360  Biso   1.000  O
  O8       1.0000 0.57260  0.16560  0.98640  Biso   1.000  O
  N15      1.0000 0.50000  0.50000  0.00000  Biso   1.000  N
  C45      1.0000 0.59610  0.56210  0.05200  Biso   1.000  C
  C46      1.0000 0.40390  0.43790  0.94800  Biso   1.000  C
  C47      1.0000 0.71690  0.64880  0.11830  Biso   1.000  C
  C48      1.0000 0.28310  0.35120  0.88170  Biso   1.000  C
  H39      1.0000 0.80000  0.65600  0.07620  Biso   1.000  H
  H40      1.0000 0.20000  0.34400  0.92380  Biso   1.000  H
  H41      1.0000 0.75370  0.62750  0.18830  Biso   1.000  H
  H42      1.0000 0.24630  0.37250  0.81170  Biso   1.000  H
  H43      1.0000 0.68800  0.72820  0.14020  Biso   1.000  H
  H44      1.0000 0.31200  0.27180  0.85980  Biso   1.000  H
