data_image0
_cell_length_a       10.8479
_cell_length_b       14.9136
_cell_length_c       15.1286
_cell_angle_alpha    90
_cell_angle_beta     103.517
_cell_angle_gamma    90

_symmetry_space_group_name_H-M    "P 1"
_symmetry_int_tables_number       1

loop_
  _symmetry_equiv_pos_as_xyz
  'x, y, z'

loop_
  _atom_site_label
  _atom_site_occupancy
  _atom_site_fract_x
  _atom_site_fract_y
  _atom_site_fract_z
  _atom_site_thermal_displace_type
  _atom_site_B_iso_or_equiv
  _atom_site_type_symbol
  Cu1      1.0000 0.56413  0.43413  0.92782  Biso   1.000  Cu
  Cu2      1.0000 0.93587  0.93413  0.57218  Biso   1.000  Cu
  Cu3      1.0000 0.43587  0.56587  0.07218  Biso   1.000  Cu
  Cu4      1.0000 0.06413  0.06587  0.42782  Biso   1.000  Cu
  O1       1.0000 0.71607  0.46006  0.88323  Biso   1.000  O
  O2       1.0000 0.78393  0.96006  0.61677  Biso   1.000  O
  O3       1.0000 0.28393  0.53994  0.11677  Biso   1.000  O
  O4       1.0000 0.21607  0.03994  0.38323  Biso   1.000  O
  O5       1.0000 0.81472  0.41170  0.78471  Biso   1.000  O
  O6       1.0000 0.68528  0.91170  0.71529  Biso   1.000  O
  O7       1.0000 0.18528  0.58830  0.21529  Biso   1.000  O
  O8       1.0000 0.31472  0.08830  0.28471  Biso   1.000  O
  O9       1.0000 0.66332  0.33232  0.81785  Biso   1.000  O
  O10      1.0000 0.83668  0.83232  0.68215  Biso   1.000  O
  O11      1.0000 0.33668  0.66768  0.18215  Biso   1.000  O
  O12      1.0000 0.16332  0.16768  0.31785  Biso   1.000  O
  O13      1.0000 0.41493  0.42828  0.98220  Biso   1.000  O
  O14      1.0000 0.08507  0.92828  0.51780  Biso   1.000  O
  O15      1.0000 0.58507  0.57172  0.01780  Biso   1.000  O
  O16      1.0000 0.91493  0.07172  0.48220  Biso   1.000  O
  O17      1.0000 0.38496  0.31247  0.89341  Biso   1.000  O
  O18      1.0000 0.11504  0.81247  0.60659  Biso   1.000  O
  O19      1.0000 0.61504  0.68753  0.10659  Biso   1.000  O
  O20      1.0000 0.88496  0.18753  0.39341  Biso   1.000  O
  O21      1.0000 0.24378  0.34910  0.96847  Biso   1.000  O
  O22      1.0000 0.25622  0.84910  0.53153  Biso   1.000  O
  O23      1.0000 0.75622  0.65090  0.03153  Biso   1.000  O
  O24      1.0000 0.74378  0.15090  0.46847  Biso   1.000  O
  N1       1.0000 0.20029  0.26350  0.60470  Biso   1.000  N
  N2       1.0000 0.29971  0.76350  0.89530  Biso   1.000  N
  N3       1.0000 0.79971  0.73650  0.39530  Biso   1.000  N
  N4       1.0000 0.70029  0.23650  0.10470  Biso   1.000  N
  N5       1.0000 0.11129  0.21756  0.54607  Biso   1.000  N
  N6       1.0000 0.38871  0.71756  0.95393  Biso   1.000  N
  N7       1.0000 0.88871  0.78244  0.45393  Biso   1.000  N
  N8       1.0000 0.61129  0.28244  0.04607  Biso   1.000  N
  N9       1.0000 0.16303  0.14262  0.52718  Biso   1.000  N
  N10      1.0000 0.33697  0.64262  0.97282  Biso   1.000  N
  N11      1.0000 0.83697  0.85738  0.47282  Biso   1.000  N
  N12      1.0000 0.66303  0.35738  0.02718  Biso   1.000  N
  N13      1.0000 0.29366  0.55302  0.73359  Biso   1.000  N
  N14      1.0000 0.20634  0.05302  0.76641  Biso   1.000  N
  N15      1.0000 0.70634  0.44698  0.26641  Biso   1.000  N
  N16      1.0000 0.79366  0.94698  0.23359  Biso   1.000  N
  N17      1.0000 0.34304  0.48652  0.78965  Biso   1.000  N
  N18      1.0000 0.15696  0.98652  0.71035  Biso   1.000  N
  N19      1.0000 0.65696  0.51348  0.21035  Biso   1.000  N
  N20      1.0000 0.84304  0.01348  0.28965  Biso   1.000  N
  N21      1.0000 0.46099  0.50726  0.82776  Biso   1.000  N
  N22      1.0000 0.03901  0.00726  0.67224  Biso   1.000  N
  N23      1.0000 0.53901  0.49274  0.17224  Biso   1.000  N
  N24      1.0000 0.96099  0.99274  0.32776  Biso   1.000  N
  N25      1.0000 0.34467  0.36046  0.94700  Biso   1.000  N
  N26      1.0000 0.15533  0.86046  0.55300  Biso   1.000  N
  N27      1.0000 0.65533  0.63954  0.05300  Biso   1.000  N
  N28      1.0000 0.84467  0.13954  0.44700  Biso   1.000  N
  N29      1.0000 0.73170  0.39928  0.82660  Biso   1.000  N
  N30      1.0000 0.76830  0.89928  0.67340  Biso   1.000  N
  N31      1.0000 0.26830  0.60072  0.17340  Biso   1.000  N
  N32      1.0000 0.23170  0.10072  0.32660  Biso   1.000  N
  C1       1.0000 0.31213  0.21778  0.62495  Biso   1.000  C
  C2       1.0000 0.18787  0.71778  0.87505  Biso   1.000  C
  C3       1.0000 0.68787  0.78222  0.37505  Biso   1.000  C
  C4       1.0000 0.81213  0.28222  0.12495  Biso   1.000  C
  C5       1.0000 0.43000  0.23593  0.68276  Biso   1.000  C
  C6       1.0000 0.07000  0.73593  0.81724  Biso   1.000  C
  C7       1.0000 0.57000  0.76407  0.31724  Biso   1.000  C
  C8       1.0000 0.93000  0.26407  0.18276  Biso   1.000  C
  H1       1.0000 0.44550  0.28910  0.71820  Biso   1.000  H
  H2       1.0000 0.05450  0.78910  0.78180  Biso   1.000  H
  H3       1.0000 0.55450  0.71090  0.28180  Biso   1.000  H
  H4       1.0000 0.94550  0.21090  0.21820  Biso   1.000  H
  C9       1.0000 0.52190  0.17218  0.68521  Biso   1.000  C
  C10      1.0000 0.97810  0.67218  0.81479  Biso   1.000  C
  C11      1.0000 0.47810  0.82782  0.31479  Biso   1.000  C
  C12      1.0000 0.02190  0.32782  0.18521  Biso   1.000  C
  H5       1.0000 0.60420  0.18220  0.72270  Biso   1.000  H
  H6       1.0000 0.89580  0.68220  0.77730  Biso   1.000  H
  H7       1.0000 0.39580  0.81780  0.27730  Biso   1.000  H
  H8       1.0000 0.10420  0.31780  0.22270  Biso   1.000  H
  C13      1.0000 0.49860  0.09239  0.63409  Biso   1.000  C
  C14      1.0000 0.00140  0.59239  0.86591  Biso   1.000  C
  C15      1.0000 0.50140  0.90761  0.36591  Biso   1.000  C
  C16      1.0000 0.99860  0.40761  0.13409  Biso   1.000  C
  H9       1.0000 0.56550  0.05030  0.63810  Biso   1.000  H
  H10      1.0000 0.93450  0.55030  0.86190  Biso   1.000  H
  H11      1.0000 0.43450  0.94970  0.36190  Biso   1.000  H
  H12      1.0000 0.06550  0.44970  0.13810  Biso   1.000  H
  C17      1.0000 0.38160  0.07362  0.57841  Biso   1.000  C
  C18      1.0000 0.11840  0.57362  0.92159  Biso   1.000  C
  C19      1.0000 0.61840  0.92638  0.42159  Biso   1.000  C
  C20      1.0000 0.88160  0.42638  0.07841  Biso   1.000  C
  H13      1.0000 0.36540  0.01940  0.54470  Biso   1.000  H
  H14      1.0000 0.13460  0.51940  0.95530  Biso   1.000  H
  H15      1.0000 0.63460  0.98060  0.45530  Biso   1.000  H
  H16      1.0000 0.86540  0.48060  0.04470  Biso   1.000  H
  C21      1.0000 0.28794  0.13916  0.57440  Biso   1.000  C
  C22      1.0000 0.21206  0.63916  0.92560  Biso   1.000  C
  C23      1.0000 0.71206  0.86084  0.42560  Biso   1.000  C
  C24      1.0000 0.78794  0.36084  0.07440  Biso   1.000  C
  C25      1.0000 0.17140  0.35356  0.63149  Biso   1.000  C
  C26      1.0000 0.32860  0.85356  0.86851  Biso   1.000  C
  C27      1.0000 0.82860  0.64644  0.36851  Biso   1.000  C
  C28      1.0000 0.67140  0.14644  0.13149  Biso   1.000  C
  H17      1.0000 0.23390  0.37020  0.68790  Biso   1.000  H
  H18      1.0000 0.26610  0.87020  0.81210  Biso   1.000  H
  H19      1.0000 0.76610  0.62980  0.31210  Biso   1.000  H
  H20      1.0000 0.73390  0.12980  0.18790  Biso   1.000  H
  H21      1.0000 0.08650  0.35310  0.64520  Biso   1.000  H
  H22      1.0000 0.41350  0.85310  0.85480  Biso   1.000  H
  H23      1.0000 0.91350  0.64690  0.35480  Biso   1.000  H
  H24      1.0000 0.58650  0.14690  0.14520  Biso   1.000  H
  C29      1.0000 0.17311  0.42415  0.55974  Biso   1.000  C
  C30      1.0000 0.32689  0.92415  0.94026  Biso   1.000  C
  C31      1.0000 0.82689  0.57585  0.44026  Biso   1.000  C
  C32      1.0000 0.67311  0.07585  0.05974  Biso   1.000  C
  C33      1.0000 0.17880  0.40136  0.47119  Biso   1.000  C
  C34      1.0000 0.32120  0.90136  0.02881  Biso   1.000  C
  C35      1.0000 0.82120  0.59864  0.52881  Biso   1.000  C
  C36      1.0000 0.67880  0.09864  0.97119  Biso   1.000  C
  H25      1.0000 0.18390  0.34000  0.45540  Biso   1.000  H
  H26      1.0000 0.31610  0.84000  0.04460  Biso   1.000  H
  H27      1.0000 0.81610  0.66000  0.54460  Biso   1.000  H
  H28      1.0000 0.68390  0.16000  0.95540  Biso   1.000  H
  C37      1.0000 0.17700  0.46691  0.40607  Biso   1.000  C
  C38      1.0000 0.32300  0.96691  0.09393  Biso   1.000  C
  C39      1.0000 0.82300  0.53309  0.59393  Biso   1.000  C
  C40      1.0000 0.67700  0.03309  0.90607  Biso   1.000  C
  H29      1.0000 0.18440  0.45050  0.34680  Biso   1.000  H
  H30      1.0000 0.31560  0.95050  0.15320  Biso   1.000  H
  H31      1.0000 0.81560  0.54950  0.65320  Biso   1.000  H
  H32      1.0000 0.68440  0.04950  0.84680  Biso   1.000  H
  C41      1.0000 0.16460  0.55579  0.42686  Biso   1.000  C
  C42      1.0000 0.33540  0.05579  0.07314  Biso   1.000  C
  C43      1.0000 0.83540  0.44421  0.57314  Biso   1.000  C
  C44      1.0000 0.66460  0.94421  0.92686  Biso   1.000  C
  H33      1.0000 0.16100  0.60070  0.38180  Biso   1.000  H
  H34      1.0000 0.33900  0.10070  0.11820  Biso   1.000  H
  H35      1.0000 0.83900  0.39930  0.61820  Biso   1.000  H
  H36      1.0000 0.66100  0.89930  0.88180  Biso   1.000  H
  C45      1.0000 0.15730  0.57930  0.51420  Biso   1.000  C
  C46      1.0000 0.34270  0.07930  0.98580  Biso   1.000  C
  C47      1.0000 0.84270  0.42070  0.48580  Biso   1.000  C
  C48      1.0000 0.65730  0.92070  0.01420  Biso   1.000  C
  H37      1.0000 0.14770  0.64060  0.52840  Biso   1.000  H
  H38      1.0000 0.35230  0.14060  0.97160  Biso   1.000  H
  H39      1.0000 0.85230  0.35940  0.47160  Biso   1.000  H
  H40      1.0000 0.64770  0.85940  0.02840  Biso   1.000  H
  C49      1.0000 0.16386  0.51493  0.58094  Biso   1.000  C
  C50      1.0000 0.33614  0.01493  0.91906  Biso   1.000  C
  C51      1.0000 0.83614  0.48507  0.41906  Biso   1.000  C
  C52      1.0000 0.66386  0.98507  0.08094  Biso   1.000  C
  C53      1.0000 0.16388  0.54539  0.67660  Biso   1.000  C
  C54      1.0000 0.33612  0.04539  0.82340  Biso   1.000  C
  C55      1.0000 0.83612  0.45461  0.32340  Biso   1.000  C
  C56      1.0000 0.66388  0.95461  0.17660  Biso   1.000  C
  H41      1.0000 0.12110  0.60430  0.67390  Biso   1.000  H
  H42      1.0000 0.37890  0.10430  0.82610  Biso   1.000  H
  H43      1.0000 0.87890  0.39570  0.32610  Biso   1.000  H
  H44      1.0000 0.62110  0.89570  0.17390  Biso   1.000  H
  H45      1.0000 0.11540  0.50190  0.70460  Biso   1.000  H
  H46      1.0000 0.38460  0.00190  0.79540  Biso   1.000  H
  H47      1.0000 0.88460  0.49810  0.29540  Biso   1.000  H
  H48      1.0000 0.61540  0.99810  0.20460  Biso   1.000  H
  C57      1.0000 0.38075  0.61935  0.73498  Biso   1.000  C
  C58      1.0000 0.11925  0.11935  0.76502  Biso   1.000  C
  C59      1.0000 0.61925  0.38065  0.26502  Biso   1.000  C
  C60      1.0000 0.88075  0.88065  0.23498  Biso   1.000  C
  C61      1.0000 0.37490  0.70215  0.69116  Biso   1.000  C
  C62      1.0000 0.12510  0.20215  0.80884  Biso   1.000  C
  C63      1.0000 0.62510  0.29785  0.30884  Biso   1.000  C
  C64      1.0000 0.87490  0.79785  0.19116  Biso   1.000  C
  H49      1.0000 0.29960  0.72300  0.65080  Biso   1.000  H
  H50      1.0000 0.20040  0.22300  0.84920  Biso   1.000  H
  H51      1.0000 0.70040  0.27700  0.34920  Biso   1.000  H
  H52      1.0000 0.79960  0.77700  0.15080  Biso   1.000  H
  C65      1.0000 0.48470  0.75168  0.71000  Biso   1.000  C
  C66      1.0000 0.01530  0.25168  0.79000  Biso   1.000  C
  C67      1.0000 0.51530  0.24832  0.29000  Biso   1.000  C
  C68      1.0000 0.98470  0.74832  0.21000  Biso   1.000  C
  H53      1.0000 0.48600  0.80820  0.68120  Biso   1.000  H
  H54      1.0000 0.01400  0.30820  0.81880  Biso   1.000  H
  H55      1.0000 0.51400  0.19180  0.31880  Biso   1.000  H
  H56      1.0000 0.98600  0.69180  0.18120  Biso   1.000  H
  C69      1.0000 0.59580  0.72085  0.77100  Biso   1.000  C
  C70      1.0000 0.90420  0.22085  0.72900  Biso   1.000  C
  C71      1.0000 0.40420  0.27915  0.22900  Biso   1.000  C
  C72      1.0000 0.09580  0.77915  0.27100  Biso   1.000  C
  H57      1.0000 0.66970  0.75720  0.78170  Biso   1.000  H
  H58      1.0000 0.83030  0.25720  0.71830  Biso   1.000  H
  H59      1.0000 0.33030  0.24280  0.21830  Biso   1.000  H
  H60      1.0000 0.16970  0.74280  0.28170  Biso   1.000  H
  C73      1.0000 0.60070  0.64080  0.81504  Biso   1.000  C
  C74      1.0000 0.89930  0.14080  0.68496  Biso   1.000  C
  C75      1.0000 0.39930  0.35920  0.18496  Biso   1.000  C
  C76      1.0000 0.10070  0.85920  0.31504  Biso   1.000  C
  H61      1.0000 0.67550  0.62100  0.85660  Biso   1.000  H
  H62      1.0000 0.82450  0.12100  0.64340  Biso   1.000  H
  H63      1.0000 0.32450  0.37900  0.14340  Biso   1.000  H
  H64      1.0000 0.17550  0.87900  0.35660  Biso   1.000  H
  C77      1.0000 0.48980  0.58936  0.79591  Biso   1.000  C
  C78      1.0000 0.01020  0.08936  0.70409  Biso   1.000  C
  C79      1.0000 0.51020  0.41064  0.20409  Biso   1.000  C
  C80      1.0000 0.98980  0.91064  0.29591  Biso   1.000  C
  N33      1.0000 0.49430  0.45711  0.62697  Biso   1.000  N
  N34      1.0000 0.00570  0.95711  0.87303  Biso   1.000  N
  N35      1.0000 0.50570  0.54289  0.37303  Biso   1.000  N
  N36      1.0000 0.99430  0.04289  0.12697  Biso   1.000  N
  C81      1.0000 0.50730  0.40990  0.57230  Biso   1.000  C
  C82      1.0000 0.99270  0.90990  0.92770  Biso   1.000  C
  C83      1.0000 0.49270  0.59010  0.42770  Biso   1.000  C
  C84      1.0000 0.00730  0.09010  0.07230  Biso   1.000  C
  C85      1.0000 0.52100  0.34710  0.50080  Biso   1.000  C
  C86      1.0000 0.97900  0.84710  0.99920  Biso   1.000  C
  C87      1.0000 0.47900  0.65290  0.49920  Biso   1.000  C
  C88      1.0000 0.02100  0.15290  0.00080  Biso   1.000  C
  H65      1.0000 0.53200  0.38080  0.44760  Biso   1.000  H
  H66      1.0000 0.96800  0.88080  0.05240  Biso   1.000  H
  H67      1.0000 0.46800  0.61920  0.55240  Biso   1.000  H
  H68      1.0000 0.03200  0.11920  0.94760  Biso   1.000  H
  H69      1.0000 0.44490  0.30970  0.48390  Biso   1.000  H
  H70      1.0000 0.05510  0.80970  0.01610  Biso   1.000  H
  H71      1.0000 0.55510  0.69030  0.51610  Biso   1.000  H
  H72      1.0000 0.94490  0.19030  0.98390  Biso   1.000  H
  H73      1.0000 0.59530  0.30890  0.52320  Biso   1.000  H
  H74      1.0000 0.90470  0.80890  0.97680  Biso   1.000  H
  H75      1.0000 0.40470  0.69110  0.47680  Biso   1.000  H
  H76      1.0000 0.09530  0.19110  0.02320  Biso   1.000  H
