data_image0
_cell_length_a       10.684
_cell_length_b       17.507
_cell_length_c       20.562
_cell_angle_alpha    90
_cell_angle_beta     90
_cell_angle_gamma    90

_symmetry_space_group_name_H-M    "P 1"
_symmetry_int_tables_number       1

loop_
  _symmetry_equiv_pos_as_xyz
  'x, y, z'

loop_
  _atom_site_label
  _atom_site_occupancy
  _atom_site_fract_x
  _atom_site_fract_y
  _atom_site_fract_z
  _atom_site_thermal_displace_type
  _atom_site_B_iso_or_equiv
  _atom_site_type_symbol
  Cu1      1.0000 0.87899  0.51028  0.84964  Biso   1.000  Cu
  Cu2      1.0000 0.62101  0.48972  0.34964  Biso   1.000  Cu
  Cu3      1.0000 0.37899  0.98972  0.15036  Biso   1.000  Cu
  Cu4      1.0000 0.12101  0.01028  0.65036  Biso   1.000  Cu
  O1       1.0000 0.70460  0.54550  0.28141  Biso   1.000  O
  O2       1.0000 0.79540  0.45450  0.78141  Biso   1.000  O
  O3       1.0000 0.20460  0.95450  0.71859  Biso   1.000  O
  O4       1.0000 0.29540  0.04550  0.21859  Biso   1.000  O
  O5       1.0000 0.45590  0.52290  0.31885  Biso   1.000  O
  O6       1.0000 0.04410  0.47710  0.81885  Biso   1.000  O
  O7       1.0000 0.95590  0.97710  0.68115  Biso   1.000  O
  O8       1.0000 0.54410  0.02290  0.18115  Biso   1.000  O
  C1       1.0000 0.65040  0.59620  0.24830  Biso   1.000  C
  C2       1.0000 0.84960  0.40380  0.74830  Biso   1.000  C
  C3       1.0000 0.15040  0.90380  0.75170  Biso   1.000  C
  C4       1.0000 0.34960  0.09620  0.25170  Biso   1.000  C
  C5       1.0000 0.52500  0.61360  0.24380  Biso   1.000  C
  C6       1.0000 0.97500  0.38640  0.74380  Biso   1.000  C
  C7       1.0000 0.02500  0.88640  0.75620  Biso   1.000  C
  C8       1.0000 0.47500  0.11360  0.25620  Biso   1.000  C
  H1       1.0000 0.49880  0.65080  0.21450  Biso   1.000  H
  H2       1.0000 0.00120  0.34920  0.71450  Biso   1.000  H
  H3       1.0000 0.99880  0.84920  0.78550  Biso   1.000  H
  H4       1.0000 0.50120  0.15080  0.28550  Biso   1.000  H
  C9       1.0000 0.43840  0.57710  0.28160  Biso   1.000  C
  C10      1.0000 0.06160  0.42290  0.78160  Biso   1.000  C
  C11      1.0000 0.93840  0.92290  0.71840  Biso   1.000  C
  C12      1.0000 0.56160  0.07710  0.21840  Biso   1.000  C
  C13      1.0000 0.73690  0.63790  0.20300  Biso   1.000  C
  C14      1.0000 0.76310  0.36210  0.70300  Biso   1.000  C
  C15      1.0000 0.23690  0.86210  0.79700  Biso   1.000  C
  C16      1.0000 0.26310  0.13790  0.29700  Biso   1.000  C
  F1       1.0000 0.84710  0.64750  0.22450  Biso   1.000  F
  F2       1.0000 0.65290  0.35250  0.72450  Biso   1.000  F
  F3       1.0000 0.34710  0.85250  0.77550  Biso   1.000  F
  F4       1.0000 0.15290  0.14750  0.27550  Biso   1.000  F
  F5       1.0000 0.75300  0.60400  0.14890  Biso   1.000  F
  F6       1.0000 0.74700  0.39600  0.64890  Biso   1.000  F
  F7       1.0000 0.25300  0.89600  0.85110  Biso   1.000  F
  F8       1.0000 0.24700  0.10400  0.35110  Biso   1.000  F
  F9       1.0000 0.71580  0.70550  0.19060  Biso   1.000  F
  F10      1.0000 0.78420  0.29450  0.69060  Biso   1.000  F
  F11      1.0000 0.21580  0.79450  0.80940  Biso   1.000  F
  F12      1.0000 0.28420  0.20550  0.30940  Biso   1.000  F
  C17      1.0000 0.30430  0.60180  0.27300  Biso   1.000  C
  C18      1.0000 0.19570  0.39820  0.77300  Biso   1.000  C
  C19      1.0000 0.80430  0.89820  0.72700  Biso   1.000  C
  C20      1.0000 0.69570  0.10180  0.22700  Biso   1.000  C
  F13      1.0000 0.28050  0.65280  0.31580  Biso   1.000  F
  F14      1.0000 0.21950  0.34720  0.81580  Biso   1.000  F
  F15      1.0000 0.78050  0.84720  0.68420  Biso   1.000  F
  F16      1.0000 0.71950  0.15280  0.18420  Biso   1.000  F
  F17      1.0000 0.26920  0.61990  0.21920  Biso   1.000  F
  F18      1.0000 0.23080  0.38010  0.71920  Biso   1.000  F
  F19      1.0000 0.76920  0.88010  0.78080  Biso   1.000  F
  F20      1.0000 0.73080  0.11990  0.28080  Biso   1.000  F
  F21      1.0000 0.22700  0.55270  0.29400  Biso   1.000  F
  F22      1.0000 0.27300  0.44730  0.79400  Biso   1.000  F
  F23      1.0000 0.72700  0.94730  0.70600  Biso   1.000  F
  F24      1.0000 0.77300  0.05270  0.20600  Biso   1.000  F
  O9       1.0000 0.77250  0.48331  0.40106  Biso   1.000  O
  O10      1.0000 0.72750  0.51669  0.90106  Biso   1.000  O
  O11      1.0000 0.27250  0.01669  0.59894  Biso   1.000  O
  O12      1.0000 0.22750  0.98331  0.09894  Biso   1.000  O
  O13      1.0000 0.54810  0.40300  0.39561  Biso   1.000  O
  O14      1.0000 0.95190  0.59700  0.89561  Biso   1.000  O
  O15      1.0000 0.04810  0.09700  0.60439  Biso   1.000  O
  O16      1.0000 0.45190  0.90300  0.10439  Biso   1.000  O
  C21      1.0000 0.79570  0.43080  0.43780  Biso   1.000  C
  C22      1.0000 0.70430  0.56920  0.93780  Biso   1.000  C
  C23      1.0000 0.29570  0.06920  0.56220  Biso   1.000  C
  C24      1.0000 0.20430  0.93080  0.06220  Biso   1.000  C
  C25      1.0000 0.71670  0.36760  0.45190  Biso   1.000  C
  C26      1.0000 0.78330  0.63240  0.95190  Biso   1.000  C
  C27      1.0000 0.21670  0.13240  0.54810  Biso   1.000  C
  C28      1.0000 0.28330  0.86760  0.04810  Biso   1.000  C
  H5       1.0000 0.75150  0.32940  0.47770  Biso   1.000  H
  H6       1.0000 0.74850  0.67060  0.97770  Biso   1.000  H
  H7       1.0000 0.25150  0.17060  0.52230  Biso   1.000  H
  H8       1.0000 0.24850  0.82940  0.02230  Biso   1.000  H
  C29      1.0000 0.60050  0.35640  0.43300  Biso   1.000  C
  C30      1.0000 0.89950  0.64360  0.93300  Biso   1.000  C
  C31      1.0000 0.10050  0.14360  0.56700  Biso   1.000  C
  C32      1.0000 0.39950  0.85640  0.06700  Biso   1.000  C
  C33      1.0000 0.93270  0.43570  0.46630  Biso   1.000  C
  C34      1.0000 0.56730  0.56430  0.96630  Biso   1.000  C
  C35      1.0000 0.43270  0.06430  0.53370  Biso   1.000  C
  C36      1.0000 0.06730  0.93570  0.03370  Biso   1.000  C
  F25      1.0000 0.93660  0.40170  0.52579  Biso   1.000  F
  F26      1.0000 0.56340  0.59830  0.02579  Biso   1.000  F
  F27      1.0000 0.43660  0.09830  0.47421  Biso   1.000  F
  F28      1.0000 0.06340  0.90170  0.97421  Biso   1.000  F
  F29      1.0000 0.96700  0.50360  0.47590  Biso   1.000  F
  F30      1.0000 0.53300  0.49640  0.97590  Biso   1.000  F
  F31      1.0000 0.46700  0.99640  0.52410  Biso   1.000  F
  F32      1.0000 0.03300  0.00360  0.02410  Biso   1.000  F
  F33      1.0000 0.00690  0.39920  0.43250  Biso   1.000  F
  F34      1.0000 0.49310  0.60080  0.93250  Biso   1.000  F
  F35      1.0000 0.50690  0.10080  0.56750  Biso   1.000  F
  F36      1.0000 0.99310  0.89920  0.06750  Biso   1.000  F
  C37      1.0000 0.52870  0.28640  0.44470  Biso   1.000  C
  C38      1.0000 0.97130  0.71360  0.94470  Biso   1.000  C
  C39      1.0000 0.02870  0.21360  0.55530  Biso   1.000  C
  C40      1.0000 0.47130  0.78640  0.05530  Biso   1.000  C
  F37      1.0000 0.55500  0.26240  0.50450  Biso   1.000  F
  F38      1.0000 0.94500  0.73760  0.00450  Biso   1.000  F
  F39      1.0000 0.05500  0.23760  0.49550  Biso   1.000  F
  F40      1.0000 0.44500  0.76240  0.99550  Biso   1.000  F
  F41      1.0000 0.41480  0.29100  0.44410  Biso   1.000  F
  F42      1.0000 0.08520  0.70900  0.94410  Biso   1.000  F
  F43      1.0000 0.91480  0.20900  0.55590  Biso   1.000  F
  F44      1.0000 0.58520  0.79100  0.05590  Biso   1.000  F
  F45      1.0000 0.56640  0.23390  0.40730  Biso   1.000  F
  F46      1.0000 0.93360  0.76610  0.90730  Biso   1.000  F
  F47      1.0000 0.06640  0.26610  0.59270  Biso   1.000  F
  F48      1.0000 0.43360  0.73390  0.09270  Biso   1.000  F
  O17      1.0000 0.88500  0.37572  0.90043  Biso   1.000  O
  O18      1.0000 0.61500  0.62428  0.40043  Biso   1.000  O
  O19      1.0000 0.38500  0.12428  0.09957  Biso   1.000  O
  O20      1.0000 0.11500  0.87572  0.59957  Biso   1.000  O
  O21      1.0000 0.60930  0.28490  0.05797  Biso   1.000  O
  O22      1.0000 0.89070  0.71510  0.55797  Biso   1.000  O
  O23      1.0000 0.10930  0.21510  0.94203  Biso   1.000  O
  O24      1.0000 0.39070  0.78490  0.44203  Biso   1.000  O
  N1       1.0000 0.84160  0.35860  0.95668  Biso   1.000  N
  N2       1.0000 0.65840  0.64140  0.45668  Biso   1.000  N
  N3       1.0000 0.34160  0.14140  0.04332  Biso   1.000  N
  N4       1.0000 0.15840  0.85860  0.54332  Biso   1.000  N
  N5       1.0000 0.77970  0.36900  0.23967  Biso   1.000  N
  N6       1.0000 0.72030  0.63100  0.73967  Biso   1.000  N
  N7       1.0000 0.27970  0.13100  0.76033  Biso   1.000  N
  N8       1.0000 0.22030  0.86900  0.26033  Biso   1.000  N
  O25      1.0000 0.72930  0.37290  0.29442  Biso   1.000  O
  O26      1.0000 0.77070  0.62710  0.79442  Biso   1.000  O
  O27      1.0000 0.22930  0.12710  0.70558  Biso   1.000  O
  O28      1.0000 0.27070  0.87290  0.20558  Biso   1.000  O
  O29      1.0000 0.03890  0.35790  0.13647  Biso   1.000  O
  O30      1.0000 0.46110  0.64210  0.63647  Biso   1.000  O
  O31      1.0000 0.53890  0.14210  0.86353  Biso   1.000  O
  O32      1.0000 0.96110  0.85790  0.36353  Biso   1.000  O
  C41      1.0000 0.73490  0.30520  0.95950  Biso   1.000  C
  C42      1.0000 0.76510  0.69480  0.45950  Biso   1.000  C
  C43      1.0000 0.23490  0.19480  0.04050  Biso   1.000  C
  C44      1.0000 0.26510  0.80520  0.54050  Biso   1.000  C
  C45      1.0000 0.62980  0.32540  0.91290  Biso   1.000  C
  C46      1.0000 0.87020  0.67460  0.41290  Biso   1.000  C
  C47      1.0000 0.12980  0.17460  0.08710  Biso   1.000  C
  C48      1.0000 0.37020  0.82540  0.58710  Biso   1.000  C
  H9       1.0000 0.60290  0.37700  0.92080  Biso   1.000  H
  H10      1.0000 0.89710  0.62300  0.42080  Biso   1.000  H
  H11      1.0000 0.10290  0.12300  0.07920  Biso   1.000  H
  H12      1.0000 0.39710  0.87700  0.57920  Biso   1.000  H
  H13      1.0000 0.56070  0.29120  0.91960  Biso   1.000  H
  H14      1.0000 0.93930  0.70880  0.41960  Biso   1.000  H
  H15      1.0000 0.06070  0.20880  0.08040  Biso   1.000  H
  H16      1.0000 0.43930  0.79120  0.58040  Biso   1.000  H
  H17      1.0000 0.65910  0.32090  0.86900  Biso   1.000  H
  H18      1.0000 0.84090  0.67910  0.36900  Biso   1.000  H
  H19      1.0000 0.15910  0.17910  0.13100  Biso   1.000  H
  H20      1.0000 0.34090  0.82090  0.63100  Biso   1.000  H
  C49      1.0000 0.78420  0.22610  0.95170  Biso   1.000  C
  C50      1.0000 0.71580  0.77390  0.45170  Biso   1.000  C
  C51      1.0000 0.28420  0.27390  0.04830  Biso   1.000  C
  C52      1.0000 0.21580  0.72610  0.54830  Biso   1.000  C
  H21      1.0000 0.85010  0.21750  0.98250  Biso   1.000  H
  H22      1.0000 0.64990  0.78250  0.48250  Biso   1.000  H
  H23      1.0000 0.35010  0.28250  0.01750  Biso   1.000  H
  H24      1.0000 0.14990  0.71750  0.51750  Biso   1.000  H
  H25      1.0000 0.81630  0.21980  0.90840  Biso   1.000  H
  H26      1.0000 0.68370  0.78020  0.40840  Biso   1.000  H
  H27      1.0000 0.31630  0.28020  0.09160  Biso   1.000  H
  H28      1.0000 0.18370  0.71980  0.59160  Biso   1.000  H
  H29      1.0000 0.71790  0.19010  0.95900  Biso   1.000  H
  H30      1.0000 0.78210  0.80990  0.45900  Biso   1.000  H
  H31      1.0000 0.21790  0.30990  0.04100  Biso   1.000  H
  H32      1.0000 0.28210  0.69010  0.54100  Biso   1.000  H
  C53      1.0000 0.69830  0.31670  0.03310  Biso   1.000  C
  C54      1.0000 0.80170  0.68330  0.53310  Biso   1.000  C
  C55      1.0000 0.19830  0.18330  0.96690  Biso   1.000  C
  C56      1.0000 0.30170  0.81670  0.46690  Biso   1.000  C
  C57      1.0000 0.79400  0.36310  0.06310  Biso   1.000  C
  C58      1.0000 0.70600  0.63690  0.56310  Biso   1.000  C
  C59      1.0000 0.29400  0.13690  0.93690  Biso   1.000  C
  C60      1.0000 0.20600  0.86310  0.43690  Biso   1.000  C
  C61      1.0000 0.87650  0.38820  0.01440  Biso   1.000  C
  C62      1.0000 0.62350  0.61180  0.51440  Biso   1.000  C
  C63      1.0000 0.37650  0.11180  0.98560  Biso   1.000  C
  C64      1.0000 0.12350  0.88820  0.48560  Biso   1.000  C
  C65      1.0000 0.97850  0.44470  0.01700  Biso   1.000  C
  C66      1.0000 0.52150  0.55530  0.51700  Biso   1.000  C
  C67      1.0000 0.47850  0.05530  0.98300  Biso   1.000  C
  C68      1.0000 0.02150  0.94470  0.48300  Biso   1.000  C
  C69      1.0000 0.96990  0.50720  0.05980  Biso   1.000  C
  C70      1.0000 0.53010  0.49280  0.55980  Biso   1.000  C
  C71      1.0000 0.46990  0.99280  0.94020  Biso   1.000  C
  C72      1.0000 0.03010  0.00720  0.44020  Biso   1.000  C
  H33      1.0000 0.89890  0.51330  0.08540  Biso   1.000  H
  H34      1.0000 0.60110  0.48670  0.58540  Biso   1.000  H
  H35      1.0000 0.39890  0.98670  0.91460  Biso   1.000  H
  H36      1.0000 0.10110  0.01330  0.41460  Biso   1.000  H
  C73      1.0000 0.06670  0.55990  0.06400  Biso   1.000  C
  C74      1.0000 0.43330  0.44010  0.56400  Biso   1.000  C
  C75      1.0000 0.56670  0.94010  0.93600  Biso   1.000  C
  C76      1.0000 0.93330  0.05990  0.43600  Biso   1.000  C
  H37      1.0000 0.06150  0.60130  0.09220  Biso   1.000  H
  H38      1.0000 0.43850  0.39870  0.59220  Biso   1.000  H
  H39      1.0000 0.56150  0.89870  0.90780  Biso   1.000  H
  H40      1.0000 0.93850  0.10130  0.40780  Biso   1.000  H
  C77      1.0000 0.17060  0.54950  0.02550  Biso   1.000  C
  C78      1.0000 0.32940  0.45050  0.52550  Biso   1.000  C
  C79      1.0000 0.67060  0.95050  0.97450  Biso   1.000  C
  C80      1.0000 0.82940  0.04950  0.47450  Biso   1.000  C
  H41      1.0000 0.23380  0.58600  0.02640  Biso   1.000  H
  H42      1.0000 0.26620  0.41400  0.52640  Biso   1.000  H
  H43      1.0000 0.73380  0.91400  0.97360  Biso   1.000  H
  H44      1.0000 0.76620  0.08600  0.47360  Biso   1.000  H
  C81      1.0000 0.18360  0.48880  0.98680  Biso   1.000  C
  C82      1.0000 0.31640  0.51120  0.48680  Biso   1.000  C
  C83      1.0000 0.68360  0.01120  0.01320  Biso   1.000  C
  C84      1.0000 0.81640  0.98880  0.51320  Biso   1.000  C
  H45      1.0000 0.25790  0.48220  0.96390  Biso   1.000  H
  H46      1.0000 0.24210  0.51780  0.46390  Biso   1.000  H
  H47      1.0000 0.75790  0.01780  0.03610  Biso   1.000  H
  H48      1.0000 0.74210  0.98220  0.53610  Biso   1.000  H
  C85      1.0000 0.08860  0.43550  0.98000  Biso   1.000  C
  C86      1.0000 0.41140  0.56450  0.48000  Biso   1.000  C
  C87      1.0000 0.58860  0.06450  0.02000  Biso   1.000  C
  C88      1.0000 0.91140  0.93550  0.52000  Biso   1.000  C
  H49      1.0000 0.09740  0.39450  0.95170  Biso   1.000  H
  H50      1.0000 0.40260  0.60550  0.45170  Biso   1.000  H
  H51      1.0000 0.59740  0.10550  0.04830  Biso   1.000  H
  H52      1.0000 0.90260  0.89450  0.54830  Biso   1.000  H
  C89      1.0000 0.81260  0.36760  0.13110  Biso   1.000  C
  C90      1.0000 0.68740  0.63240  0.63110  Biso   1.000  C
  C91      1.0000 0.31260  0.13240  0.86890  Biso   1.000  C
  C92      1.0000 0.18740  0.86760  0.36890  Biso   1.000  C
  C93      1.0000 0.72100  0.36950  0.18130  Biso   1.000  C
  C94      1.0000 0.77900  0.63050  0.68130  Biso   1.000  C
  C95      1.0000 0.22100  0.13050  0.81870  Biso   1.000  C
  C96      1.0000 0.27900  0.86950  0.31870  Biso   1.000  C
  C97      1.0000 0.58480  0.38600  0.17690  Biso   1.000  C
  C98      1.0000 0.91520  0.61400  0.67690  Biso   1.000  C
  C99      1.0000 0.08480  0.11400  0.82310  Biso   1.000  C
  C100     1.0000 0.41520  0.88600  0.32310  Biso   1.000  C
  C101     1.0000 0.54510  0.43980  0.13430  Biso   1.000  C
  C102     1.0000 0.95490  0.56020  0.63430  Biso   1.000  C
  C103     1.0000 0.04510  0.06020  0.86570  Biso   1.000  C
  C104     1.0000 0.45490  0.93980  0.36570  Biso   1.000  C
  H53      1.0000 0.60090  0.46590  0.10760  Biso   1.000  H
  H54      1.0000 0.89910  0.53410  0.60760  Biso   1.000  H
  H55      1.0000 0.10090  0.03410  0.89240  Biso   1.000  H
  H56      1.0000 0.39910  0.96590  0.39240  Biso   1.000  H
  C105     1.0000 0.41840  0.45390  0.13230  Biso   1.000  C
  C106     1.0000 0.08160  0.54610  0.63230  Biso   1.000  C
  C107     1.0000 0.91840  0.04610  0.86770  Biso   1.000  C
  C108     1.0000 0.58160  0.95390  0.36770  Biso   1.000  C
  H57      1.0000 0.38990  0.49120  0.10370  Biso   1.000  H
  H58      1.0000 0.11010  0.50880  0.60370  Biso   1.000  H
  H59      1.0000 0.88990  0.00880  0.89630  Biso   1.000  H
  H60      1.0000 0.61010  0.99120  0.39630  Biso   1.000  H
  C109     1.0000 0.33230  0.41710  0.16930  Biso   1.000  C
  C110     1.0000 0.16770  0.58290  0.66930  Biso   1.000  C
  C111     1.0000 0.83230  0.08290  0.83070  Biso   1.000  C
  C112     1.0000 0.66770  0.91710  0.33070  Biso   1.000  C
  H61      1.0000 0.24740  0.42710  0.16420  Biso   1.000  H
  H62      1.0000 0.25260  0.57290  0.66420  Biso   1.000  H
  H63      1.0000 0.74740  0.07290  0.83580  Biso   1.000  H
  H64      1.0000 0.75260  0.92710  0.33580  Biso   1.000  H
  C113     1.0000 0.37170  0.36600  0.21330  Biso   1.000  C
  C114     1.0000 0.12830  0.63400  0.71330  Biso   1.000  C
  C115     1.0000 0.87170  0.13400  0.78670  Biso   1.000  C
  C116     1.0000 0.62830  0.86600  0.28670  Biso   1.000  C
  H65      1.0000 0.31530  0.34290  0.24160  Biso   1.000  H
  H66      1.0000 0.18470  0.65710  0.74160  Biso   1.000  H
  H67      1.0000 0.81530  0.15710  0.75840  Biso   1.000  H
  H68      1.0000 0.68470  0.84290  0.25840  Biso   1.000  H
  C117     1.0000 0.50190  0.34760  0.21580  Biso   1.000  C
  C118     1.0000 0.99810  0.65240  0.71580  Biso   1.000  C
  C119     1.0000 0.00190  0.15240  0.78420  Biso   1.000  C
  C120     1.0000 0.49810  0.84760  0.28420  Biso   1.000  C
  H69      1.0000 0.53040  0.30960  0.24380  Biso   1.000  H
  H70      1.0000 0.96960  0.69040  0.74380  Biso   1.000  H
  H71      1.0000 0.03040  0.19040  0.75620  Biso   1.000  H
  H72      1.0000 0.46960  0.80960  0.25620  Biso   1.000  H
  C121     1.0000 0.92130  0.36480  0.23550  Biso   1.000  C
  C122     1.0000 0.57870  0.63520  0.73550  Biso   1.000  C
  C123     1.0000 0.42130  0.13520  0.76450  Biso   1.000  C
  C124     1.0000 0.07870  0.86480  0.26450  Biso   1.000  C
  C125     1.0000 0.97360  0.43950  0.26350  Biso   1.000  C
  C126     1.0000 0.52640  0.56050  0.76350  Biso   1.000  C
  C127     1.0000 0.47360  0.06050  0.73650  Biso   1.000  C
  C128     1.0000 0.02640  0.93950  0.23650  Biso   1.000  C
  H73      1.0000 0.93920  0.48210  0.24010  Biso   1.000  H
  H74      1.0000 0.56080  0.51790  0.74010  Biso   1.000  H
  H75      1.0000 0.43920  0.01790  0.75990  Biso   1.000  H
  H76      1.0000 0.06080  0.98210  0.25990  Biso   1.000  H
  H77      1.0000 0.06310  0.43980  0.25940  Biso   1.000  H
  H78      1.0000 0.43690  0.56020  0.75940  Biso   1.000  H
  H79      1.0000 0.56310  0.06020  0.74060  Biso   1.000  H
  H80      1.0000 0.93690  0.93980  0.24060  Biso   1.000  H
  H81      1.0000 0.95120  0.44350  0.30860  Biso   1.000  H
  H82      1.0000 0.54880  0.55650  0.80860  Biso   1.000  H
  H83      1.0000 0.45120  0.05650  0.69140  Biso   1.000  H
  H84      1.0000 0.04880  0.94350  0.19140  Biso   1.000  H
  C129     1.0000 0.96750  0.29440  0.26750  Biso   1.000  C
  C130     1.0000 0.53250  0.70560  0.76750  Biso   1.000  C
  C131     1.0000 0.46750  0.20560  0.73250  Biso   1.000  C
  C132     1.0000 0.03250  0.79440  0.23250  Biso   1.000  C
  H85      1.0000 0.95330  0.29790  0.31350  Biso   1.000  H
  H86      1.0000 0.54670  0.70210  0.81350  Biso   1.000  H
  H87      1.0000 0.45330  0.20210  0.68650  Biso   1.000  H
  H88      1.0000 0.04670  0.79790  0.18650  Biso   1.000  H
  H89      1.0000 0.05550  0.28880  0.25940  Biso   1.000  H
  H90      1.0000 0.44450  0.71120  0.75940  Biso   1.000  H
  H91      1.0000 0.55550  0.21120  0.74060  Biso   1.000  H
  H92      1.0000 0.94450  0.78880  0.24060  Biso   1.000  H
  H93      1.0000 0.92360  0.25100  0.25050  Biso   1.000  H
  H94      1.0000 0.57640  0.74900  0.75050  Biso   1.000  H
  H95      1.0000 0.42360  0.24900  0.74950  Biso   1.000  H
  H96      1.0000 0.07640  0.75100  0.24950  Biso   1.000  H
  C133     1.0000 0.93780  0.36720  0.16230  Biso   1.000  C
  C134     1.0000 0.56220  0.63280  0.66230  Biso   1.000  C
  C135     1.0000 0.43780  0.13280  0.83770  Biso   1.000  C
  C136     1.0000 0.06220  0.86720  0.33770  Biso   1.000  C
