data_image0
_cell_length_a       17.3616
_cell_length_b       22.7205
_cell_length_c       10.3693
_cell_angle_alpha    90
_cell_angle_beta     106.01
_cell_angle_gamma    90

_symmetry_space_group_name_H-M    "P 1"
_symmetry_int_tables_number       1

loop_
  _symmetry_equiv_pos_as_xyz
  'x, y, z'

loop_
  _atom_site_label
  _atom_site_occupancy
  _atom_site_fract_x
  _atom_site_fract_y
  _atom_site_fract_z
  _atom_site_thermal_displace_type
  _atom_site_B_iso_or_equiv
  _atom_site_type_symbol
  Cu1      1.0000 0.53299  0.50544  0.40064  Biso   1.000  Cu
  Cu2      1.0000 0.46701  0.50544  0.59936  Biso   1.000  Cu
  Cu3      1.0000 0.03299  0.00544  0.40064  Biso   1.000  Cu
  Cu4      1.0000 0.96701  0.00544  0.59936  Biso   1.000  Cu
  O1       1.0000 0.54790  0.56550  0.67670  Biso   1.000  O
  O2       1.0000 0.45210  0.56550  0.32330  Biso   1.000  O
  O3       1.0000 0.04790  0.06550  0.67670  Biso   1.000  O
  O4       1.0000 0.95210  0.06550  0.32330  Biso   1.000  O
  O5       1.0000 0.60300  0.56820  0.50210  Biso   1.000  O
  O6       1.0000 0.39700  0.56820  0.49790  Biso   1.000  O
  O7       1.0000 0.10300  0.06820  0.50210  Biso   1.000  O
  O8       1.0000 0.89700  0.06820  0.49790  Biso   1.000  O
  O9       1.0000 0.57910  0.50080  0.23060  Biso   1.000  O
  O10      1.0000 0.42090  0.50080  0.76940  Biso   1.000  O
  O11      1.0000 0.07910  0.00080  0.23060  Biso   1.000  O
  O12      1.0000 0.92090  0.00080  0.76940  Biso   1.000  O
  O13      1.0000 0.39490  0.44740  0.49220  Biso   1.000  O
  O14      1.0000 0.60510  0.44740  0.50780  Biso   1.000  O
  O15      1.0000 0.89490  0.94740  0.49220  Biso   1.000  O
  O16      1.0000 0.10510  0.94740  0.50780  Biso   1.000  O
  O17      1.0000 0.45430  0.44080  0.32920  Biso   1.000  O
  O18      1.0000 0.54570  0.44080  0.67080  Biso   1.000  O
  O19      1.0000 0.95430  0.94080  0.32920  Biso   1.000  O
  O20      1.0000 0.04570  0.94080  0.67080  Biso   1.000  O
  C1       1.0000 0.03380  0.27190  0.47320  Biso   1.000  C
  C2       1.0000 0.96620  0.27190  0.52680  Biso   1.000  C
  C3       1.0000 0.53380  0.77190  0.47320  Biso   1.000  C
  C4       1.0000 0.46620  0.77190  0.52680  Biso   1.000  C
  C5       1.0000 0.00000  0.37380  0.50000  Biso   1.000  C
  C6       1.0000 0.50000  0.87380  0.50000  Biso   1.000  C
  C7       1.0000 0.00000  0.62980  0.50000  Biso   1.000  C
  C8       1.0000 0.50000  0.12980  0.50000  Biso   1.000  C
  C9       1.0000 0.65350  0.63210  0.68620  Biso   1.000  C
  C10      1.0000 0.34650  0.63210  0.31380  Biso   1.000  C
  C11      1.0000 0.15350  0.13210  0.68620  Biso   1.000  C
  C12      1.0000 0.84650  0.13210  0.31380  Biso   1.000  C
  C13      1.0000 0.05440  0.33440  0.45600  Biso   1.000  C
  C14      1.0000 0.94560  0.33440  0.54400  Biso   1.000  C
  C15      1.0000 0.55440  0.83440  0.45600  Biso   1.000  C
  C16      1.0000 0.44560  0.83440  0.54400  Biso   1.000  C
  C17      1.0000 0.07670  0.22800  0.44140  Biso   1.000  C
  C18      1.0000 0.92330  0.22800  0.55860  Biso   1.000  C
  C19      1.0000 0.57670  0.72800  0.44140  Biso   1.000  C
  C20      1.0000 0.42330  0.72800  0.55860  Biso   1.000  C
  H1       1.0000 0.06450  0.18890  0.45340  Biso   1.000  H
  H2       1.0000 0.93550  0.18890  0.54660  Biso   1.000  H
  H3       1.0000 0.56450  0.68890  0.45340  Biso   1.000  H
  H4       1.0000 0.43550  0.68890  0.54660  Biso   1.000  H
  C21      1.0000 0.28180  0.36240  0.36980  Biso   1.000  C
  C22      1.0000 0.71820  0.36240  0.63020  Biso   1.000  C
  C23      1.0000 0.78180  0.86240  0.36980  Biso   1.000  C
  C24      1.0000 0.21820  0.86240  0.63020  Biso   1.000  C
  H5       1.0000 0.26770  0.38670  0.43190  Biso   1.000  H
  H6       1.0000 0.73230  0.38670  0.56810  Biso   1.000  H
  H7       1.0000 0.76770  0.88670  0.43190  Biso   1.000  H
  H8       1.0000 0.23230  0.88670  0.56810  Biso   1.000  H
  C25      1.0000 0.23560  0.31320  0.31980  Biso   1.000  C
  C26      1.0000 0.76440  0.31320  0.68020  Biso   1.000  C
  C27      1.0000 0.73560  0.81320  0.31980  Biso   1.000  C
  C28      1.0000 0.26440  0.81320  0.68020  Biso   1.000  C
  C29      1.0000 0.25660  0.27700  0.22690  Biso   1.000  C
  C30      1.0000 0.74340  0.27700  0.77310  Biso   1.000  C
  C31      1.0000 0.75660  0.77700  0.22690  Biso   1.000  C
  C32      1.0000 0.24340  0.77700  0.77310  Biso   1.000  C
  H9       1.0000 0.22570  0.24410  0.19350  Biso   1.000  H
  H10      1.0000 0.77430  0.24410  0.80650  Biso   1.000  H
  H11      1.0000 0.72570  0.74410  0.19350  Biso   1.000  H
  H12      1.0000 0.27430  0.74410  0.80650  Biso   1.000  H
  C33      1.0000 0.32380  0.29000  0.18390  Biso   1.000  C
  C34      1.0000 0.67620  0.29000  0.81610  Biso   1.000  C
  C35      1.0000 0.82380  0.79000  0.18390  Biso   1.000  C
  C36      1.0000 0.17620  0.79000  0.81610  Biso   1.000  C
  H13      1.0000 0.33780  0.26580  0.12180  Biso   1.000  H
  H14      1.0000 0.66220  0.26580  0.87820  Biso   1.000  H
  H15      1.0000 0.83780  0.76580  0.12180  Biso   1.000  H
  H16      1.0000 0.16220  0.76580  0.87820  Biso   1.000  H
  C37      1.0000 0.36990  0.33920  0.23390  Biso   1.000  C
  C38      1.0000 0.63010  0.33920  0.76610  Biso   1.000  C
  C39      1.0000 0.86990  0.83920  0.23390  Biso   1.000  C
  C40      1.0000 0.13010  0.83920  0.76610  Biso   1.000  C
  H17      1.0000 0.41490  0.34790  0.20510  Biso   1.000  H
  H18      1.0000 0.58510  0.34790  0.79490  Biso   1.000  H
  H19      1.0000 0.91490  0.84790  0.20510  Biso   1.000  H
  H20      1.0000 0.08510  0.84790  0.79490  Biso   1.000  H
  C41      1.0000 0.34890  0.37540  0.32680  Biso   1.000  C
  C42      1.0000 0.65110  0.37540  0.67320  Biso   1.000  C
  C43      1.0000 0.84890  0.87540  0.32680  Biso   1.000  C
  C44      1.0000 0.15110  0.87540  0.67320  Biso   1.000  C
  C45      1.0000 0.94560  0.67410  0.55100  Biso   1.000  C
  C46      1.0000 0.05440  0.67410  0.44900  Biso   1.000  C
  C47      1.0000 0.44560  0.17410  0.55100  Biso   1.000  C
  C48      1.0000 0.55440  0.17410  0.44900  Biso   1.000  C
  C49      1.0000 0.92680  0.77650  0.58020  Biso   1.000  C
  C50      1.0000 0.07320  0.77650  0.41980  Biso   1.000  C
  C51      1.0000 0.42680  0.27650  0.58020  Biso   1.000  C
  C52      1.0000 0.57320  0.27650  0.41980  Biso   1.000  C
  H21      1.0000 0.94100  0.81540  0.57090  Biso   1.000  H
  H22      1.0000 0.05900  0.81540  0.42910  Biso   1.000  H
  H23      1.0000 0.44100  0.31540  0.57090  Biso   1.000  H
  H24      1.0000 0.55900  0.31540  0.42910  Biso   1.000  H
  C53      1.0000 0.11980  0.34660  0.40300  Biso   1.000  C
  C54      1.0000 0.88020  0.34660  0.59700  Biso   1.000  C
  C55      1.0000 0.61980  0.84660  0.40300  Biso   1.000  C
  C56      1.0000 0.38020  0.84660  0.59700  Biso   1.000  C
  H25      1.0000 0.13480  0.38560  0.39720  Biso   1.000  H
  H26      1.0000 0.86520  0.38560  0.60280  Biso   1.000  H
  H27      1.0000 0.63480  0.88560  0.39720  Biso   1.000  H
  H28      1.0000 0.36520  0.88560  0.60280  Biso   1.000  H
  C57      1.0000 0.16470  0.30040  0.35710  Biso   1.000  C
  C58      1.0000 0.83530  0.30040  0.64290  Biso   1.000  C
  C59      1.0000 0.66470  0.80040  0.35710  Biso   1.000  C
  C60      1.0000 0.33530  0.80040  0.64290  Biso   1.000  C
  C61      1.0000 0.14400  0.24370  0.38660  Biso   1.000  C
  C62      1.0000 0.85600  0.24370  0.61340  Biso   1.000  C
  C63      1.0000 0.64400  0.74370  0.38660  Biso   1.000  C
  C64      1.0000 0.35600  0.74370  0.61340  Biso   1.000  C
  H29      1.0000 0.17540  0.21290  0.37020  Biso   1.000  H
  H30      1.0000 0.82460  0.21290  0.62980  Biso   1.000  H
  H31      1.0000 0.67540  0.71290  0.37020  Biso   1.000  H
  H32      1.0000 0.32460  0.71290  0.62980  Biso   1.000  H
  C65      1.0000 0.95200  0.59130  0.37830  Biso   1.000  C
  C66      1.0000 0.04800  0.59130  0.62170  Biso   1.000  C
  C67      1.0000 0.45200  0.09130  0.37830  Biso   1.000  C
  C68      1.0000 0.54800  0.09130  0.62170  Biso   1.000  C
  H33      1.0000 0.99050  0.57120  0.34150  Biso   1.000  H
  H34      1.0000 0.00950  0.57120  0.65850  Biso   1.000  H
  H35      1.0000 0.49050  0.07120  0.34150  Biso   1.000  H
  H36      1.0000 0.50950  0.07120  0.65850  Biso   1.000  H
  H37      1.0000 0.92320  0.56130  0.41270  Biso   1.000  H
  H38      1.0000 0.07680  0.56130  0.58730  Biso   1.000  H
  H39      1.0000 0.42320  0.06130  0.41270  Biso   1.000  H
  H40      1.0000 0.57680  0.06130  0.58730  Biso   1.000  H
  C69      1.0000 0.84380  0.70500  0.63590  Biso   1.000  C
  C70      1.0000 0.15620  0.70500  0.36410  Biso   1.000  C
  C71      1.0000 0.34380  0.20500  0.63590  Biso   1.000  C
  C72      1.0000 0.65620  0.20500  0.36410  Biso   1.000  C
  C73      1.0000 0.96730  0.72870  0.53600  Biso   1.000  C
  C74      1.0000 0.03270  0.72870  0.46400  Biso   1.000  C
  C75      1.0000 0.46730  0.22870  0.53600  Biso   1.000  C
  C76      1.0000 0.53270  0.22870  0.46400  Biso   1.000  C
  C77      1.0000 0.77460  0.68970  0.69760  Biso   1.000  C
  C78      1.0000 0.22540  0.68970  0.30240  Biso   1.000  C
  C79      1.0000 0.27460  0.18970  0.69760  Biso   1.000  C
  C80      1.0000 0.72540  0.18970  0.30240  Biso   1.000  C
  C81      1.0000 0.88580  0.65870  0.60600  Biso   1.000  C
  C82      1.0000 0.11420  0.65870  0.39400  Biso   1.000  C
  C83      1.0000 0.38580  0.15870  0.60600  Biso   1.000  C
  C84      1.0000 0.61420  0.15870  0.39400  Biso   1.000  C
  H41      1.0000 0.87460  0.61980  0.62180  Biso   1.000  H
  H42      1.0000 0.12540  0.61980  0.37820  Biso   1.000  H
  H43      1.0000 0.37460  0.11980  0.62180  Biso   1.000  H
  H44      1.0000 0.62540  0.11980  0.37820  Biso   1.000  H
  C85      1.0000 0.04860  0.41440  0.60920  Biso   1.000  C
  C86      1.0000 0.95140  0.41440  0.39080  Biso   1.000  C
  C87      1.0000 0.54860  0.91440  0.60920  Biso   1.000  C
  C88      1.0000 0.45140  0.91440  0.39080  Biso   1.000  C
  H45      1.0000 0.01280  0.44310  0.63100  Biso   1.000  H
  H46      1.0000 0.98720  0.44310  0.36900  Biso   1.000  H
  H47      1.0000 0.51280  0.94310  0.63100  Biso   1.000  H
  H48      1.0000 0.48720  0.94310  0.36900  Biso   1.000  H
  H49      1.0000 0.08700  0.43570  0.57440  Biso   1.000  H
  H50      1.0000 0.91300  0.43570  0.42560  Biso   1.000  H
  H51      1.0000 0.58700  0.93570  0.57440  Biso   1.000  H
  H52      1.0000 0.41300  0.93570  0.42560  Biso   1.000  H
  C89      1.0000 0.40180  0.42510  0.38280  Biso   1.000  C
  C90      1.0000 0.59820  0.42510  0.61720  Biso   1.000  C
  C91      1.0000 0.90180  0.92510  0.38280  Biso   1.000  C
  C92      1.0000 0.09820  0.92510  0.61720  Biso   1.000  C
  C93      1.0000 0.86840  0.76300  0.63470  Biso   1.000  C
  C94      1.0000 0.13160  0.76300  0.36530  Biso   1.000  C
  C95      1.0000 0.36840  0.26300  0.63470  Biso   1.000  C
  C96      1.0000 0.63160  0.26300  0.36530  Biso   1.000  C
  H53      1.0000 0.84410  0.79240  0.67200  Biso   1.000  H
  H54      1.0000 0.15590  0.79240  0.32800  Biso   1.000  H
  H55      1.0000 0.34410  0.29240  0.67200  Biso   1.000  H
  H56      1.0000 0.65590  0.29240  0.32800  Biso   1.000  H
  C97      1.0000 0.59550  0.58400  0.61330  Biso   1.000  C
  C98      1.0000 0.40450  0.58400  0.38670  Biso   1.000  C
  C99      1.0000 0.09550  0.08400  0.61330  Biso   1.000  C
  C100     1.0000 0.90450  0.08400  0.38670  Biso   1.000  C
  C101     1.0000 0.64030  0.66610  0.79230  Biso   1.000  C
  C102     1.0000 0.35970  0.66610  0.20770  Biso   1.000  C
  C103     1.0000 0.14030  0.16610  0.79230  Biso   1.000  C
  C104     1.0000 0.85970  0.16610  0.20770  Biso   1.000  C
  H57      1.0000 0.59700  0.65790  0.82580  Biso   1.000  H
  H58      1.0000 0.40300  0.65790  0.17420  Biso   1.000  H
  H59      1.0000 0.09700  0.15790  0.82580  Biso   1.000  H
  H60      1.0000 0.90300  0.15790  0.17420  Biso   1.000  H
  C105     1.0000 0.72000  0.64500  0.63950  Biso   1.000  C
  C106     1.0000 0.28000  0.64500  0.36050  Biso   1.000  C
  C107     1.0000 0.22000  0.14500  0.63950  Biso   1.000  C
  C108     1.0000 0.78000  0.14500  0.36050  Biso   1.000  C
  H61      1.0000 0.72830  0.62350  0.56820  Biso   1.000  H
  H62      1.0000 0.27170  0.62350  0.43180  Biso   1.000  H
  H63      1.0000 0.22830  0.12350  0.56820  Biso   1.000  H
  H64      1.0000 0.77170  0.12350  0.43180  Biso   1.000  H
  C109     1.0000 0.09450  0.38200  0.74040  Biso   1.000  C
  C110     1.0000 0.90550  0.38200  0.25960  Biso   1.000  C
  C111     1.0000 0.59450  0.88200  0.74040  Biso   1.000  C
  C112     1.0000 0.40550  0.88200  0.25960  Biso   1.000  C
  H65      1.0000 0.07750  0.34080  0.73540  Biso   1.000  H
  H66      1.0000 0.92250  0.34080  0.26460  Biso   1.000  H
  H67      1.0000 0.57750  0.84080  0.73540  Biso   1.000  H
  H68      1.0000 0.42250  0.84080  0.26460  Biso   1.000  H
  C113     1.0000 0.69080  0.71060  0.84480  Biso   1.000  C
  C114     1.0000 0.30920  0.71060  0.15520  Biso   1.000  C
  C115     1.0000 0.19080  0.21060  0.84480  Biso   1.000  C
  C116     1.0000 0.80920  0.21060  0.15520  Biso   1.000  C
  H69      1.0000 0.67990  0.73410  0.91100  Biso   1.000  H
  H70      1.0000 0.32010  0.73410  0.08900  Biso   1.000  H
  H71      1.0000 0.17990  0.23410  0.91100  Biso   1.000  H
  H72      1.0000 0.82010  0.23410  0.08900  Biso   1.000  H
  C117     1.0000 0.75560  0.72150  0.80440  Biso   1.000  C
  C118     1.0000 0.24440  0.72150  0.19560  Biso   1.000  C
  C119     1.0000 0.25560  0.22150  0.80440  Biso   1.000  C
  C120     1.0000 0.74440  0.22150  0.19560  Biso   1.000  C
  H73      1.0000 0.79020  0.75120  0.84730  Biso   1.000  H
  H74      1.0000 0.20980  0.75120  0.15270  Biso   1.000  H
  H75      1.0000 0.29020  0.25120  0.84730  Biso   1.000  H
  H76      1.0000 0.70980  0.25120  0.15270  Biso   1.000  H
  C121     1.0000 0.89130  0.62330  0.26130  Biso   1.000  C
  C122     1.0000 0.10870  0.62330  0.73870  Biso   1.000  C
  C123     1.0000 0.39130  0.12330  0.26130  Biso   1.000  C
  C124     1.0000 0.60870  0.12330  0.73870  Biso   1.000  C
  H77      1.0000 0.87600  0.66080  0.29400  Biso   1.000  H
  H78      1.0000 0.12400  0.66080  0.70600  Biso   1.000  H
  H79      1.0000 0.37600  0.16080  0.29400  Biso   1.000  H
  H80      1.0000 0.62400  0.16080  0.70600  Biso   1.000  H
  C125     1.0000 0.08540  0.40940  0.87060  Biso   1.000  C
  C126     1.0000 0.91460  0.40940  0.12940  Biso   1.000  C
  C127     1.0000 0.58540  0.90940  0.87060  Biso   1.000  C
  C128     1.0000 0.41460  0.90940  0.12940  Biso   1.000  C
  H81      1.0000 0.11280  0.44710  0.88380  Biso   1.000  H
  H82      1.0000 0.88720  0.44710  0.11620  Biso   1.000  H
  H83      1.0000 0.61280  0.94710  0.88380  Biso   1.000  H
  H84      1.0000 0.38720  0.94710  0.11620  Biso   1.000  H
  H85      1.0000 0.02900  0.41700  0.86000  Biso   1.000  H
  H86      1.0000 0.97100  0.41700  0.14000  Biso   1.000  H
  H87      1.0000 0.52900  0.91700  0.86000  Biso   1.000  H
  H88      1.0000 0.47100  0.91700  0.14000  Biso   1.000  H
  C129     1.0000 0.18420  0.38510  0.75030  Biso   1.000  C
  C130     1.0000 0.81580  0.38510  0.24970  Biso   1.000  C
  C131     1.0000 0.68420  0.88510  0.75030  Biso   1.000  C
  C132     1.0000 0.31580  0.88510  0.24970  Biso   1.000  C
  H89      1.0000 0.19360  0.36840  0.67090  Biso   1.000  H
  H90      1.0000 0.80640  0.36840  0.32910  Biso   1.000  H
  H91      1.0000 0.69360  0.86840  0.67090  Biso   1.000  H
  H92      1.0000 0.30640  0.86840  0.32910  Biso   1.000  H
  H93      1.0000 0.20140  0.42540  0.75880  Biso   1.000  H
  H94      1.0000 0.79860  0.42540  0.24120  Biso   1.000  H
  H95      1.0000 0.70140  0.92540  0.75880  Biso   1.000  H
  H96      1.0000 0.29860  0.92540  0.24120  Biso   1.000  H
  H97      1.0000 0.21380  0.36340  0.82740  Biso   1.000  H
  H98      1.0000 0.78620  0.36340  0.17260  Biso   1.000  H
  H99      1.0000 0.71380  0.86340  0.82740  Biso   1.000  H
  H100     1.0000 0.28620  0.86340  0.17260  Biso   1.000  H
  C133     1.0000 0.93390  0.63540  0.15370  Biso   1.000  C
  C134     1.0000 0.06610  0.63540  0.84630  Biso   1.000  C
  C135     1.0000 0.43390  0.13540  0.15370  Biso   1.000  C
  C136     1.0000 0.56610  0.13540  0.84630  Biso   1.000  C
  H101     1.0000 0.98120  0.65830  0.19140  Biso   1.000  H
  H102     1.0000 0.01880  0.65830  0.80860  Biso   1.000  H
  H103     1.0000 0.48120  0.15830  0.19140  Biso   1.000  H
  H104     1.0000 0.51880  0.15830  0.80860  Biso   1.000  H
  H105     1.0000 0.94860  0.59880  0.12080  Biso   1.000  H
  H106     1.0000 0.05140  0.59880  0.87920  Biso   1.000  H
  H107     1.0000 0.44860  0.09880  0.12080  Biso   1.000  H
  H108     1.0000 0.55140  0.09880  0.87920  Biso   1.000  H
  H109     1.0000 0.89870  0.65680  0.08110  Biso   1.000  H
  H110     1.0000 0.10130  0.65680  0.91890  Biso   1.000  H
  H111     1.0000 0.39870  0.15680  0.08110  Biso   1.000  H
  H112     1.0000 0.60130  0.15680  0.91890  Biso   1.000  H
  C137     1.0000 0.76030  0.57990  0.29370  Biso   1.000  C
  C138     1.0000 0.23970  0.57990  0.70630  Biso   1.000  C
  C139     1.0000 0.26030  0.07990  0.29370  Biso   1.000  C
  C140     1.0000 0.73970  0.07990  0.70630  Biso   1.000  C
  H113     1.0000 0.71460  0.55660  0.24920  Biso   1.000  H
  H114     1.0000 0.28540  0.55660  0.75080  Biso   1.000  H
  H115     1.0000 0.21460  0.05660  0.24920  Biso   1.000  H
  H116     1.0000 0.78540  0.05660  0.75080  Biso   1.000  H
  H117     1.0000 0.78900  0.56090  0.37540  Biso   1.000  H
  H118     1.0000 0.21100  0.56090  0.62460  Biso   1.000  H
  H119     1.0000 0.28900  0.06090  0.37540  Biso   1.000  H
  H120     1.0000 0.71100  0.06090  0.62460  Biso   1.000  H
  H121     1.0000 0.74280  0.61810  0.31380  Biso   1.000  H
  H122     1.0000 0.25720  0.61810  0.68620  Biso   1.000  H
  H123     1.0000 0.24280  0.11810  0.31380  Biso   1.000  H
  H124     1.0000 0.75720  0.11810  0.68620  Biso   1.000  H
  C141     1.0000 0.81580  0.58680  0.20160  Biso   1.000  C
  C142     1.0000 0.18420  0.58680  0.79840  Biso   1.000  C
  C143     1.0000 0.31580  0.08680  0.20160  Biso   1.000  C
  C144     1.0000 0.68420  0.08680  0.79840  Biso   1.000  C
  H125     1.0000 0.83180  0.54790  0.17990  Biso   1.000  H
  H126     1.0000 0.16820  0.54790  0.82010  Biso   1.000  H
  H127     1.0000 0.33180  0.04790  0.17990  Biso   1.000  H
  H128     1.0000 0.66820  0.04790  0.82010  Biso   1.000  H
  H129     1.0000 0.78570  0.60510  0.11840  Biso   1.000  H
  H130     1.0000 0.21430  0.60510  0.88160  Biso   1.000  H
  H131     1.0000 0.28570  0.10510  0.11840  Biso   1.000  H
  H132     1.0000 0.71430  0.10510  0.88160  Biso   1.000  H
  C145     1.0000 0.11780  0.37220  0.99650  Biso   1.000  C
  C146     1.0000 0.88220  0.37220  0.00350  Biso   1.000  C
  C147     1.0000 0.61780  0.87220  0.99650  Biso   1.000  C
  C148     1.0000 0.38220  0.87220  0.00350  Biso   1.000  C
  H133     1.0000 0.10970  0.39260  0.07280  Biso   1.000  H
  H134     1.0000 0.89030  0.39260  0.92720  Biso   1.000  H
  H135     1.0000 0.60970  0.89260  0.07280  Biso   1.000  H
  H136     1.0000 0.39030  0.89260  0.92720  Biso   1.000  H
  H137     1.0000 0.09010  0.33520  0.98600  Biso   1.000  H
  H138     1.0000 0.90990  0.33520  0.01400  Biso   1.000  H
  H139     1.0000 0.59010  0.83520  0.98600  Biso   1.000  H
  H140     1.0000 0.40990  0.83520  0.01400  Biso   1.000  H
  H141     1.0000 0.17400  0.36530  0.00990  Biso   1.000  H
  H142     1.0000 0.82600  0.36530  0.99010  Biso   1.000  H
  H143     1.0000 0.67400  0.86530  0.00990  Biso   1.000  H
  H144     1.0000 0.32600  0.86530  0.99010  Biso   1.000  H
  C149     1.0000 0.58600  0.55390  0.20560  Biso   1.000  C
  C150     1.0000 0.41400  0.55390  0.79440  Biso   1.000  C
  C151     1.0000 0.08600  0.05390  0.20560  Biso   1.000  C
  C152     1.0000 0.91400  0.05390  0.79440  Biso   1.000  C
  C153     1.0000 0.62980  0.55900  0.05910  Biso   1.000  C
  C154     1.0000 0.37020  0.55900  0.94090  Biso   1.000  C
  C155     1.0000 0.12980  0.05900  0.05910  Biso   1.000  C
  C156     1.0000 0.87020  0.05900  0.94090  Biso   1.000  C
