data_image0
_cell_length_a       13.2142
_cell_length_b       13.8021
_cell_length_c       15.108
_cell_angle_alpha    98.5544
_cell_angle_beta     94.0136
_cell_angle_gamma    108.002

_symmetry_space_group_name_H-M    "P 1"
_symmetry_int_tables_number       1

loop_
  _symmetry_equiv_pos_as_xyz
  'x, y, z'

loop_
  _atom_site_label
  _atom_site_occupancy
  _atom_site_fract_x
  _atom_site_fract_y
  _atom_site_fract_z
  _atom_site_thermal_displace_type
  _atom_site_B_iso_or_equiv
  _atom_site_type_symbol
  Cu1      1.0000 0.12030  0.97201  0.56174  Biso   1.000  Cu
  Cu2      1.0000 0.22616  0.05883  0.94900  Biso   1.000  Cu
  Cu3      1.0000 0.15792  0.01115  0.10073  Biso   1.000  Cu
  Cu4      1.0000 0.26373  0.09804  0.48801  Biso   1.000  Cu
  O1       1.0000 0.10160  0.96130  0.22460  Biso   1.000  O
  O2       1.0000 0.17740  0.15940  0.13200  Biso   1.000  O
  O3       1.0000 0.07330  0.02990  0.91040  Biso   1.000  O
  O4       1.0000 0.13970  0.09220  0.65640  Biso   1.000  O
  O5       1.0000 0.00740  0.85830  0.62200  Biso   1.000  O
  O6       1.0000 0.12750  0.86870  0.45890  Biso   1.000  O
  O7       1.0000 0.21160  0.91140  0.91750  Biso   1.000  O
  O8       1.0000 0.15510  0.87200  0.04760  Biso   1.000  O
  O9       1.0000 0.01620  0.98740  0.03560  Biso   1.000  O
  O10      1.0000 0.23670  0.19970  0.00260  Biso   1.000  O
  O11      1.0000 0.36740  0.07010  0.57220  Biso   1.000  O
  O12      1.0000 0.14090  0.10860  0.41010  Biso   1.000  O
  O13      1.0000 0.36760  0.07920  0.01140  Biso   1.000  O
  O14      1.0000 0.24110  0.95430  0.62630  Biso   1.000  O
  O15      1.0000 0.02110  0.02030  0.48950  Biso   1.000  O
  O16      1.0000 0.24150  0.20200  0.57970  Biso   1.000  O
  O17      1.0000 0.26170  0.97600  0.40350  Biso   1.000  O
  O18      1.0000 0.28450  0.10930  0.82680  Biso   1.000  O
  O19      1.0000 0.37700  0.18710  0.40720  Biso   1.000  O
  O20      1.0000 0.30970  0.04160  0.14530  Biso   1.000  O
  C1       1.0000 0.12150  0.25150  0.78420  Biso   1.000  C
  H1       1.0000 0.09150  0.18390  0.79350  Biso   1.000  H
  C2       1.0000 0.16610  0.61740  0.29080  Biso   1.000  C
  C3       1.0000 0.67830  0.96280  0.85510  Biso   1.000  C
  C4       1.0000 0.69870  0.93420  0.93790  Biso   1.000  C
  H2       1.0000 0.64360  0.90900  0.97200  Biso   1.000  H
  C5       1.0000 0.15580  0.43470  0.83050  Biso   1.000  C
  C6       1.0000 0.87220  0.01520  0.83570  Biso   1.000  C
  H3       1.0000 0.92840  0.04100  0.80290  Biso   1.000  H
  C7       1.0000 0.72840  0.03680  0.72160  Biso   1.000  C
  C8       1.0000 0.22330  0.53630  0.16620  Biso   1.000  C
  C9       1.0000 0.18600  0.17930  0.64530  Biso   1.000  C
  C10      1.0000 0.76790  0.00550  0.80560  Biso   1.000  C
  C11      1.0000 0.47480  0.93270  0.82010  Biso   1.000  C
  H4       1.0000 0.45600  0.90420  0.87100  Biso   1.000  H
  C12      1.0000 0.80530  0.11200  0.25260  Biso   1.000  C
  C13      1.0000 0.20700  0.60980  0.82970  Biso   1.000  C
  C14      1.0000 0.10420  0.55950  0.95030  Biso   1.000  C
  H5       1.0000 0.06540  0.50790  0.97950  Biso   1.000  H
  C15      1.0000 0.17580  0.26980  0.70730  Biso   1.000  C
  C16      1.0000 0.16220  0.35120  0.18560  Biso   1.000  C
  C17      1.0000 0.25010  0.56780  0.75130  Biso   1.000  C
  C18      1.0000 0.26370  0.40840  0.06120  Biso   1.000  C
  H6       1.0000 0.29250  0.39000  0.00930  Biso   1.000  H
  C19      1.0000 0.27300  0.51380  0.09030  Biso   1.000  C
  H7       1.0000 0.31020  0.56550  0.06040  Biso   1.000  H
  C20      1.0000 0.52910  0.02350  0.66920  Biso   1.000  C
  H8       1.0000 0.54670  0.05400  0.61900  Biso   1.000  H
  C21      1.0000 0.17360  0.73970  0.94110  Biso   1.000  C
  C22      1.0000 0.88980  0.98410  0.91900  Biso   1.000  C
  C23      1.0000 0.98910  0.13280  0.29380  Biso   1.000  C
  H9       1.0000 0.06040  0.15320  0.28310  Biso   1.000  H
  C24      1.0000 0.15470  0.70130  0.34860  Biso   1.000  C
  H10      1.0000 0.11480  0.69020  0.39670  Biso   1.000  H
  C25      1.0000 0.21860  0.71090  0.86340  Biso   1.000  C
  H11      1.0000 0.25750  0.76240  0.83410  Biso   1.000  H
  C26      1.0000 0.90940  0.14160  0.23230  Biso   1.000  C
  H12      1.0000 0.92610  0.16650  0.17940  Biso   1.000  H
  C27      1.0000 0.49790  0.07690  0.12660  Biso   1.000  C
  C28      1.0000 0.42190  0.98790  0.68640  Biso   1.000  C
  C29      1.0000 0.18130  0.85000  0.96950  Biso   1.000  C
  C30      1.0000 0.58040  0.10860  0.07780  Biso   1.000  C
  H13      1.0000 0.56740  0.11820  0.01900  Biso   1.000  H
  C31      1.0000 0.22510  0.37360  0.69380  Biso   1.000  C
  H14      1.0000 0.26530  0.38750  0.64630  Biso   1.000  H
  C32      1.0000 0.26960  0.74140  0.20540  Biso   1.000  C
  H15      1.0000 0.30830  0.75630  0.15730  Biso   1.000  H
  C33      1.0000 0.11250  0.33660  0.84810  Biso   1.000  C
  H16      1.0000 0.07860  0.32520  0.89930  Biso   1.000  H
  C34      1.0000 0.62290  0.07440  0.25120  Biso   1.000  C
  C35      1.0000 0.38070  0.06360  0.09240  Biso   1.000  C
  C36      1.0000 0.39660  0.94240  0.75900  Biso   1.000  C
  H17      1.0000 0.32500  0.91700  0.76810  Biso   1.000  H
  C37      1.0000 0.60790  0.01240  0.72830  Biso   1.000  C
  C38      1.0000 0.21200  0.33160  0.10910  Biso   1.000  C
  C39      1.0000 0.95930  0.09230  0.37290  Biso   1.000  C
  C40      1.0000 0.11460  0.66110  0.98250  Biso   1.000  C
  H18      1.0000 0.08180  0.67730  0.03250  Biso   1.000  H
  C41      1.0000 0.20210  0.79910  0.33430  Biso   1.000  C
  C42      1.0000 0.51850  0.06060  0.21440  Biso   1.000  C
  H19      1.0000 0.46220  0.04030  0.24850  Biso   1.000  H
  C43      1.0000 0.16720  0.45790  0.21140  Biso   1.000  C
  C44      1.0000 0.36930  0.60400  0.74390  Biso   1.000  C
  H20      1.0000 0.37560  0.58480  0.68060  Biso   1.000  H
  H21      1.0000 0.39160  0.67900  0.75640  Biso   1.000  H
  C45      1.0000 0.80320  0.94470  0.96710  Biso   1.000  C
  H22      1.0000 0.81750  0.92460  0.02140  Biso   1.000  H
  C46      1.0000 0.20800  0.22230  0.07720  Biso   1.000  C
  C47      1.0000 0.00450  0.46080  0.29060  Biso   1.000  C
  H23      1.0000 0.98360  0.38640  0.28750  Biso   1.000  H
  H24      1.0000 0.98340  0.48980  0.34600  Biso   1.000  H
  C48      1.0000 0.58260  0.96640  0.80410  Biso   1.000  C
  C49      1.0000 0.30470  0.42880  0.46860  Biso   1.000  C
  H25      1.0000 0.26810  0.44450  0.51960  Biso   1.000  H
  H26      1.0000 0.27240  0.35600  0.44240  Biso   1.000  H
  C50      1.0000 0.77920  0.07950  0.33470  Biso   1.000  C
  C51      1.0000 0.20220  0.59150  0.66530  Biso   1.000  C
  H27      1.0000 0.24290  0.66190  0.66050  Biso   1.000  H
  H28      1.0000 0.21470  0.54630  0.61470  Biso   1.000  H
  C52      1.0000 0.33880  0.00590  0.62560  Biso   1.000  C
  C53      1.0000 0.12620  0.50310  0.29610  Biso   1.000  C
  C54      1.0000 0.78320  0.15190  0.72450  Biso   1.000  C
  H29      1.0000 0.77550  0.16470  0.66340  Biso   1.000  H
  H30      1.0000 0.85920  0.16650  0.74210  Biso   1.000  H
  C55      1.0000 0.14970  0.53350  0.87620  Biso   1.000  C
  C56      1.0000 0.75130  0.97850  0.63410  Biso   1.000  C
  H31      1.0000 0.82790  0.00490  0.63160  Biso   1.000  H
  H32      1.0000 0.71690  0.99820  0.58410  Biso   1.000  H
  C57      1.0000 0.70280  0.10850  0.20240  Biso   1.000  C
  C58      1.0000 0.99760  0.99940  0.95800  Biso   1.000  C
  C59      1.0000 0.19490  0.88560  0.40660  Biso   1.000  C
  C60      1.0000 0.17400  0.47450  0.38270  Biso   1.000  C
  H33      1.0000 0.15390  0.51130  0.43470  Biso   1.000  H
  H34      1.0000 0.13940  0.40110  0.38120  Biso   1.000  H
  C61      1.0000 0.22330  0.63570  0.21750  Biso   1.000  C
  C62      1.0000 0.21060  0.45220  0.75410  Biso   1.000  C
  C63      1.0000 0.29690  0.49660  0.39840  Biso   1.000  C
  H35      1.0000 0.32480  0.47540  0.34290  Biso   1.000  H
  C64      1.0000 0.63620  0.11860  0.42230  Biso   1.000  C
  H36      1.0000 0.55890  0.10090  0.41870  Biso   1.000  H
  H37      1.0000 0.65960  0.09760  0.47660  Biso   1.000  H
  C65      1.0000 0.04870  0.07240  0.43110  Biso   1.000  C
  C66      1.0000 0.76980  0.42730  0.81710  Biso   1.000  C
  H38      1.0000 0.81190  0.49300  0.80470  Biso   1.000  H
  H39      1.0000 0.69590  0.41330  0.79490  Biso   1.000  H
  H40      1.0000 0.77660  0.42870  0.88100  Biso   1.000  H
  C67      1.0000 0.25650  0.81700  0.26360  Biso   1.000  C
  H41      1.0000 0.28600  0.88500  0.25510  Biso   1.000  H
  C68      1.0000 0.81000  0.34150  0.76990  Biso   1.000  C
  H42      1.0000 0.88520  0.35740  0.79160  Biso   1.000  H
  H43      1.0000 0.80460  0.34200  0.70560  Biso   1.000  H
  C69      1.0000 0.66030  0.04980  0.34120  Biso   1.000  C
  C70      1.0000 0.68500  0.12650  0.11650  Biso   1.000  C
  H44      1.0000 0.74240  0.15050  0.08430  Biso   1.000  H
  C71      1.0000 0.08380  0.58180  0.65300  Biso   1.000  C
  H45      1.0000 0.07440  0.62410  0.70780  Biso   1.000  H
  C72      1.0000 0.35280  0.61180  0.43770  Biso   1.000  C
  H46      1.0000 0.34680  0.65260  0.39250  Biso   1.000  H
  H47      1.0000 0.31930  0.63160  0.48860  Biso   1.000  H
  H48      1.0000 0.42710  0.62340  0.45650  Biso   1.000  H
  C73      1.0000 0.74800  0.23120  0.78510  Biso   1.000  C
  H49      1.0000 0.67130  0.21780  0.76820  Biso   1.000  H
  C74      1.0000 0.71820  0.85860  0.61560  Biso   1.000  C
  H50      1.0000 0.75070  0.83790  0.66680  Biso   1.000  H
  C75      1.0000 0.04610  0.62950  0.57580  Biso   1.000  C
  H51      1.0000 0.09700  0.69640  0.57580  Biso   1.000  H
  H52      1.0000 0.04070  0.58520  0.51910  Biso   1.000  H
  H53      1.0000 0.97730  0.63650  0.58470  Biso   1.000  H
  C76      1.0000 0.04470  0.85670  0.72360  Biso   1.000  C
  C77      1.0000 0.00340  0.39950  0.56800  Biso   1.000  C
  H54      1.0000 0.95040  0.33390  0.56880  Biso   1.000  H
  H55      1.0000 0.98770  0.42430  0.51430  Biso   1.000  H
  H56      1.0000 0.07300  0.39130  0.56900  Biso   1.000  H
  C78      1.0000 0.42440  0.45380  0.49860  Biso   1.000  C
  H57      1.0000 0.43360  0.41300  0.54290  Biso   1.000  H
  H58      1.0000 0.45950  0.43790  0.44750  Biso   1.000  H
  H59      1.0000 0.45520  0.52600  0.52430  Biso   1.000  H
  C79      1.0000 0.59720  0.80160  0.60450  Biso   1.000  C
  H60      1.0000 0.58420  0.72830  0.59340  Biso   1.000  H
  H61      1.0000 0.56850  0.82060  0.65870  Biso   1.000  H
  H62      1.0000 0.56310  0.82040  0.55470  Biso   1.000  H
  C80      1.0000 0.00190  0.47710  0.65060  Biso   1.000  C
  H63      1.0000 0.93110  0.48420  0.65000  Biso   1.000  H
  H64      1.0000 0.01650  0.45120  0.70470  Biso   1.000  H
  C81      1.0000 0.76370  0.82060  0.52980  Biso   1.000  C
  H65      1.0000 0.72470  0.83140  0.47740  Biso   1.000  H
  H66      1.0000 0.83810  0.86280  0.53280  Biso   1.000  H
  C82      1.0000 0.76670  0.22710  0.88590  Biso   1.000  C
  H67      1.0000 0.74320  0.27840  0.92070  Biso   1.000  H
  H68      1.0000 0.72680  0.15970  0.89650  Biso   1.000  H
  H69      1.0000 0.84170  0.24070  0.90360  Biso   1.000  H
  C83      1.0000 0.75710  0.70490  0.51670  Biso   1.000  C
  H70      1.0000 0.78660  0.68750  0.46260  Biso   1.000  H
  H71      1.0000 0.79710  0.69360  0.56740  Biso   1.000  H
  H72      1.0000 0.68350  0.66220  0.51190  Biso   1.000  H
  C84      1.0000 0.85780  0.06690  0.39190  Biso   1.000  C
  H73      1.0000 0.84060  0.04060  0.44410  Biso   1.000  H
  C85      1.0000 0.60650  0.93520  0.34930  Biso   1.000  C
  H74      1.0000 0.64160  0.92310  0.40320  Biso   1.000  H
  H75      1.0000 0.53260  0.92620  0.35890  Biso   1.000  H
  C86      1.0000 0.60610  0.85260  0.27310  Biso   1.000  C
  H76      1.0000 0.56440  0.85750  0.21870  Biso   1.000  H
  C87      1.0000 0.71260  0.85170  0.25330  Biso   1.000  C
  H77      1.0000 0.70560  0.79670  0.20380  Biso   1.000  H
  H78      1.0000 0.75150  0.91670  0.23760  Biso   1.000  H
  H79      1.0000 0.75070  0.84110  0.30550  Biso   1.000  H
  C88      1.0000 0.54420  0.75880  0.31220  Biso   1.000  C
  H80      1.0000 0.58200  0.75880  0.36960  Biso   1.000  H
  H81      1.0000 0.47380  0.76280  0.32260  Biso   1.000  H
  C89      1.0000 0.53240  0.66030  0.24790  Biso   1.000  C
  H82      1.0000 0.49340  0.60180  0.27300  Biso   1.000  H
  H83      1.0000 0.49420  0.66010  0.19140  Biso   1.000  H
  H84      1.0000 0.60210  0.65620  0.23830  Biso   1.000  H
  C90      1.0000 0.96870  0.78940  0.16640  Biso   1.000  C
  C91      1.0000 0.37100  0.20500  0.82900  Biso   1.000  C
  C92      1.0000 0.97150  0.79250  0.78100  Biso   1.000  C
  C93      1.0000 0.99720  0.88760  0.22980  Biso   1.000  C
  C94      1.0000 0.46860  0.22100  0.87410  Biso   1.000  C
  C95      1.0000 0.94250  0.48220  0.21240  Biso   1.000  C
  H85      1.0000 0.98990  0.54640  0.19800  Biso   1.000  H
  C96      1.0000 0.45480  0.57600  0.79480  Biso   1.000  C
  H86      1.0000 0.43600  0.50320  0.76550  Biso   1.000  H
  C97      1.0000 0.91910  0.40280  0.12460  Biso   1.000  C
  H87      1.0000 0.87950  0.42330  0.07920  Biso   1.000  H
  H88      1.0000 0.98550  0.39970  0.10440  Biso   1.000  H
  H89      1.0000 0.87780  0.33590  0.13510  Biso   1.000  H
  C98      1.0000 0.43320  0.56000  0.88770  Biso   1.000  C
  H90      1.0000 0.40820  0.48600  0.88870  Biso   1.000  H
  H91      1.0000 0.37680  0.58740  0.90460  Biso   1.000  H
  C99      1.0000 0.57580  0.61100  0.78630  Biso   1.000  C
  H92      1.0000 0.58640  0.62020  0.72550  Biso   1.000  H
  H93      1.0000 0.61100  0.67480  0.82700  Biso   1.000  H
  H94      1.0000 0.60520  0.55880  0.80100  Biso   1.000  H
  C100     1.0000 0.68250  0.23680  0.43670  Biso   1.000  C
  H95      1.0000 0.75460  0.24280  0.46310  Biso   1.000  H
  C101     1.0000 0.53420  0.61300  0.95700  Biso   1.000  C
  H96      1.0000 0.51730  0.60060  0.01600  Biso   1.000  H
  H97      1.0000 0.58980  0.58440  0.94110  Biso   1.000  H
  H98      1.0000 0.55840  0.68570  0.95690  Biso   1.000  H
  C102     1.0000 0.83880  0.50500  0.23000  Biso   1.000  C
  H99      1.0000 0.85690  0.57340  0.26580  Biso   1.000  H
  H100     1.0000 0.79880  0.45560  0.26460  Biso   1.000  H
  C103     1.0000 0.76700  0.49900  0.14400  Biso   1.000  C
  H101     1.0000 0.70340  0.51410  0.15990  Biso   1.000  H
  H102     1.0000 0.80480  0.54880  0.10950  Biso   1.000  H
  H103     1.0000 0.74670  0.43080  0.10830  Biso   1.000  H
  C104     1.0000 0.71500  0.33600  0.39600  Biso   1.000  C
  C105     1.0000 0.64700  0.28620  0.52400  Biso   1.000  C
  H104     1.0000 0.66390  0.25330  0.57300  Biso   1.000  H
  H105     1.0000 0.57020  0.27010  0.51490  Biso   1.000  H
  C106     1.0000 0.69930  0.40620  0.55420  Biso   1.000  C
