data_image0
_cell_length_a       10.637
_cell_length_b       20.225
_cell_length_c       7.666
_cell_angle_alpha    90
_cell_angle_beta     90
_cell_angle_gamma    90

_symmetry_space_group_name_H-M    "P 1"
_symmetry_int_tables_number       1

loop_
  _symmetry_equiv_pos_as_xyz
  'x, y, z'

loop_
  _atom_site_label
  _atom_site_occupancy
  _atom_site_fract_x
  _atom_site_fract_y
  _atom_site_fract_z
  _atom_site_thermal_displace_type
  _atom_site_B_iso_or_equiv
  _atom_site_type_symbol
  Mo1      1.0000 0.65071  0.04239  0.45449  Biso   1.000  Mo
  Mo2      1.0000 0.34929  0.95761  0.45449  Biso   1.000  Mo
  Mo3      1.0000 0.15071  0.45761  0.54551  Biso   1.000  Mo
  Mo4      1.0000 0.84929  0.54239  0.54551  Biso   1.000  Mo
  O1       1.0000 0.24820  0.10320  0.20340  Biso   1.000  O
  O2       1.0000 0.75180  0.89680  0.20340  Biso   1.000  O
  O3       1.0000 0.74820  0.39680  0.79660  Biso   1.000  O
  O4       1.0000 0.25180  0.60320  0.79660  Biso   1.000  O
  N1       1.0000 0.61790  0.27940  0.26110  Biso   1.000  N
  N2       1.0000 0.38210  0.72060  0.26110  Biso   1.000  N
  N3       1.0000 0.11790  0.22060  0.73890  Biso   1.000  N
  N4       1.0000 0.88210  0.77940  0.73890  Biso   1.000  N
  S1       1.0000 0.55547  0.39385  0.36400  Biso   1.000  S
  S2       1.0000 0.44453  0.60615  0.36400  Biso   1.000  S
  S3       1.0000 0.05547  0.10615  0.63600  Biso   1.000  S
  S4       1.0000 0.94453  0.89385  0.63600  Biso   1.000  S
  C1       1.0000 0.71140  0.37840  0.33370  Biso   1.000  C
  C2       1.0000 0.28860  0.62160  0.33370  Biso   1.000  C
  C3       1.0000 0.21140  0.12160  0.66630  Biso   1.000  C
  C4       1.0000 0.78860  0.87840  0.66630  Biso   1.000  C
  H1       1.0000 0.77580  0.40870  0.35230  Biso   1.000  H
  H2       1.0000 0.22420  0.59130  0.35230  Biso   1.000  H
  H3       1.0000 0.27580  0.09130  0.64770  Biso   1.000  H
  H4       1.0000 0.72420  0.90870  0.64770  Biso   1.000  H
  Mo5      1.0000 0.40119  0.08184  0.19937  Biso   1.000  Mo
  Mo6      1.0000 0.59881  0.91816  0.19937  Biso   1.000  Mo
  Mo7      1.0000 0.90119  0.41816  0.80063  Biso   1.000  Mo
  Mo8      1.0000 0.09881  0.58184  0.80063  Biso   1.000  Mo
  O5       1.0000 0.43320  0.05362  0.96450  Biso   1.000  O
  O6       1.0000 0.56680  0.94638  0.96450  Biso   1.000  O
  O7       1.0000 0.93320  0.44638  0.03550  Biso   1.000  O
  O8       1.0000 0.06680  0.55362  0.03550  Biso   1.000  O
  N5       1.0000 0.83090  0.21480  0.19400  Biso   1.000  N
  N6       1.0000 0.16910  0.78520  0.19400  Biso   1.000  N
  N7       1.0000 0.33090  0.28520  0.80600  Biso   1.000  N
  N8       1.0000 0.66910  0.71480  0.80600  Biso   1.000  N
  Mo9      1.0000 0.34941  0.96203  0.93140  Biso   1.000  Mo
  Mo10     1.0000 0.65059  0.03797  0.93140  Biso   1.000  Mo
  Mo11     1.0000 0.84941  0.53797  0.06860  Biso   1.000  Mo
  Mo12     1.0000 0.15059  0.46203  0.06860  Biso   1.000  Mo
  O9       1.0000 0.32350  0.87854  0.98610  Biso   1.000  O
  O10      1.0000 0.67650  0.12146  0.98610  Biso   1.000  O
  O11      1.0000 0.82350  0.62146  0.01390  Biso   1.000  O
  O12      1.0000 0.17650  0.37854  0.01390  Biso   1.000  O
  C5       1.0000 0.38500  0.29210  0.29800  Biso   1.000  C
  C6       1.0000 0.61500  0.70790  0.29800  Biso   1.000  C
  C7       1.0000 0.88500  0.20790  0.70200  Biso   1.000  C
  C8       1.0000 0.11500  0.79210  0.70200  Biso   1.000  C
  H5       1.0000 0.38220  0.24680  0.26090  Biso   1.000  H
  H6       1.0000 0.61780  0.75320  0.26090  Biso   1.000  H
  H7       1.0000 0.88220  0.25320  0.73910  Biso   1.000  H
  H8       1.0000 0.11780  0.74680  0.73910  Biso   1.000  H
  H9       1.0000 0.33830  0.31890  0.21760  Biso   1.000  H
  H10      1.0000 0.66170  0.68110  0.21760  Biso   1.000  H
  H11      1.0000 0.83830  0.18110  0.78240  Biso   1.000  H
  H12      1.0000 0.16170  0.81890  0.78240  Biso   1.000  H
  H13      1.0000 0.34870  0.29580  0.41230  Biso   1.000  H
  H14      1.0000 0.65130  0.70420  0.41230  Biso   1.000  H
  H15      1.0000 0.84870  0.20420  0.58770  Biso   1.000  H
  H16      1.0000 0.15130  0.79580  0.58770  Biso   1.000  H
  Cu1      1.0000 0.65246  0.18675  0.17479  Biso   1.000  Cu
  Cu2      1.0000 0.34754  0.81325  0.17479  Biso   1.000  Cu
  Cu3      1.0000 0.15246  0.31325  0.82521  Biso   1.000  Cu
  Cu4      1.0000 0.84754  0.68675  0.82521  Biso   1.000  Cu
  O13      1.0000 0.67370  0.12599  0.42060  Biso   1.000  O
  O14      1.0000 0.32630  0.87401  0.42060  Biso   1.000  O
  O15      1.0000 0.17370  0.37401  0.57940  Biso   1.000  O
  O16      1.0000 0.82630  0.62599  0.57940  Biso   1.000  O
  C9       1.0000 0.95520  0.11240  0.13710  Biso   1.000  C
  C10      1.0000 0.04480  0.88760  0.13710  Biso   1.000  C
  C11      1.0000 0.45520  0.38760  0.86290  Biso   1.000  C
  C12      1.0000 0.54480  0.61240  0.86290  Biso   1.000  C
  H17      1.0000 0.87400  0.09340  0.11520  Biso   1.000  H
  H18      1.0000 0.12600  0.90660  0.11520  Biso   1.000  H
  H19      1.0000 0.37400  0.40660  0.88480  Biso   1.000  H
  H20      1.0000 0.62600  0.59340  0.88480  Biso   1.000  H
  H21      1.0000 0.99410  0.09000  0.23330  Biso   1.000  H
  H22      1.0000 0.00590  0.91000  0.23330  Biso   1.000  H
  H23      1.0000 0.49410  0.41000  0.76670  Biso   1.000  H
  H24      1.0000 0.50590  0.59000  0.76670  Biso   1.000  H
  H25      1.0000 0.00680  0.10770  0.03510  Biso   1.000  H
  H26      1.0000 0.99320  0.89230  0.03510  Biso   1.000  H
  H27      1.0000 0.50680  0.39230  0.96490  Biso   1.000  H
  H28      1.0000 0.49320  0.60770  0.96490  Biso   1.000  H
  O17      1.0000 0.48120  0.15809  0.18710  Biso   1.000  O
  O18      1.0000 0.51880  0.84191  0.18710  Biso   1.000  O
  O19      1.0000 0.98120  0.34191  0.81290  Biso   1.000  O
  O20      1.0000 0.01880  0.65809  0.81290  Biso   1.000  O
  C13      1.0000 0.96690  0.29930  0.26760  Biso   1.000  C
  C14      1.0000 0.03310  0.70070  0.26760  Biso   1.000  C
  C15      1.0000 0.46690  0.20070  0.73240  Biso   1.000  C
  C16      1.0000 0.53310  0.79930  0.73240  Biso   1.000  C
  H29      1.0000 0.99240  0.34150  0.30020  Biso   1.000  H
  H30      1.0000 0.00760  0.65850  0.30020  Biso   1.000  H
  H31      1.0000 0.49240  0.15850  0.69980  Biso   1.000  H
  H32      1.0000 0.50760  0.84150  0.69980  Biso   1.000  H
  C17      1.0000 0.51740  0.31480  0.30320  Biso   1.000  C
  C18      1.0000 0.48260  0.68520  0.30320  Biso   1.000  C
  C19      1.0000 0.01740  0.18520  0.69680  Biso   1.000  C
  C20      1.0000 0.98260  0.81480  0.69680  Biso   1.000  C
  S5       1.0000 0.06470  0.23481  0.22640  Biso   1.000  S
  S6       1.0000 0.93530  0.76519  0.22640  Biso   1.000  S
  S7       1.0000 0.56470  0.26519  0.77360  Biso   1.000  S
  S8       1.0000 0.43530  0.73481  0.77360  Biso   1.000  S
  O21      1.0000 0.20270  0.99260  0.91980  Biso   1.000  O
  O22      1.0000 0.79730  0.00740  0.91980  Biso   1.000  O
  O23      1.0000 0.70270  0.50740  0.08020  Biso   1.000  O
  O24      1.0000 0.29730  0.49260  0.08020  Biso   1.000  O
  O25      1.0000 0.43770  0.05614  0.43270  Biso   1.000  O
  O26      1.0000 0.56230  0.94386  0.43270  Biso   1.000  O
  O27      1.0000 0.93770  0.44386  0.56730  Biso   1.000  O
  O28      1.0000 0.06230  0.55614  0.56730  Biso   1.000  O
  O29      1.0000 0.79810  0.01170  0.47060  Biso   1.000  O
  O30      1.0000 0.20190  0.98830  0.47060  Biso   1.000  O
  O31      1.0000 0.29810  0.48830  0.52940  Biso   1.000  O
  O32      1.0000 0.70190  0.51170  0.52940  Biso   1.000  O
  O33      1.0000 0.39210  0.95750  0.69810  Biso   1.000  O
  O34      1.0000 0.60790  0.04250  0.69810  Biso   1.000  O
  O35      1.0000 0.89210  0.54250  0.30190  Biso   1.000  O
  O36      1.0000 0.10790  0.45750  0.30190  Biso   1.000  O
  O37      1.0000 0.37840  0.97569  0.19970  Biso   1.000  O
  O38      1.0000 0.62160  0.02431  0.19970  Biso   1.000  O
  O39      1.0000 0.87840  0.52431  0.80030  Biso   1.000  O
  O40      1.0000 0.12160  0.47569  0.80030  Biso   1.000  O
  C21      1.0000 0.84430  0.27960  0.24520  Biso   1.000  C
  C22      1.0000 0.15570  0.72040  0.24520  Biso   1.000  C
  C23      1.0000 0.34430  0.22040  0.75480  Biso   1.000  C
  C24      1.0000 0.65570  0.77960  0.75480  Biso   1.000  C
  C25      1.0000 0.94060  0.18410  0.18000  Biso   1.000  C
  C26      1.0000 0.05940  0.81590  0.18000  Biso   1.000  C
  C27      1.0000 0.44060  0.31590  0.82000  Biso   1.000  C
  C28      1.0000 0.55940  0.68410  0.82000  Biso   1.000  C
  C29      1.0000 0.72760  0.31550  0.27850  Biso   1.000  C
  C30      1.0000 0.27240  0.68450  0.27850  Biso   1.000  C
  C31      1.0000 0.22760  0.18450  0.72150  Biso   1.000  C
  C32      1.0000 0.77240  0.81550  0.72150  Biso   1.000  C
