data_image0
_cell_length_a       23.922
_cell_length_b       13.382
_cell_length_c       16.376
_cell_angle_alpha    90
_cell_angle_beta     125.83
_cell_angle_gamma    90

_symmetry_space_group_name_H-M    "P 1"
_symmetry_int_tables_number       1

loop_
  _symmetry_equiv_pos_as_xyz
  'x, y, z'

loop_
  _atom_site_label
  _atom_site_occupancy
  _atom_site_fract_x
  _atom_site_fract_y
  _atom_site_fract_z
  _atom_site_thermal_displace_type
  _atom_site_B_iso_or_equiv
  _atom_site_type_symbol
  Cu1      1.0000 0.21501  0.22920  0.05107  Biso   1.000  Cu
  Cu2      1.0000 0.78499  0.22920  0.44893  Biso   1.000  Cu
  Cu3      1.0000 0.71501  0.72920  0.05107  Biso   1.000  Cu
  Cu4      1.0000 0.28499  0.72920  0.44893  Biso   1.000  Cu
  Cu5      1.0000 0.78499  0.77080  0.94893  Biso   1.000  Cu
  Cu6      1.0000 0.21501  0.77080  0.55107  Biso   1.000  Cu
  Cu7      1.0000 0.28499  0.27080  0.94893  Biso   1.000  Cu
  Cu8      1.0000 0.71501  0.27080  0.55107  Biso   1.000  Cu
  O1       1.0000 0.18927  0.11294  0.09304  Biso   1.000  O
  O2       1.0000 0.81073  0.11294  0.40696  Biso   1.000  O
  O3       1.0000 0.68927  0.61294  0.09304  Biso   1.000  O
  O4       1.0000 0.31073  0.61294  0.40696  Biso   1.000  O
  O5       1.0000 0.81073  0.88706  0.90696  Biso   1.000  O
  O6       1.0000 0.18927  0.88706  0.59304  Biso   1.000  O
  O7       1.0000 0.31073  0.38706  0.90696  Biso   1.000  O
  O8       1.0000 0.68927  0.38706  0.59304  Biso   1.000  O
  O9       1.0000 0.14539  0.01539  0.95945  Biso   1.000  O
  O10      1.0000 0.85461  0.01539  0.54055  Biso   1.000  O
  O11      1.0000 0.64539  0.51539  0.95945  Biso   1.000  O
  O12      1.0000 0.35461  0.51539  0.54055  Biso   1.000  O
  O13      1.0000 0.85461  0.98461  0.04055  Biso   1.000  O
  O14      1.0000 0.14539  0.98461  0.45945  Biso   1.000  O
  O15      1.0000 0.35461  0.48461  0.04055  Biso   1.000  O
  O16      1.0000 0.64539  0.48461  0.45945  Biso   1.000  O
  O17      1.0000 0.27278  0.52485  0.12695  Biso   1.000  O
  O18      1.0000 0.72722  0.52485  0.37305  Biso   1.000  O
  O19      1.0000 0.77278  0.02485  0.12695  Biso   1.000  O
  O20      1.0000 0.22722  0.02485  0.37305  Biso   1.000  O
  O21      1.0000 0.72722  0.47515  0.87305  Biso   1.000  O
  O22      1.0000 0.27278  0.47515  0.62695  Biso   1.000  O
  O23      1.0000 0.22722  0.97515  0.87305  Biso   1.000  O
  O24      1.0000 0.77278  0.97515  0.62695  Biso   1.000  O
  O25      1.0000 0.21160  0.54870  0.95800  Biso   1.000  O
  O26      1.0000 0.78840  0.54870  0.54200  Biso   1.000  O
  O27      1.0000 0.71160  0.04870  0.95800  Biso   1.000  O
  O28      1.0000 0.28840  0.04870  0.54200  Biso   1.000  O
  O29      1.0000 0.78840  0.45130  0.04200  Biso   1.000  O
  O30      1.0000 0.21160  0.45130  0.45800  Biso   1.000  O
  O31      1.0000 0.28840  0.95130  0.04200  Biso   1.000  O
  O32      1.0000 0.71160  0.95130  0.45800  Biso   1.000  O
  N1       1.0000 0.16620  0.85396  0.08174  Biso   1.000  N
  N2       1.0000 0.83380  0.85396  0.41826  Biso   1.000  N
  N3       1.0000 0.66620  0.35396  0.08174  Biso   1.000  N
  N4       1.0000 0.33380  0.35396  0.41826  Biso   1.000  N
  N5       1.0000 0.83380  0.14604  0.91826  Biso   1.000  N
  N6       1.0000 0.16620  0.14604  0.58174  Biso   1.000  N
  N7       1.0000 0.33380  0.64604  0.91826  Biso   1.000  N
  N8       1.0000 0.66620  0.64604  0.58174  Biso   1.000  N
  C1       1.0000 0.21550  0.80330  0.16320  Biso   1.000  C
  C2       1.0000 0.78450  0.80330  0.33680  Biso   1.000  C
  C3       1.0000 0.71550  0.30330  0.16320  Biso   1.000  C
  C4       1.0000 0.28450  0.30330  0.33680  Biso   1.000  C
  C5       1.0000 0.78450  0.19670  0.83680  Biso   1.000  C
  C6       1.0000 0.21550  0.19670  0.66320  Biso   1.000  C
  C7       1.0000 0.28450  0.69670  0.83680  Biso   1.000  C
  C8       1.0000 0.71550  0.69670  0.66320  Biso   1.000  C
  H1       1.0000 0.23580  0.83110  0.22680  Biso   1.000  H
  H2       1.0000 0.76420  0.83110  0.27320  Biso   1.000  H
  H3       1.0000 0.73580  0.33110  0.22680  Biso   1.000  H
  H4       1.0000 0.26420  0.33110  0.27320  Biso   1.000  H
  H5       1.0000 0.76420  0.16890  0.77320  Biso   1.000  H
  H6       1.0000 0.23580  0.16890  0.72680  Biso   1.000  H
  H7       1.0000 0.26420  0.66890  0.77320  Biso   1.000  H
  H8       1.0000 0.73580  0.66890  0.72680  Biso   1.000  H
  C9       1.0000 0.23655  0.71120  0.15460  Biso   1.000  C
  C10      1.0000 0.76345  0.71120  0.34540  Biso   1.000  C
  C11      1.0000 0.73655  0.21120  0.15460  Biso   1.000  C
  C12      1.0000 0.26345  0.21120  0.34540  Biso   1.000  C
  C13      1.0000 0.76345  0.28880  0.84540  Biso   1.000  C
  C14      1.0000 0.23655  0.28880  0.65460  Biso   1.000  C
  C15      1.0000 0.26345  0.78880  0.84540  Biso   1.000  C
  C16      1.0000 0.73655  0.78880  0.65460  Biso   1.000  C
  H9       1.0000 0.27080  0.67660  0.21170  Biso   1.000  H
  H10      1.0000 0.72920  0.67660  0.28830  Biso   1.000  H
  H11      1.0000 0.77080  0.17660  0.21170  Biso   1.000  H
  H12      1.0000 0.22920  0.17660  0.28830  Biso   1.000  H
  H13      1.0000 0.72920  0.32340  0.78830  Biso   1.000  H
  H14      1.0000 0.27080  0.32340  0.71170  Biso   1.000  H
  H15      1.0000 0.22920  0.82340  0.78830  Biso   1.000  H
  H16      1.0000 0.77080  0.82340  0.71170  Biso   1.000  H
  C17      1.0000 0.20626  0.67040  0.05990  Biso   1.000  C
  C18      1.0000 0.79374  0.67040  0.44010  Biso   1.000  C
  C19      1.0000 0.70626  0.17040  0.05990  Biso   1.000  C
  C20      1.0000 0.29374  0.17040  0.44010  Biso   1.000  C
  C21      1.0000 0.79374  0.32960  0.94010  Biso   1.000  C
  C22      1.0000 0.20626  0.32960  0.55990  Biso   1.000  C
  C23      1.0000 0.29374  0.82960  0.94010  Biso   1.000  C
  C24      1.0000 0.70626  0.82960  0.55990  Biso   1.000  C
  C25      1.0000 0.15505  0.72410  0.97660  Biso   1.000  C
  C26      1.0000 0.84495  0.72410  0.52340  Biso   1.000  C
  C27      1.0000 0.65505  0.22410  0.97660  Biso   1.000  C
  C28      1.0000 0.34495  0.22410  0.52340  Biso   1.000  C
  C29      1.0000 0.84495  0.27590  0.02340  Biso   1.000  C
  C30      1.0000 0.15505  0.27590  0.47660  Biso   1.000  C
  C31      1.0000 0.34495  0.77590  0.02340  Biso   1.000  C
  C32      1.0000 0.65505  0.77590  0.47660  Biso   1.000  C
  H17      1.0000 0.13410  0.69800  0.91230  Biso   1.000  H
  H18      1.0000 0.86590  0.69800  0.58770  Biso   1.000  H
  H19      1.0000 0.63410  0.19800  0.91230  Biso   1.000  H
  H20      1.0000 0.36590  0.19800  0.58770  Biso   1.000  H
  H21      1.0000 0.86590  0.30200  0.08770  Biso   1.000  H
  H22      1.0000 0.13410  0.30200  0.41230  Biso   1.000  H
  H23      1.0000 0.36590  0.80200  0.08770  Biso   1.000  H
  H24      1.0000 0.63410  0.80200  0.41230  Biso   1.000  H
  C33      1.0000 0.13518  0.81570  0.98910  Biso   1.000  C
  C34      1.0000 0.86482  0.81570  0.51090  Biso   1.000  C
  C35      1.0000 0.63518  0.31570  0.98910  Biso   1.000  C
  C36      1.0000 0.36482  0.31570  0.51090  Biso   1.000  C
  C37      1.0000 0.86482  0.18430  0.01090  Biso   1.000  C
  C38      1.0000 0.13518  0.18430  0.48910  Biso   1.000  C
  C39      1.0000 0.36482  0.68430  0.01090  Biso   1.000  C
  C40      1.0000 0.63518  0.68430  0.48910  Biso   1.000  C
  H25      1.0000 0.10030  0.85120  0.93330  Biso   1.000  H
  H26      1.0000 0.89970  0.85120  0.56670  Biso   1.000  H
  H27      1.0000 0.60030  0.35120  0.93330  Biso   1.000  H
  H28      1.0000 0.39970  0.35120  0.56670  Biso   1.000  H
  H29      1.0000 0.89970  0.14880  0.06670  Biso   1.000  H
  H30      1.0000 0.10030  0.14880  0.43330  Biso   1.000  H
  H31      1.0000 0.39970  0.64880  0.06670  Biso   1.000  H
  H32      1.0000 0.60030  0.64880  0.43330  Biso   1.000  H
  C41      1.0000 0.14719  0.95444  0.09530  Biso   1.000  C
  C42      1.0000 0.85281  0.95444  0.40470  Biso   1.000  C
  C43      1.0000 0.64719  0.45444  0.09530  Biso   1.000  C
  C44      1.0000 0.35281  0.45444  0.40470  Biso   1.000  C
  C45      1.0000 0.85281  0.04556  0.90470  Biso   1.000  C
  C46      1.0000 0.14719  0.04556  0.59530  Biso   1.000  C
  C47      1.0000 0.35281  0.54556  0.90470  Biso   1.000  C
  C48      1.0000 0.64719  0.54556  0.59530  Biso   1.000  C
  H33      1.0000 0.17270  0.96920  0.16660  Biso   1.000  H
  H34      1.0000 0.82730  0.96920  0.33340  Biso   1.000  H
  H35      1.0000 0.67270  0.46920  0.16660  Biso   1.000  H
  H36      1.0000 0.32730  0.46920  0.33340  Biso   1.000  H
  H37      1.0000 0.82730  0.03080  0.83340  Biso   1.000  H
  H38      1.0000 0.17270  0.03080  0.66660  Biso   1.000  H
  H39      1.0000 0.32730  0.53080  0.83340  Biso   1.000  H
  H40      1.0000 0.67270  0.53080  0.66660  Biso   1.000  H
  H41      1.0000 0.09840  0.95590  0.06660  Biso   1.000  H
  H42      1.0000 0.90160  0.95590  0.43340  Biso   1.000  H
  H43      1.0000 0.59840  0.45590  0.06660  Biso   1.000  H
  H44      1.0000 0.40160  0.45590  0.43340  Biso   1.000  H
  H45      1.0000 0.90160  0.04410  0.93340  Biso   1.000  H
  H46      1.0000 0.09840  0.04410  0.56660  Biso   1.000  H
  H47      1.0000 0.40160  0.54410  0.93340  Biso   1.000  H
  H48      1.0000 0.59840  0.54410  0.56660  Biso   1.000  H
  C49      1.0000 0.16320  0.03390  0.04410  Biso   1.000  C
  C50      1.0000 0.83680  0.03390  0.45590  Biso   1.000  C
  C51      1.0000 0.66320  0.53390  0.04410  Biso   1.000  C
  C52      1.0000 0.33680  0.53390  0.45590  Biso   1.000  C
  C53      1.0000 0.83680  0.96610  0.95590  Biso   1.000  C
  C54      1.0000 0.16320  0.96610  0.54410  Biso   1.000  C
  C55      1.0000 0.33680  0.46610  0.95590  Biso   1.000  C
  C56      1.0000 0.66320  0.46610  0.54410  Biso   1.000  C
  C57      1.0000 0.22790  0.56930  0.04620  Biso   1.000  C
  C58      1.0000 0.77210  0.56930  0.45380  Biso   1.000  C
  C59      1.0000 0.72790  0.06930  0.04620  Biso   1.000  C
  C60      1.0000 0.27210  0.06930  0.45380  Biso   1.000  C
  C61      1.0000 0.77210  0.43070  0.95380  Biso   1.000  C
  C62      1.0000 0.22790  0.43070  0.54620  Biso   1.000  C
  C63      1.0000 0.27210  0.93070  0.95380  Biso   1.000  C
  C64      1.0000 0.72790  0.93070  0.54620  Biso   1.000  C
  Cu9      1.0000 0.17297  0.08563  0.86944  Biso   1.000  Cu
  Cu10     1.0000 0.82703  0.08563  0.63056  Biso   1.000  Cu
  Cu11     1.0000 0.67297  0.58563  0.86944  Biso   1.000  Cu
  Cu12     1.0000 0.32703  0.58563  0.63056  Biso   1.000  Cu
  Cu13     1.0000 0.82703  0.91437  0.13056  Biso   1.000  Cu
  Cu14     1.0000 0.17297  0.91437  0.36944  Biso   1.000  Cu
  Cu15     1.0000 0.32703  0.41437  0.13056  Biso   1.000  Cu
  Cu16     1.0000 0.67297  0.41437  0.36944  Biso   1.000  Cu
  O33      1.0000 0.09742  0.03330  0.74033  Biso   1.000  O
  O34      1.0000 0.90258  0.03330  0.75967  Biso   1.000  O
  O35      1.0000 0.59742  0.53330  0.74033  Biso   1.000  O
  O36      1.0000 0.40258  0.53330  0.75967  Biso   1.000  O
  O37      1.0000 0.90258  0.96670  0.25967  Biso   1.000  O
  O38      1.0000 0.09742  0.96670  0.24033  Biso   1.000  O
  O39      1.0000 0.40258  0.46670  0.25967  Biso   1.000  O
  O40      1.0000 0.59742  0.46670  0.24033  Biso   1.000  O
  H49      1.0000 0.09200  0.97130  0.73100  Biso   1.000  H
  H50      1.0000 0.90800  0.97130  0.76900  Biso   1.000  H
  H51      1.0000 0.59200  0.47130  0.73100  Biso   1.000  H
  H52      1.0000 0.40800  0.47130  0.76900  Biso   1.000  H
  H53      1.0000 0.90800  0.02870  0.26900  Biso   1.000  H
  H54      1.0000 0.09200  0.02870  0.23100  Biso   1.000  H
  H55      1.0000 0.40800  0.52870  0.26900  Biso   1.000  H
  H56      1.0000 0.59200  0.52870  0.23100  Biso   1.000  H
  H57      1.0000 0.06020  0.06450  0.70300  Biso   1.000  H
  H58      1.0000 0.93980  0.06450  0.79700  Biso   1.000  H
  H59      1.0000 0.56020  0.56450  0.70300  Biso   1.000  H
  H60      1.0000 0.43980  0.56450  0.79700  Biso   1.000  H
  H61      1.0000 0.93980  0.93550  0.29700  Biso   1.000  H
  H62      1.0000 0.06020  0.93550  0.20300  Biso   1.000  H
  H63      1.0000 0.43980  0.43550  0.29700  Biso   1.000  H
  H64      1.0000 0.56020  0.43550  0.20300  Biso   1.000  H
  O41      1.0000 0.25155  0.15681  0.98692  Biso   1.000  O
  O42      1.0000 0.74845  0.15681  0.51308  Biso   1.000  O
  O43      1.0000 0.75155  0.65681  0.98692  Biso   1.000  O
  O44      1.0000 0.24845  0.65681  0.51308  Biso   1.000  O
  O45      1.0000 0.74845  0.84319  0.01308  Biso   1.000  O
  O46      1.0000 0.25155  0.84319  0.48692  Biso   1.000  O
  O47      1.0000 0.24845  0.34319  0.01308  Biso   1.000  O
  O48      1.0000 0.75155  0.34319  0.48692  Biso   1.000  O
  H65      1.0000 0.28000  0.10960  0.01500  Biso   1.000  H
  H66      1.0000 0.72000  0.10960  0.48500  Biso   1.000  H
  H67      1.0000 0.78000  0.60960  0.01500  Biso   1.000  H
  H68      1.0000 0.22000  0.60960  0.48500  Biso   1.000  H
  H69      1.0000 0.72000  0.89040  0.98500  Biso   1.000  H
  H70      1.0000 0.28000  0.89040  0.51500  Biso   1.000  H
  H71      1.0000 0.22000  0.39040  0.98500  Biso   1.000  H
  H72      1.0000 0.78000  0.39040  0.51500  Biso   1.000  H
  O49      1.0000 0.38560  0.29745  0.15765  Biso   1.000  O
  O50      1.0000 0.61440  0.29745  0.34235  Biso   1.000  O
  O51      1.0000 0.88560  0.79745  0.15765  Biso   1.000  O
  O52      1.0000 0.11440  0.79745  0.34235  Biso   1.000  O
  O53      1.0000 0.61440  0.70255  0.84235  Biso   1.000  O
  O54      1.0000 0.38560  0.70255  0.65765  Biso   1.000  O
  O55      1.0000 0.11440  0.20255  0.84235  Biso   1.000  O
  O56      1.0000 0.88560  0.20255  0.65765  Biso   1.000  O
  O57      1.0000 0.32794  0.22960  0.21178  Biso   1.000  O
  O58      1.0000 0.67206  0.22960  0.28822  Biso   1.000  O
  O59      1.0000 0.82794  0.72960  0.21178  Biso   1.000  O
  O60      1.0000 0.17206  0.72960  0.28822  Biso   1.000  O
  O61      1.0000 0.67206  0.77040  0.78822  Biso   1.000  O
  O62      1.0000 0.32794  0.77040  0.71178  Biso   1.000  O
  O63      1.0000 0.17206  0.27040  0.78822  Biso   1.000  O
  O64      1.0000 0.82794  0.27040  0.71178  Biso   1.000  O
  O65      1.0000 0.32370  0.81400  0.39916  Biso   1.000  O
  O66      1.0000 0.67630  0.81400  0.10084  Biso   1.000  O
  O67      1.0000 0.82370  0.31400  0.39916  Biso   1.000  O
  O68      1.0000 0.17630  0.31400  0.10084  Biso   1.000  O
  O69      1.0000 0.67630  0.18600  0.60084  Biso   1.000  O
  O70      1.0000 0.32370  0.18600  0.89916  Biso   1.000  O
  O71      1.0000 0.17630  0.68600  0.60084  Biso   1.000  O
  O72      1.0000 0.82370  0.68600  0.89916  Biso   1.000  O
  O73      1.0000 0.41330  0.86820  0.54920  Biso   1.000  O
  O74      1.0000 0.58670  0.86820  0.95080  Biso   1.000  O
  O75      1.0000 0.91330  0.36820  0.54920  Biso   1.000  O
  O76      1.0000 0.08670  0.36820  0.95080  Biso   1.000  O
  O77      1.0000 0.58670  0.13180  0.45080  Biso   1.000  O
  O78      1.0000 0.41330  0.13180  0.04920  Biso   1.000  O
  O79      1.0000 0.08670  0.63180  0.45080  Biso   1.000  O
  O80      1.0000 0.91330  0.63180  0.04920  Biso   1.000  O
  N9       1.0000 0.41901  0.07965  0.30838  Biso   1.000  N
  N10      1.0000 0.58099  0.07965  0.19162  Biso   1.000  N
  N11      1.0000 0.91901  0.57965  0.30838  Biso   1.000  N
  N12      1.0000 0.08099  0.57965  0.19162  Biso   1.000  N
  N13      1.0000 0.58099  0.92035  0.69162  Biso   1.000  N
  N14      1.0000 0.41901  0.92035  0.80838  Biso   1.000  N
  N15      1.0000 0.08099  0.42035  0.69162  Biso   1.000  N
  N16      1.0000 0.91901  0.42035  0.80838  Biso   1.000  N
  C65      1.0000 0.39053  0.99140  0.26450  Biso   1.000  C
  C66      1.0000 0.60947  0.99140  0.23550  Biso   1.000  C
  C67      1.0000 0.89053  0.49140  0.26450  Biso   1.000  C
  C68      1.0000 0.10947  0.49140  0.23550  Biso   1.000  C
  C69      1.0000 0.60947  0.00860  0.73550  Biso   1.000  C
  C70      1.0000 0.39053  0.00860  0.76450  Biso   1.000  C
  C71      1.0000 0.10947  0.50860  0.73550  Biso   1.000  C
  C72      1.0000 0.89053  0.50860  0.76450  Biso   1.000  C
  H73      1.0000 0.38170  0.97590  0.20260  Biso   1.000  H
  H74      1.0000 0.61830  0.97590  0.29740  Biso   1.000  H
  H75      1.0000 0.88170  0.47590  0.20260  Biso   1.000  H
  H76      1.0000 0.11830  0.47590  0.29740  Biso   1.000  H
  H77      1.0000 0.61830  0.02410  0.79740  Biso   1.000  H
  H78      1.0000 0.38170  0.02410  0.70260  Biso   1.000  H
  H79      1.0000 0.11830  0.52410  0.79740  Biso   1.000  H
  H80      1.0000 0.88170  0.52410  0.70260  Biso   1.000  H
  C73      1.0000 0.37449  0.92420  0.31110  Biso   1.000  C
  C74      1.0000 0.62551  0.92420  0.18890  Biso   1.000  C
  C75      1.0000 0.87449  0.42420  0.31110  Biso   1.000  C
  C76      1.0000 0.12551  0.42420  0.18890  Biso   1.000  C
  C77      1.0000 0.62551  0.07580  0.68890  Biso   1.000  C
  C78      1.0000 0.37449  0.07580  0.81110  Biso   1.000  C
  C79      1.0000 0.12551  0.57580  0.68890  Biso   1.000  C
  C80      1.0000 0.87449  0.57580  0.81110  Biso   1.000  C
  H81      1.0000 0.35420  0.86340  0.28040  Biso   1.000  H
  H82      1.0000 0.64580  0.86340  0.21960  Biso   1.000  H
  H83      1.0000 0.85420  0.36340  0.28040  Biso   1.000  H
  H84      1.0000 0.14580  0.36340  0.21960  Biso   1.000  H
  H85      1.0000 0.64580  0.13660  0.71960  Biso   1.000  H
  H86      1.0000 0.35420  0.13660  0.78040  Biso   1.000  H
  H87      1.0000 0.14580  0.63660  0.71960  Biso   1.000  H
  H88      1.0000 0.85420  0.63660  0.78040  Biso   1.000  H
  C81      1.0000 0.38860  0.94700  0.40350  Biso   1.000  C
  C82      1.0000 0.61140  0.94700  0.09650  Biso   1.000  C
  C83      1.0000 0.88860  0.44700  0.40350  Biso   1.000  C
  C84      1.0000 0.11140  0.44700  0.09650  Biso   1.000  C
  C85      1.0000 0.61140  0.05300  0.59650  Biso   1.000  C
  C86      1.0000 0.38860  0.05300  0.90350  Biso   1.000  C
  C87      1.0000 0.11140  0.55300  0.59650  Biso   1.000  C
  C88      1.0000 0.88860  0.55300  0.90350  Biso   1.000  C
  C89      1.0000 0.41852  0.03790  0.44720  Biso   1.000  C
  C90      1.0000 0.58148  0.03790  0.05280  Biso   1.000  C
  C91      1.0000 0.91852  0.53790  0.44720  Biso   1.000  C
  C92      1.0000 0.08148  0.53790  0.05280  Biso   1.000  C
  C93      1.0000 0.58148  0.96210  0.55280  Biso   1.000  C
  C94      1.0000 0.41852  0.96210  0.94720  Biso   1.000  C
  C95      1.0000 0.08148  0.46210  0.55280  Biso   1.000  C
  C96      1.0000 0.91852  0.46210  0.94720  Biso   1.000  C
  H89      1.0000 0.42880  0.05430  0.50990  Biso   1.000  H
  H90      1.0000 0.57120  0.05430  0.99010  Biso   1.000  H
  H91      1.0000 0.92880  0.55430  0.50990  Biso   1.000  H
  H92      1.0000 0.07120  0.55430  0.99010  Biso   1.000  H
  H93      1.0000 0.57120  0.94570  0.49010  Biso   1.000  H
  H94      1.0000 0.42880  0.94570  0.00990  Biso   1.000  H
  H95      1.0000 0.07120  0.44570  0.49010  Biso   1.000  H
  H96      1.0000 0.92880  0.44570  0.00990  Biso   1.000  H
  C97      1.0000 0.43303  0.10390  0.39810  Biso   1.000  C
  C98      1.0000 0.56697  0.10390  0.10190  Biso   1.000  C
  C99      1.0000 0.93303  0.60390  0.39810  Biso   1.000  C
  C100     1.0000 0.06697  0.60390  0.10190  Biso   1.000  C
  C101     1.0000 0.56697  0.89610  0.60190  Biso   1.000  C
  C102     1.0000 0.43303  0.89610  0.89810  Biso   1.000  C
  C103     1.0000 0.06697  0.39610  0.60190  Biso   1.000  C
  C104     1.0000 0.93303  0.39610  0.89810  Biso   1.000  C
  H97      1.0000 0.45260  0.16550  0.42700  Biso   1.000  H
  H98      1.0000 0.54740  0.16550  0.07300  Biso   1.000  H
  H99      1.0000 0.95260  0.66550  0.42700  Biso   1.000  H
  H100     1.0000 0.04740  0.66550  0.07300  Biso   1.000  H
  H101     1.0000 0.54740  0.83450  0.57300  Biso   1.000  H
  H102     1.0000 0.45260  0.83450  0.92700  Biso   1.000  H
  H103     1.0000 0.04740  0.33450  0.57300  Biso   1.000  H
  H104     1.0000 0.95260  0.33450  0.92700  Biso   1.000  H
  C105     1.0000 0.43214  0.15256  0.25500  Biso   1.000  C
  C106     1.0000 0.56786  0.15256  0.24500  Biso   1.000  C
  C107     1.0000 0.93214  0.65256  0.25500  Biso   1.000  C
  C108     1.0000 0.06786  0.65256  0.24500  Biso   1.000  C
  C109     1.0000 0.56786  0.84744  0.74500  Biso   1.000  C
  C110     1.0000 0.43214  0.84744  0.75500  Biso   1.000  C
  C111     1.0000 0.06786  0.34744  0.74500  Biso   1.000  C
  C112     1.0000 0.93214  0.34744  0.75500  Biso   1.000  C
  H105     1.0000 0.47650  0.18400  0.30210  Biso   1.000  H
  H106     1.0000 0.52350  0.18400  0.19790  Biso   1.000  H
  H107     1.0000 0.97650  0.68400  0.30210  Biso   1.000  H
  H108     1.0000 0.02350  0.68400  0.19790  Biso   1.000  H
  H109     1.0000 0.52350  0.81600  0.69790  Biso   1.000  H
  H110     1.0000 0.47650  0.81600  0.80210  Biso   1.000  H
  H111     1.0000 0.02350  0.31600  0.69790  Biso   1.000  H
  H112     1.0000 0.97650  0.31600  0.80210  Biso   1.000  H
  H113     1.0000 0.43390  0.11850  0.20420  Biso   1.000  H
  H114     1.0000 0.56610  0.11850  0.29580  Biso   1.000  H
  H115     1.0000 0.93390  0.61850  0.20420  Biso   1.000  H
  H116     1.0000 0.06610  0.61850  0.29580  Biso   1.000  H
  H117     1.0000 0.56610  0.88150  0.79580  Biso   1.000  H
  H118     1.0000 0.43390  0.88150  0.70420  Biso   1.000  H
  H119     1.0000 0.06610  0.38150  0.79580  Biso   1.000  H
  H120     1.0000 0.93390  0.38150  0.70420  Biso   1.000  H
  C113     1.0000 0.37638  0.23223  0.20485  Biso   1.000  C
  C114     1.0000 0.62362  0.23223  0.29515  Biso   1.000  C
  C115     1.0000 0.87638  0.73223  0.20485  Biso   1.000  C
  C116     1.0000 0.12362  0.73223  0.29515  Biso   1.000  C
  C117     1.0000 0.62362  0.76777  0.79515  Biso   1.000  C
  C118     1.0000 0.37638  0.76777  0.70485  Biso   1.000  C
  C119     1.0000 0.12362  0.26777  0.79515  Biso   1.000  C
  C120     1.0000 0.87638  0.26777  0.70485  Biso   1.000  C
  C121     1.0000 0.37223  0.87350  0.45660  Biso   1.000  C
  C122     1.0000 0.62777  0.87350  0.04340  Biso   1.000  C
  C123     1.0000 0.87223  0.37350  0.45660  Biso   1.000  C
  C124     1.0000 0.12777  0.37350  0.04340  Biso   1.000  C
  C125     1.0000 0.62777  0.12650  0.54340  Biso   1.000  C
  C126     1.0000 0.37223  0.12650  0.95660  Biso   1.000  C
  C127     1.0000 0.12777  0.62650  0.54340  Biso   1.000  C
  C128     1.0000 0.87223  0.62650  0.95660  Biso   1.000  C
  O81      1.0000 0.00000  0.37450  0.25000  Biso   1.000  O
  O82      1.0000 0.50000  0.87450  0.25000  Biso   1.000  O
  O83      1.0000 0.00000  0.62550  0.75000  Biso   1.000  O
  O84      1.0000 0.50000  0.12550  0.75000  Biso   1.000  O
  H121     1.0000 0.00700  0.33750  0.21400  Biso   1.000  H
  H122     1.0000 0.99300  0.33750  0.28600  Biso   1.000  H
  H123     1.0000 0.50700  0.83750  0.21400  Biso   1.000  H
  H124     1.0000 0.49300  0.83750  0.28600  Biso   1.000  H
  H125     1.0000 0.99300  0.66250  0.78600  Biso   1.000  H
  H126     1.0000 0.00700  0.66250  0.71400  Biso   1.000  H
  H127     1.0000 0.49300  0.16250  0.78600  Biso   1.000  H
  H128     1.0000 0.50700  0.16250  0.71400  Biso   1.000  H
  O85      1.0000 0.99025  0.84830  0.11444  Biso   1.000  O
  O86      1.0000 0.00975  0.84830  0.38556  Biso   1.000  O
  O87      1.0000 0.49025  0.34830  0.11444  Biso   1.000  O
  O88      1.0000 0.50975  0.34830  0.38556  Biso   1.000  O
  O89      1.0000 0.00975  0.15170  0.88556  Biso   1.000  O
  O90      1.0000 0.99025  0.15170  0.61444  Biso   1.000  O
  O91      1.0000 0.50975  0.65170  0.88556  Biso   1.000  O
  O92      1.0000 0.49025  0.65170  0.61444  Biso   1.000  O
  H129     1.0000 0.97870  0.85000  0.05490  Biso   1.000  H
  H130     1.0000 0.02130  0.85000  0.44510  Biso   1.000  H
  H131     1.0000 0.47870  0.35000  0.05490  Biso   1.000  H
  H132     1.0000 0.52130  0.35000  0.44510  Biso   1.000  H
  H133     1.0000 0.02130  0.15000  0.94510  Biso   1.000  H
  H134     1.0000 0.97870  0.15000  0.55490  Biso   1.000  H
  H135     1.0000 0.52130  0.65000  0.94510  Biso   1.000  H
  H136     1.0000 0.47870  0.65000  0.55490  Biso   1.000  H
  H137     1.0000 0.95570  0.85500  0.11600  Biso   1.000  H
  H138     1.0000 0.04430  0.85500  0.38400  Biso   1.000  H
  H139     1.0000 0.45570  0.35500  0.11600  Biso   1.000  H
  H140     1.0000 0.54430  0.35500  0.38400  Biso   1.000  H
  H141     1.0000 0.04430  0.14500  0.88400  Biso   1.000  H
  H142     1.0000 0.95570  0.14500  0.61600  Biso   1.000  H
  H143     1.0000 0.54430  0.64500  0.88400  Biso   1.000  H
  H144     1.0000 0.45570  0.64500  0.61600  Biso   1.000  H
  O93      1.0000 0.97048  0.87950  0.93040  Biso   1.000  O
  O94      1.0000 0.02952  0.87950  0.56960  Biso   1.000  O
  O95      1.0000 0.47048  0.37950  0.93040  Biso   1.000  O
  O96      1.0000 0.52952  0.37950  0.56960  Biso   1.000  O
  O97      1.0000 0.02952  0.12050  0.06960  Biso   1.000  O
  O98      1.0000 0.97048  0.12050  0.43040  Biso   1.000  O
  O99      1.0000 0.52952  0.62050  0.06960  Biso   1.000  O
  O100     1.0000 0.47048  0.62050  0.43040  Biso   1.000  O
  O101     1.0000 0.98997  0.72906  0.90450  Biso   1.000  O
  O102     1.0000 0.01003  0.72906  0.59550  Biso   1.000  O
  O103     1.0000 0.48997  0.22906  0.90450  Biso   1.000  O
  O104     1.0000 0.51003  0.22906  0.59550  Biso   1.000  O
  O105     1.0000 0.01003  0.27094  0.09550  Biso   1.000  O
  O106     1.0000 0.98997  0.27094  0.40450  Biso   1.000  O
  O107     1.0000 0.51003  0.77094  0.09550  Biso   1.000  O
  O108     1.0000 0.48997  0.77094  0.40450  Biso   1.000  O
  O109     1.0000 0.92492  0.82650  0.78060  Biso   1.000  O
  O110     1.0000 0.07508  0.82650  0.71940  Biso   1.000  O
  O111     1.0000 0.42492  0.32650  0.78060  Biso   1.000  O
  O112     1.0000 0.57508  0.32650  0.71940  Biso   1.000  O
  O113     1.0000 0.07508  0.17350  0.21940  Biso   1.000  O
  O114     1.0000 0.92492  0.17350  0.28060  Biso   1.000  O
  O115     1.0000 0.57508  0.67350  0.21940  Biso   1.000  O
  O116     1.0000 0.42492  0.67350  0.28060  Biso   1.000  O
  N17      1.0000 0.96172  0.81090  0.87210  Biso   1.000  N
  N18      1.0000 0.03828  0.81090  0.62790  Biso   1.000  N
  N19      1.0000 0.46172  0.31090  0.87210  Biso   1.000  N
  N20      1.0000 0.53828  0.31090  0.62790  Biso   1.000  N
  N21      1.0000 0.03828  0.18910  0.12790  Biso   1.000  N
  N22      1.0000 0.96172  0.18910  0.37210  Biso   1.000  N
  N23      1.0000 0.53828  0.68910  0.12790  Biso   1.000  N
  N24      1.0000 0.46172  0.68910  0.37210  Biso   1.000  N
  O117     1.0000 0.18970  0.52810  0.96460  Biso   1.000  O
  O118     1.0000 0.81030  0.52810  0.53540  Biso   1.000  O
  O119     1.0000 0.68970  0.02810  0.96460  Biso   1.000  O
  O120     1.0000 0.31030  0.02810  0.53540  Biso   1.000  O
  O121     1.0000 0.81030  0.47190  0.03540  Biso   1.000  O
  O122     1.0000 0.18970  0.47190  0.46460  Biso   1.000  O
  O123     1.0000 0.31030  0.97190  0.03540  Biso   1.000  O
  O124     1.0000 0.68970  0.97190  0.46460  Biso   1.000  O
  O125     1.0000 0.10800  0.60500  0.45540  Biso   1.000  O
  O126     1.0000 0.89200  0.60500  0.04460  Biso   1.000  O
  O127     1.0000 0.60800  0.10500  0.45540  Biso   1.000  O
  O128     1.0000 0.39200  0.10500  0.04460  Biso   1.000  O
  O129     1.0000 0.89200  0.39500  0.54460  Biso   1.000  O
  O130     1.0000 0.10800  0.39500  0.95540  Biso   1.000  O
  O131     1.0000 0.39200  0.89500  0.54460  Biso   1.000  O
  O132     1.0000 0.60800  0.89500  0.95540  Biso   1.000  O
