data_image0
_cell_length_a       9.9313
_cell_length_b       7.2786
_cell_length_c       17.256
_cell_angle_alpha    90
_cell_angle_beta     102.955
_cell_angle_gamma    90

_symmetry_space_group_name_H-M    "P 1"
_symmetry_int_tables_number       1

loop_
  _symmetry_equiv_pos_as_xyz
  'x, y, z'

loop_
  _atom_site_label
  _atom_site_occupancy
  _atom_site_fract_x
  _atom_site_fract_y
  _atom_site_fract_z
  _atom_site_thermal_displace_type
  _atom_site_B_iso_or_equiv
  _atom_site_type_symbol
  Cu1      1.0000 0.50000  0.21120  0.25000  Biso   1.000  Cu
  Cu2      1.0000 0.00000  0.71120  0.25000  Biso   1.000  Cu
  Cu3      1.0000 0.50000  0.78880  0.75000  Biso   1.000  Cu
  Cu4      1.0000 0.00000  0.28880  0.75000  Biso   1.000  Cu
  O1       1.0000 0.40550  0.04990  0.31370  Biso   1.000  O
  O2       1.0000 0.59450  0.04990  0.18630  Biso   1.000  O
  O3       1.0000 0.90550  0.54990  0.31370  Biso   1.000  O
  O4       1.0000 0.09450  0.54990  0.18630  Biso   1.000  O
  O5       1.0000 0.59450  0.95010  0.68630  Biso   1.000  O
  O6       1.0000 0.40550  0.95010  0.81370  Biso   1.000  O
  O7       1.0000 0.09450  0.45010  0.68630  Biso   1.000  O
  O8       1.0000 0.90550  0.45010  0.81370  Biso   1.000  O
  O9       1.0000 0.36280  0.06090  0.43540  Biso   1.000  O
  O10      1.0000 0.63720  0.06090  0.06460  Biso   1.000  O
  O11      1.0000 0.86280  0.56090  0.43540  Biso   1.000  O
  O12      1.0000 0.13720  0.56090  0.06460  Biso   1.000  O
  O13      1.0000 0.63720  0.93910  0.56460  Biso   1.000  O
  O14      1.0000 0.36280  0.93910  0.93540  Biso   1.000  O
  O15      1.0000 0.13720  0.43910  0.56460  Biso   1.000  O
  O16      1.0000 0.86280  0.43910  0.93540  Biso   1.000  O
  O17      1.0000 0.18510  0.73160  0.36240  Biso   1.000  O
  O18      1.0000 0.81490  0.73160  0.13760  Biso   1.000  O
  O19      1.0000 0.68510  0.23160  0.36240  Biso   1.000  O
  O20      1.0000 0.31490  0.23160  0.13760  Biso   1.000  O
  O21      1.0000 0.81490  0.26840  0.63760  Biso   1.000  O
  O22      1.0000 0.18510  0.26840  0.86240  Biso   1.000  O
  O23      1.0000 0.31490  0.76840  0.63760  Biso   1.000  O
  O24      1.0000 0.68510  0.76840  0.86240  Biso   1.000  O
  O25      1.0000 0.38290  0.71060  0.45230  Biso   1.000  O
  O26      1.0000 0.61710  0.71060  0.04770  Biso   1.000  O
  O27      1.0000 0.88290  0.21060  0.45230  Biso   1.000  O
  O28      1.0000 0.11710  0.21060  0.04770  Biso   1.000  O
  O29      1.0000 0.61710  0.28940  0.54770  Biso   1.000  O
  O30      1.0000 0.38290  0.28940  0.95230  Biso   1.000  O
  O31      1.0000 0.11710  0.78940  0.54770  Biso   1.000  O
  O32      1.0000 0.88290  0.78940  0.95230  Biso   1.000  O
  N1       1.0000 0.40170  0.41140  0.29530  Biso   1.000  N
  N2       1.0000 0.59830  0.41140  0.20470  Biso   1.000  N
  N3       1.0000 0.90170  0.91140  0.29530  Biso   1.000  N
  N4       1.0000 0.09830  0.91140  0.20470  Biso   1.000  N
  N5       1.0000 0.59830  0.58860  0.70470  Biso   1.000  N
  N6       1.0000 0.40170  0.58860  0.79530  Biso   1.000  N
  N7       1.0000 0.09830  0.08860  0.70470  Biso   1.000  N
  N8       1.0000 0.90170  0.08860  0.79530  Biso   1.000  N
  C1       1.0000 0.38460  0.13520  0.37480  Biso   1.000  C
  C2       1.0000 0.61540  0.13520  0.12520  Biso   1.000  C
  C3       1.0000 0.88460  0.63520  0.37480  Biso   1.000  C
  C4       1.0000 0.11540  0.63520  0.12520  Biso   1.000  C
  C5       1.0000 0.61540  0.86480  0.62520  Biso   1.000  C
  C6       1.0000 0.38460  0.86480  0.87480  Biso   1.000  C
  C7       1.0000 0.11540  0.36480  0.62520  Biso   1.000  C
  C8       1.0000 0.88460  0.36480  0.87480  Biso   1.000  C
  C9       1.0000 0.39100  0.34860  0.37490  Biso   1.000  C
  C10      1.0000 0.60900  0.34860  0.12510  Biso   1.000  C
  C11      1.0000 0.89100  0.84860  0.37490  Biso   1.000  C
  C12      1.0000 0.10900  0.84860  0.12510  Biso   1.000  C
  C13      1.0000 0.60900  0.65140  0.62510  Biso   1.000  C
  C14      1.0000 0.39100  0.65140  0.87490  Biso   1.000  C
  C15      1.0000 0.10900  0.15140  0.62510  Biso   1.000  C
  C16      1.0000 0.89100  0.15140  0.87490  Biso   1.000  C
  C17      1.0000 0.26990  0.43140  0.40430  Biso   1.000  C
  C18      1.0000 0.73010  0.43140  0.09570  Biso   1.000  C
  C19      1.0000 0.76990  0.93140  0.40430  Biso   1.000  C
  C20      1.0000 0.23010  0.93140  0.09570  Biso   1.000  C
  C21      1.0000 0.73010  0.56860  0.59570  Biso   1.000  C
  C22      1.0000 0.26990  0.56860  0.90430  Biso   1.000  C
  C23      1.0000 0.23010  0.06860  0.59570  Biso   1.000  C
  C24      1.0000 0.76990  0.06860  0.90430  Biso   1.000  C
  C25      1.0000 0.27440  0.63820  0.40460  Biso   1.000  C
  C26      1.0000 0.72560  0.63820  0.09540  Biso   1.000  C
  C27      1.0000 0.77440  0.13820  0.40460  Biso   1.000  C
  C28      1.0000 0.22560  0.13820  0.09540  Biso   1.000  C
  C29      1.0000 0.72560  0.36180  0.59540  Biso   1.000  C
  C30      1.0000 0.27440  0.36180  0.90460  Biso   1.000  C
  C31      1.0000 0.22560  0.86180  0.59540  Biso   1.000  C
  C32      1.0000 0.77440  0.86180  0.90460  Biso   1.000  C
  C33      1.0000 0.47850  0.58360  0.28950  Biso   1.000  C
  C34      1.0000 0.52150  0.58360  0.21050  Biso   1.000  C
  C35      1.0000 0.97850  0.08360  0.28950  Biso   1.000  C
  C36      1.0000 0.02150  0.08360  0.21050  Biso   1.000  C
  C37      1.0000 0.52150  0.41640  0.71050  Biso   1.000  C
  C38      1.0000 0.47850  0.41640  0.78950  Biso   1.000  C
  C39      1.0000 0.02150  0.91640  0.71050  Biso   1.000  C
  C40      1.0000 0.97850  0.91640  0.78950  Biso   1.000  C
  H1       1.0000 0.31400  0.41800  0.26190  Biso   1.000  H
  H2       1.0000 0.68600  0.41800  0.23810  Biso   1.000  H
  H3       1.0000 0.81400  0.91800  0.26190  Biso   1.000  H
  H4       1.0000 0.18600  0.91800  0.23810  Biso   1.000  H
  H5       1.0000 0.68600  0.58200  0.73810  Biso   1.000  H
  H6       1.0000 0.31400  0.58200  0.76190  Biso   1.000  H
  H7       1.0000 0.18600  0.08200  0.73810  Biso   1.000  H
  H8       1.0000 0.81400  0.08200  0.76190  Biso   1.000  H
  H9       1.0000 0.38200  0.82400  0.44650  Biso   1.000  H
  H10      1.0000 0.61800  0.82400  0.05350  Biso   1.000  H
  H11      1.0000 0.88200  0.32400  0.44650  Biso   1.000  H
  H12      1.0000 0.11800  0.32400  0.05350  Biso   1.000  H
  H13      1.0000 0.61800  0.17600  0.55350  Biso   1.000  H
  H14      1.0000 0.38200  0.17600  0.94650  Biso   1.000  H
  H15      1.0000 0.11800  0.67600  0.55350  Biso   1.000  H
  H16      1.0000 0.88200  0.67600  0.94650  Biso   1.000  H
