data_image0
_cell_length_a       18.286
_cell_length_b       14.545
_cell_length_c       20.079
_cell_angle_alpha    90
_cell_angle_beta     99.173
_cell_angle_gamma    90

_symmetry_space_group_name_H-M    "P 1"
_symmetry_int_tables_number       1

loop_
  _symmetry_equiv_pos_as_xyz
  'x, y, z'

loop_
  _atom_site_label
  _atom_site_occupancy
  _atom_site_fract_x
  _atom_site_fract_y
  _atom_site_fract_z
  _atom_site_thermal_displace_type
  _atom_site_B_iso_or_equiv
  _atom_site_type_symbol
  Cu1      1.0000 0.46220  0.65010  0.12010  Biso   1.000  Cu
  Cu2      1.0000 0.03780  0.65010  0.87990  Biso   1.000  Cu
  Cu3      1.0000 0.96220  0.15010  0.62010  Biso   1.000  Cu
  Cu4      1.0000 0.53780  0.15010  0.37990  Biso   1.000  Cu
  Cu5      1.0000 0.53780  0.34990  0.87990  Biso   1.000  Cu
  Cu6      1.0000 0.96220  0.34990  0.12010  Biso   1.000  Cu
  Cu7      1.0000 0.03780  0.84990  0.37990  Biso   1.000  Cu
  Cu8      1.0000 0.46220  0.84990  0.62010  Biso   1.000  Cu
  Cu9      1.0000 0.75000  0.75000  0.25000  Biso   1.000  Cu
  Cu10     1.0000 0.75000  0.75000  0.75000  Biso   1.000  Cu
  Cu11     1.0000 0.25000  0.25000  0.75000  Biso   1.000  Cu
  Cu12     1.0000 0.25000  0.25000  0.25000  Biso   1.000  Cu
  Cu13     1.0000 0.50000  0.00000  0.00000  Biso   1.000  Cu
  Cu14     1.0000 0.00000  0.00000  0.00000  Biso   1.000  Cu
  Cu15     1.0000 0.00000  0.50000  0.50000  Biso   1.000  Cu
  Cu16     1.0000 0.50000  0.50000  0.50000  Biso   1.000  Cu
  O1       1.0000 0.51270  0.72420  0.19180  Biso   1.000  O
  O2       1.0000 0.98730  0.72420  0.80820  Biso   1.000  O
  O3       1.0000 0.01270  0.22420  0.69180  Biso   1.000  O
  O4       1.0000 0.48730  0.22420  0.30820  Biso   1.000  O
  O5       1.0000 0.48730  0.27580  0.80820  Biso   1.000  O
  O6       1.0000 0.01270  0.27580  0.19180  Biso   1.000  O
  O7       1.0000 0.98730  0.77580  0.30820  Biso   1.000  O
  O8       1.0000 0.51270  0.77580  0.69180  Biso   1.000  O
  O9       1.0000 0.62900  0.71970  0.16780  Biso   1.000  O
  O10      1.0000 0.87100  0.71970  0.83220  Biso   1.000  O
  O11      1.0000 0.12900  0.21970  0.66780  Biso   1.000  O
  O12      1.0000 0.37100  0.21970  0.33220  Biso   1.000  O
  O13      1.0000 0.37100  0.28030  0.83220  Biso   1.000  O
  O14      1.0000 0.12900  0.28030  0.16780  Biso   1.000  O
  O15      1.0000 0.87100  0.78030  0.33220  Biso   1.000  O
  O16      1.0000 0.62900  0.78030  0.66780  Biso   1.000  O
  O17      1.0000 0.77030  0.98120  0.15100  Biso   1.000  O
  O18      1.0000 0.72970  0.98120  0.84900  Biso   1.000  O
  O19      1.0000 0.27030  0.48120  0.65100  Biso   1.000  O
  O20      1.0000 0.22970  0.48120  0.34900  Biso   1.000  O
  O21      1.0000 0.22970  0.01880  0.84900  Biso   1.000  O
  O22      1.0000 0.27030  0.01880  0.15100  Biso   1.000  O
  O23      1.0000 0.72970  0.51880  0.34900  Biso   1.000  O
  O24      1.0000 0.77030  0.51880  0.65100  Biso   1.000  O
  O25      1.0000 0.79070  0.84090  0.19450  Biso   1.000  O
  O26      1.0000 0.70930  0.84090  0.80550  Biso   1.000  O
  O27      1.0000 0.29070  0.34090  0.69450  Biso   1.000  O
  O28      1.0000 0.20930  0.34090  0.30550  Biso   1.000  O
  O29      1.0000 0.20930  0.15910  0.80550  Biso   1.000  O
  O30      1.0000 0.29070  0.15910  0.19450  Biso   1.000  O
  O31      1.0000 0.70930  0.65910  0.30550  Biso   1.000  O
  O32      1.0000 0.79070  0.65910  0.69450  Biso   1.000  O
  O33      1.0000 0.40740  0.75660  0.07780  Biso   1.000  O
  O34      1.0000 0.09260  0.75660  0.92220  Biso   1.000  O
  O35      1.0000 0.90740  0.25660  0.57780  Biso   1.000  O
  O36      1.0000 0.59260  0.25660  0.42220  Biso   1.000  O
  O37      1.0000 0.59260  0.24340  0.92220  Biso   1.000  O
  O38      1.0000 0.90740  0.24340  0.07780  Biso   1.000  O
  O39      1.0000 0.09260  0.74340  0.42220  Biso   1.000  O
  O40      1.0000 0.40740  0.74340  0.57780  Biso   1.000  O
  O41      1.0000 0.50130  0.85190  0.06630  Biso   1.000  O
  O42      1.0000 0.99870  0.85190  0.93370  Biso   1.000  O
  O43      1.0000 0.00130  0.35190  0.56630  Biso   1.000  O
  O44      1.0000 0.49870  0.35190  0.43370  Biso   1.000  O
  O45      1.0000 0.49870  0.14810  0.93370  Biso   1.000  O
  O46      1.0000 0.00130  0.14810  0.06630  Biso   1.000  O
  O47      1.0000 0.99870  0.64810  0.43370  Biso   1.000  O
  O48      1.0000 0.50130  0.64810  0.56630  Biso   1.000  O
  O49      1.0000 0.54330  0.11090  0.18080  Biso   1.000  O
  O50      1.0000 0.95670  0.11090  0.81920  Biso   1.000  O
  O51      1.0000 0.04330  0.61090  0.68080  Biso   1.000  O
  O52      1.0000 0.45670  0.61090  0.31920  Biso   1.000  O
  O53      1.0000 0.45670  0.88910  0.81920  Biso   1.000  O
  O54      1.0000 0.04330  0.88910  0.18080  Biso   1.000  O
  O55      1.0000 0.95670  0.38910  0.31920  Biso   1.000  O
  O56      1.0000 0.54330  0.38910  0.68080  Biso   1.000  O
  O57      1.0000 0.55170  0.06710  0.07660  Biso   1.000  O
  O58      1.0000 0.94830  0.06710  0.92340  Biso   1.000  O
  O59      1.0000 0.05170  0.56710  0.57660  Biso   1.000  O
  O60      1.0000 0.44830  0.56710  0.42340  Biso   1.000  O
  O61      1.0000 0.44830  0.93290  0.92340  Biso   1.000  O
  O62      1.0000 0.05170  0.93290  0.07660  Biso   1.000  O
  O63      1.0000 0.94830  0.43290  0.42340  Biso   1.000  O
  O64      1.0000 0.55170  0.43290  0.57660  Biso   1.000  O
  N1       1.0000 0.51960  0.53150  0.14830  Biso   1.000  N
  N2       1.0000 0.98040  0.53150  0.85170  Biso   1.000  N
  N3       1.0000 0.01960  0.03150  0.64830  Biso   1.000  N
  N4       1.0000 0.48040  0.03150  0.35170  Biso   1.000  N
  N5       1.0000 0.48040  0.46850  0.85170  Biso   1.000  N
  N6       1.0000 0.01960  0.46850  0.14830  Biso   1.000  N
  N7       1.0000 0.98040  0.96850  0.35170  Biso   1.000  N
  N8       1.0000 0.51960  0.96850  0.64830  Biso   1.000  N
  N9       1.0000 0.41180  0.56750  0.04590  Biso   1.000  N
  N10      1.0000 0.08820  0.56750  0.95410  Biso   1.000  N
  N11      1.0000 0.91180  0.06750  0.54590  Biso   1.000  N
  N12      1.0000 0.58820  0.06750  0.45410  Biso   1.000  N
  N13      1.0000 0.58820  0.43250  0.95410  Biso   1.000  N
  N14      1.0000 0.91180  0.43250  0.04590  Biso   1.000  N
  N15      1.0000 0.08820  0.93250  0.45410  Biso   1.000  N
  N16      1.0000 0.41180  0.93250  0.54590  Biso   1.000  N
  N17      1.0000 0.67590  0.84910  0.26290  Biso   1.000  N
  N18      1.0000 0.82410  0.84910  0.73710  Biso   1.000  N
  N19      1.0000 0.17590  0.34910  0.76290  Biso   1.000  N
  N20      1.0000 0.32410  0.34910  0.23710  Biso   1.000  N
  N21      1.0000 0.32410  0.15090  0.73710  Biso   1.000  N
  N22      1.0000 0.17590  0.15090  0.26290  Biso   1.000  N
  N23      1.0000 0.82410  0.65090  0.23710  Biso   1.000  N
  N24      1.0000 0.67590  0.65090  0.76290  Biso   1.000  N
  N25      1.0000 0.41190  0.00190  0.04990  Biso   1.000  N
  N26      1.0000 0.08810  0.00190  0.95010  Biso   1.000  N
  N27      1.0000 0.91190  0.50190  0.54990  Biso   1.000  N
  N28      1.0000 0.58810  0.50190  0.45010  Biso   1.000  N
  N29      1.0000 0.58810  0.99810  0.95010  Biso   1.000  N
  N30      1.0000 0.91190  0.99810  0.04990  Biso   1.000  N
  N31      1.0000 0.08810  0.49810  0.45010  Biso   1.000  N
  N32      1.0000 0.41190  0.49810  0.54990  Biso   1.000  N
  C1       1.0000 0.57210  0.51570  0.20060  Biso   1.000  C
  C2       1.0000 0.92790  0.51570  0.79940  Biso   1.000  C
  C3       1.0000 0.07210  0.01570  0.70060  Biso   1.000  C
  C4       1.0000 0.42790  0.01570  0.29940  Biso   1.000  C
  C5       1.0000 0.42790  0.48430  0.79940  Biso   1.000  C
  C6       1.0000 0.07210  0.48430  0.20060  Biso   1.000  C
  C7       1.0000 0.92790  0.98430  0.29940  Biso   1.000  C
  C8       1.0000 0.57210  0.98430  0.70060  Biso   1.000  C
  C9       1.0000 0.60410  0.42830  0.21390  Biso   1.000  C
  C10      1.0000 0.89590  0.42830  0.78610  Biso   1.000  C
  C11      1.0000 0.10410  0.92830  0.71390  Biso   1.000  C
  C12      1.0000 0.39590  0.92830  0.28610  Biso   1.000  C
  C13      1.0000 0.39590  0.57170  0.78610  Biso   1.000  C
  C14      1.0000 0.10410  0.57170  0.21390  Biso   1.000  C
  C15      1.0000 0.89590  0.07170  0.28610  Biso   1.000  C
  C16      1.0000 0.60410  0.07170  0.71390  Biso   1.000  C
  C17      1.0000 0.58070  0.35640  0.17160  Biso   1.000  C
  C18      1.0000 0.91930  0.35640  0.82840  Biso   1.000  C
  C19      1.0000 0.08070  0.85640  0.67160  Biso   1.000  C
  C20      1.0000 0.41930  0.85640  0.32840  Biso   1.000  C
  C21      1.0000 0.41930  0.64360  0.82840  Biso   1.000  C
  C22      1.0000 0.08070  0.64360  0.17160  Biso   1.000  C
  C23      1.0000 0.91930  0.14360  0.32840  Biso   1.000  C
  C24      1.0000 0.58070  0.14360  0.67160  Biso   1.000  C
  C25      1.0000 0.52540  0.37090  0.11560  Biso   1.000  C
  C26      1.0000 0.97460  0.37090  0.88440  Biso   1.000  C
  C27      1.0000 0.02540  0.87090  0.61560  Biso   1.000  C
  C28      1.0000 0.47460  0.87090  0.38440  Biso   1.000  C
  C29      1.0000 0.47460  0.62910  0.88440  Biso   1.000  C
  C30      1.0000 0.02540  0.62910  0.11560  Biso   1.000  C
  C31      1.0000 0.97460  0.12910  0.38440  Biso   1.000  C
  C32      1.0000 0.52540  0.12910  0.61560  Biso   1.000  C
  C33      1.0000 0.49570  0.46030  0.10660  Biso   1.000  C
  C34      1.0000 0.00430  0.46030  0.89340  Biso   1.000  C
  C35      1.0000 0.99570  0.96030  0.60660  Biso   1.000  C
  C36      1.0000 0.50430  0.96030  0.39340  Biso   1.000  C
  C37      1.0000 0.50430  0.53970  0.89340  Biso   1.000  C
  C38      1.0000 0.99570  0.53970  0.10660  Biso   1.000  C
  C39      1.0000 0.00430  0.03970  0.39340  Biso   1.000  C
  C40      1.0000 0.49570  0.03970  0.60660  Biso   1.000  C
  C41      1.0000 0.35750  0.58740  0.99620  Biso   1.000  C
  C42      1.0000 0.14250  0.58740  0.00380  Biso   1.000  C
  C43      1.0000 0.85750  0.08740  0.49620  Biso   1.000  C
  C44      1.0000 0.64250  0.08740  0.50380  Biso   1.000  C
  C45      1.0000 0.64250  0.41260  0.00380  Biso   1.000  C
  C46      1.0000 0.85750  0.41260  0.99620  Biso   1.000  C
  C47      1.0000 0.14250  0.91260  0.50380  Biso   1.000  C
  C48      1.0000 0.35750  0.91260  0.49620  Biso   1.000  C
  C49      1.0000 0.32690  0.52160  0.94830  Biso   1.000  C
  C50      1.0000 0.17310  0.52160  0.05170  Biso   1.000  C
  C51      1.0000 0.82690  0.02160  0.44830  Biso   1.000  C
  C52      1.0000 0.67310  0.02160  0.55170  Biso   1.000  C
  C53      1.0000 0.67310  0.47840  0.05170  Biso   1.000  C
  C54      1.0000 0.82690  0.47840  0.94830  Biso   1.000  C
  C55      1.0000 0.17310  0.97840  0.55170  Biso   1.000  C
  C56      1.0000 0.32690  0.97840  0.44830  Biso   1.000  C
  C57      1.0000 0.35440  0.43400  0.95250  Biso   1.000  C
  C58      1.0000 0.14560  0.43400  0.04750  Biso   1.000  C
  C59      1.0000 0.85440  0.93400  0.45250  Biso   1.000  C
  C60      1.0000 0.64560  0.93400  0.54750  Biso   1.000  C
  C61      1.0000 0.64560  0.56600  0.04750  Biso   1.000  C
  C62      1.0000 0.85440  0.56600  0.95250  Biso   1.000  C
  C63      1.0000 0.14560  0.06600  0.54750  Biso   1.000  C
  C64      1.0000 0.35440  0.06600  0.45250  Biso   1.000  C
  C65      1.0000 0.41110  0.41020  0.00530  Biso   1.000  C
  C66      1.0000 0.08890  0.41020  0.99470  Biso   1.000  C
  C67      1.0000 0.91110  0.91020  0.50530  Biso   1.000  C
  C68      1.0000 0.58890  0.91020  0.49470  Biso   1.000  C
  C69      1.0000 0.58890  0.58980  0.99470  Biso   1.000  C
  C70      1.0000 0.91110  0.58980  0.00530  Biso   1.000  C
  C71      1.0000 0.08890  0.08980  0.49470  Biso   1.000  C
  C72      1.0000 0.41110  0.08980  0.50530  Biso   1.000  C
  C73      1.0000 0.43820  0.47970  0.05160  Biso   1.000  C
  C74      1.0000 0.06180  0.47970  0.94840  Biso   1.000  C
  C75      1.0000 0.93820  0.97970  0.55160  Biso   1.000  C
  C76      1.0000 0.56180  0.97970  0.44840  Biso   1.000  C
  C77      1.0000 0.56180  0.52030  0.94840  Biso   1.000  C
  C78      1.0000 0.93820  0.52030  0.05160  Biso   1.000  C
  C79      1.0000 0.06180  0.02030  0.44840  Biso   1.000  C
  C80      1.0000 0.43820  0.02030  0.55160  Biso   1.000  C
  C81      1.0000 0.49860  0.30180  0.06630  Biso   1.000  C
  C82      1.0000 0.00140  0.30180  0.93370  Biso   1.000  C
  C83      1.0000 0.99860  0.80180  0.56630  Biso   1.000  C
  C84      1.0000 0.50140  0.80180  0.43370  Biso   1.000  C
  C85      1.0000 0.50140  0.69820  0.93370  Biso   1.000  C
  C86      1.0000 0.99860  0.69820  0.06630  Biso   1.000  C
  C87      1.0000 0.00140  0.19820  0.43370  Biso   1.000  C
  C88      1.0000 0.49860  0.19820  0.56630  Biso   1.000  C
  C89      1.0000 0.44430  0.32040  0.01390  Biso   1.000  C
  C90      1.0000 0.05570  0.32040  0.98610  Biso   1.000  C
  C91      1.0000 0.94430  0.82040  0.51390  Biso   1.000  C
  C92      1.0000 0.55570  0.82040  0.48610  Biso   1.000  C
  C93      1.0000 0.55570  0.67960  0.98610  Biso   1.000  C
  C94      1.0000 0.94430  0.67960  0.01390  Biso   1.000  C
  C95      1.0000 0.05570  0.17960  0.48610  Biso   1.000  C
  C96      1.0000 0.44430  0.17960  0.51390  Biso   1.000  C
  C97      1.0000 0.58040  0.74660  0.20010  Biso   1.000  C
  C98      1.0000 0.91960  0.74660  0.79990  Biso   1.000  C
  C99      1.0000 0.08040  0.24660  0.70010  Biso   1.000  C
  C100     1.0000 0.41960  0.24660  0.29990  Biso   1.000  C
  C101     1.0000 0.41960  0.25340  0.79990  Biso   1.000  C
  C102     1.0000 0.08040  0.25340  0.20010  Biso   1.000  C
  C103     1.0000 0.91960  0.75340  0.29990  Biso   1.000  C
  C104     1.0000 0.58040  0.75340  0.70010  Biso   1.000  C
  C105     1.0000 0.60080  0.81110  0.26010  Biso   1.000  C
  C106     1.0000 0.89920  0.81110  0.73990  Biso   1.000  C
  C107     1.0000 0.10080  0.31110  0.76010  Biso   1.000  C
  C108     1.0000 0.39920  0.31110  0.23990  Biso   1.000  C
  C109     1.0000 0.39920  0.18890  0.73990  Biso   1.000  C
  C110     1.0000 0.10080  0.18890  0.26010  Biso   1.000  C
  C111     1.0000 0.89920  0.68890  0.23990  Biso   1.000  C
  C112     1.0000 0.60080  0.68890  0.76010  Biso   1.000  C
  C113     1.0000 0.67770  0.91640  0.20750  Biso   1.000  C
  C114     1.0000 0.82230  0.91640  0.79250  Biso   1.000  C
  C115     1.0000 0.17770  0.41640  0.70750  Biso   1.000  C
  C116     1.0000 0.32230  0.41640  0.29250  Biso   1.000  C
  C117     1.0000 0.32230  0.08360  0.79250  Biso   1.000  C
  C118     1.0000 0.17770  0.08360  0.20750  Biso   1.000  C
  C119     1.0000 0.82230  0.58360  0.29250  Biso   1.000  C
  C120     1.0000 0.67770  0.58360  0.70750  Biso   1.000  C
  C121     1.0000 0.75210  0.91430  0.18250  Biso   1.000  C
  C122     1.0000 0.74790  0.91430  0.81750  Biso   1.000  C
  C123     1.0000 0.25210  0.41430  0.68250  Biso   1.000  C
  C124     1.0000 0.24790  0.41430  0.31750  Biso   1.000  C
  C125     1.0000 0.24790  0.08570  0.81750  Biso   1.000  C
  C126     1.0000 0.25210  0.08570  0.18250  Biso   1.000  C
  C127     1.0000 0.74790  0.58570  0.31750  Biso   1.000  C
  C128     1.0000 0.75210  0.58570  0.68250  Biso   1.000  C
  C129     1.0000 0.70070  0.89430  0.32870  Biso   1.000  C
  C130     1.0000 0.79930  0.89430  0.67130  Biso   1.000  C
  C131     1.0000 0.20070  0.39430  0.82870  Biso   1.000  C
  C132     1.0000 0.29930  0.39430  0.17130  Biso   1.000  C
  C133     1.0000 0.29930  0.10570  0.67130  Biso   1.000  C
  C134     1.0000 0.20070  0.10570  0.32870  Biso   1.000  C
  C135     1.0000 0.79930  0.60570  0.17130  Biso   1.000  C
  C136     1.0000 0.70070  0.60570  0.82870  Biso   1.000  C
  C137     1.0000 0.43520  0.83450  0.06580  Biso   1.000  C
  C138     1.0000 0.06480  0.83450  0.93420  Biso   1.000  C
  C139     1.0000 0.93520  0.33450  0.56580  Biso   1.000  C
  C140     1.0000 0.56480  0.33450  0.43420  Biso   1.000  C
  C141     1.0000 0.56480  0.16550  0.93420  Biso   1.000  C
  C142     1.0000 0.93520  0.16550  0.06580  Biso   1.000  C
  C143     1.0000 0.06480  0.66550  0.43420  Biso   1.000  C
  C144     1.0000 0.43520  0.66550  0.56580  Biso   1.000  C
  C145     1.0000 0.37700  0.91000  0.04800  Biso   1.000  C
  C146     1.0000 0.12300  0.91000  0.95200  Biso   1.000  C
  C147     1.0000 0.87700  0.41000  0.54800  Biso   1.000  C
  C148     1.0000 0.62300  0.41000  0.45200  Biso   1.000  C
  C149     1.0000 0.62300  0.09000  0.95200  Biso   1.000  C
  C150     1.0000 0.87700  0.09000  0.04800  Biso   1.000  C
  C151     1.0000 0.12300  0.59000  0.45200  Biso   1.000  C
  C152     1.0000 0.37700  0.59000  0.54800  Biso   1.000  C
  C153     1.0000 0.44130  0.02930  0.12030  Biso   1.000  C
  C154     1.0000 0.05870  0.02930  0.87970  Biso   1.000  C
  C155     1.0000 0.94130  0.52930  0.62030  Biso   1.000  C
  C156     1.0000 0.55870  0.52930  0.37970  Biso   1.000  C
  C157     1.0000 0.55870  0.97070  0.87970  Biso   1.000  C
  C158     1.0000 0.94130  0.97070  0.12030  Biso   1.000  C
  C159     1.0000 0.05870  0.47070  0.37970  Biso   1.000  C
  C160     1.0000 0.44130  0.47070  0.62030  Biso   1.000  C
  C161     1.0000 0.51750  0.07280  0.12730  Biso   1.000  C
  C162     1.0000 0.98250  0.07280  0.87270  Biso   1.000  C
  C163     1.0000 0.01750  0.57280  0.62730  Biso   1.000  C
  C164     1.0000 0.48250  0.57280  0.37270  Biso   1.000  C
  C165     1.0000 0.48250  0.92720  0.87270  Biso   1.000  C
  C166     1.0000 0.01750  0.92720  0.12730  Biso   1.000  C
  C167     1.0000 0.98250  0.42720  0.37270  Biso   1.000  C
  C168     1.0000 0.51750  0.42720  0.62730  Biso   1.000  C
  C169     1.0000 0.35790  0.07070  0.01710  Biso   1.000  C
  C170     1.0000 0.14210  0.07070  0.98290  Biso   1.000  C
  C171     1.0000 0.85790  0.57070  0.51710  Biso   1.000  C
  C172     1.0000 0.64210  0.57070  0.48290  Biso   1.000  C
  C173     1.0000 0.64210  0.92930  0.98290  Biso   1.000  C
  C174     1.0000 0.85790  0.92930  0.01710  Biso   1.000  C
  C175     1.0000 0.14210  0.42930  0.48290  Biso   1.000  C
  C176     1.0000 0.35790  0.42930  0.51710  Biso   1.000  C
  O65      1.0000 0.37950  0.60720  0.18750  Biso   1.000  O
  O66      1.0000 0.12050  0.60720  0.81250  Biso   1.000  O
  O67      1.0000 0.87950  0.10720  0.68750  Biso   1.000  O
  O68      1.0000 0.62050  0.10720  0.31250  Biso   1.000  O
  O69      1.0000 0.62050  0.39280  0.81250  Biso   1.000  O
  O70      1.0000 0.87950  0.39280  0.18750  Biso   1.000  O
  O71      1.0000 0.12050  0.89280  0.31250  Biso   1.000  O
  O72      1.0000 0.37950  0.89280  0.68750  Biso   1.000  O
  O73      1.0000 0.69750  0.14400  0.15420  Biso   1.000  O
  O74      1.0000 0.80250  0.14400  0.84580  Biso   1.000  O
  O75      1.0000 0.19750  0.64400  0.65420  Biso   1.000  O
  O76      1.0000 0.30250  0.64400  0.34580  Biso   1.000  O
  O77      1.0000 0.30250  0.85600  0.84580  Biso   1.000  O
  O78      1.0000 0.19750  0.85600  0.15420  Biso   1.000  O
  O79      1.0000 0.80250  0.35600  0.34580  Biso   1.000  O
  O80      1.0000 0.69750  0.35600  0.65420  Biso   1.000  O
  O81      1.0000 0.23470  0.70880  0.89040  Biso   1.000  O
  O82      1.0000 0.26530  0.70880  0.10960  Biso   1.000  O
  O83      1.0000 0.73470  0.20880  0.39040  Biso   1.000  O
  O84      1.0000 0.76530  0.20880  0.60960  Biso   1.000  O
  O85      1.0000 0.76530  0.29120  0.10960  Biso   1.000  O
  O86      1.0000 0.73470  0.29120  0.89040  Biso   1.000  O
  O87      1.0000 0.26530  0.79120  0.60960  Biso   1.000  O
  O88      1.0000 0.23470  0.79120  0.39040  Biso   1.000  O
