data_image0
_cell_length_a       24.598
_cell_length_b       9.318
_cell_length_c       19.513
_cell_angle_alpha    90
_cell_angle_beta     95.166
_cell_angle_gamma    90

_symmetry_space_group_name_H-M    "P 1"
_symmetry_int_tables_number       1

loop_
  _symmetry_equiv_pos_as_xyz
  'x, y, z'

loop_
  _atom_site_label
  _atom_site_occupancy
  _atom_site_fract_x
  _atom_site_fract_y
  _atom_site_fract_z
  _atom_site_thermal_displace_type
  _atom_site_B_iso_or_equiv
  _atom_site_type_symbol
  Cu1      1.0000 0.61740  0.19460  0.41860  Biso   1.000  Cu
  Cu2      1.0000 0.38260  0.19460  0.58140  Biso   1.000  Cu
  Cu3      1.0000 0.11740  0.69460  0.41860  Biso   1.000  Cu
  Cu4      1.0000 0.88260  0.69460  0.58140  Biso   1.000  Cu
  Cu5      1.0000 0.64340  0.22390  0.07510  Biso   1.000  Cu
  Cu6      1.0000 0.35660  0.22390  0.92490  Biso   1.000  Cu
  Cu7      1.0000 0.14340  0.72390  0.07510  Biso   1.000  Cu
  Cu8      1.0000 0.85660  0.72390  0.92490  Biso   1.000  Cu
  N1       1.0000 0.69000  0.18000  0.49400  Biso   1.000  N
  N2       1.0000 0.31000  0.18000  0.50600  Biso   1.000  N
  N3       1.0000 0.19000  0.68000  0.49400  Biso   1.000  N
  N4       1.0000 0.81000  0.68000  0.50600  Biso   1.000  N
  N5       1.0000 0.69200  0.23100  0.99700  Biso   1.000  N
  N6       1.0000 0.30800  0.23100  0.00300  Biso   1.000  N
  N7       1.0000 0.19200  0.73100  0.99700  Biso   1.000  N
  N8       1.0000 0.80800  0.73100  0.00300  Biso   1.000  N
  N9       1.0000 0.66700  0.41900  0.11200  Biso   1.000  N
  N10      1.0000 0.33300  0.41900  0.88800  Biso   1.000  N
  N11      1.0000 0.16700  0.91900  0.11200  Biso   1.000  N
  N12      1.0000 0.83300  0.91900  0.88800  Biso   1.000  N
  H1       1.0000 0.70370  0.42590  0.11180  Biso   1.000  H
  H2       1.0000 0.29630  0.42590  0.88820  Biso   1.000  H
  H3       1.0000 0.20370  0.92590  0.11180  Biso   1.000  H
  H4       1.0000 0.79630  0.92590  0.88820  Biso   1.000  H
  H5       1.0000 0.65220  0.48680  0.08330  Biso   1.000  H
  H6       1.0000 0.34780  0.48680  0.91670  Biso   1.000  H
  H7       1.0000 0.15220  0.98680  0.08330  Biso   1.000  H
  H8       1.0000 0.84780  0.98680  0.91670  Biso   1.000  H
  N13      1.0000 0.62800  0.19600  0.17230  Biso   1.000  N
  N14      1.0000 0.37200  0.19600  0.82770  Biso   1.000  N
  N15      1.0000 0.12800  0.69600  0.17230  Biso   1.000  N
  N16      1.0000 0.87200  0.69600  0.82770  Biso   1.000  N
  H9       1.0000 0.59190  0.19570  0.17550  Biso   1.000  H
  H10      1.0000 0.40810  0.19570  0.82450  Biso   1.000  H
  H11      1.0000 0.09190  0.69570  0.17550  Biso   1.000  H
  H12      1.0000 0.90810  0.69570  0.82450  Biso   1.000  H
  H13      1.0000 0.64160  0.11070  0.18770  Biso   1.000  H
  H14      1.0000 0.35840  0.11070  0.81230  Biso   1.000  H
  H15      1.0000 0.14160  0.61070  0.18770  Biso   1.000  H
  H16      1.0000 0.85840  0.61070  0.81230  Biso   1.000  H
  N17      1.0000 0.62980  0.17400  0.31800  Biso   1.000  N
  N18      1.0000 0.37020  0.17400  0.68200  Biso   1.000  N
  N19      1.0000 0.12980  0.67400  0.31800  Biso   1.000  N
  N20      1.0000 0.87020  0.67400  0.68200  Biso   1.000  N
  H17      1.0000 0.66190  0.12990  0.31370  Biso   1.000  H
  H18      1.0000 0.33810  0.12990  0.68630  Biso   1.000  H
  H19      1.0000 0.16190  0.62990  0.31370  Biso   1.000  H
  H20      1.0000 0.83810  0.62990  0.68630  Biso   1.000  H
  H21      1.0000 0.60310  0.12040  0.29620  Biso   1.000  H
  H22      1.0000 0.39690  0.12040  0.70380  Biso   1.000  H
  H23      1.0000 0.10310  0.62040  0.29620  Biso   1.000  H
  H24      1.0000 0.89690  0.62040  0.70380  Biso   1.000  H
  N21      1.0000 0.63100  0.40900  0.39200  Biso   1.000  N
  N22      1.0000 0.36900  0.40900  0.60800  Biso   1.000  N
  N23      1.0000 0.13100  0.90900  0.39200  Biso   1.000  N
  N24      1.0000 0.86900  0.90900  0.60800  Biso   1.000  N
  H25      1.0000 0.59850  0.45200  0.38070  Biso   1.000  H
  H26      1.0000 0.40150  0.45200  0.61930  Biso   1.000  H
  H27      1.0000 0.09850  0.95200  0.38070  Biso   1.000  H
  H28      1.0000 0.90150  0.95200  0.61930  Biso   1.000  H
  H29      1.0000 0.64760  0.45510  0.42820  Biso   1.000  H
  H30      1.0000 0.35240  0.45510  0.57180  Biso   1.000  H
  H31      1.0000 0.14760  0.95510  0.42820  Biso   1.000  H
  H32      1.0000 0.85240  0.95510  0.57180  Biso   1.000  H
  C1       1.0000 0.65400  0.44400  0.17400  Biso   1.000  C
  C2       1.0000 0.34600  0.44400  0.82600  Biso   1.000  C
  C3       1.0000 0.15400  0.94400  0.17400  Biso   1.000  C
  C4       1.0000 0.84600  0.94400  0.82600  Biso   1.000  C
  H33      1.0000 0.61750  0.48630  0.17180  Biso   1.000  H
  H34      1.0000 0.38250  0.48630  0.82820  Biso   1.000  H
  H35      1.0000 0.11750  0.98630  0.17180  Biso   1.000  H
  H36      1.0000 0.88250  0.98630  0.82820  Biso   1.000  H
  H37      1.0000 0.67900  0.51280  0.19690  Biso   1.000  H
  H38      1.0000 0.32100  0.51280  0.80310  Biso   1.000  H
  H39      1.0000 0.17900  0.01280  0.19690  Biso   1.000  H
  H40      1.0000 0.82100  0.01280  0.80310  Biso   1.000  H
  C5       1.0000 0.65400  0.31400  0.21500  Biso   1.000  C
  C6       1.0000 0.34600  0.31400  0.78500  Biso   1.000  C
  C7       1.0000 0.15400  0.81400  0.21500  Biso   1.000  C
  C8       1.0000 0.84600  0.81400  0.78500  Biso   1.000  C
  H41      1.0000 0.69270  0.28780  0.22430  Biso   1.000  H
  H42      1.0000 0.30730  0.28780  0.77570  Biso   1.000  H
  H43      1.0000 0.19270  0.78780  0.22430  Biso   1.000  H
  H44      1.0000 0.80730  0.78780  0.77570  Biso   1.000  H
  C9       1.0000 0.66200  0.42000  0.33800  Biso   1.000  C
  C10      1.0000 0.33800  0.42000  0.66200  Biso   1.000  C
  C11      1.0000 0.16200  0.92000  0.33800  Biso   1.000  C
  C12      1.0000 0.83800  0.92000  0.66200  Biso   1.000  C
  H45      1.0000 0.69890  0.38790  0.35020  Biso   1.000  H
  H46      1.0000 0.30110  0.38790  0.64980  Biso   1.000  H
  H47      1.0000 0.19890  0.88790  0.35020  Biso   1.000  H
  H48      1.0000 0.80110  0.88790  0.64980  Biso   1.000  H
  H49      1.0000 0.66200  0.51660  0.32020  Biso   1.000  H
  H50      1.0000 0.33800  0.51660  0.67980  Biso   1.000  H
  H51      1.0000 0.16200  0.01660  0.32020  Biso   1.000  H
  H52      1.0000 0.83800  0.01660  0.67980  Biso   1.000  H
  C13      1.0000 0.63000  0.31500  0.28600  Biso   1.000  C
  C14      1.0000 0.37000  0.31500  0.71400  Biso   1.000  C
  C15      1.0000 0.13000  0.81500  0.28600  Biso   1.000  C
  C16      1.0000 0.87000  0.81500  0.71400  Biso   1.000  C
  H53      1.0000 0.59240  0.34810  0.27920  Biso   1.000  H
  H54      1.0000 0.40760  0.34810  0.72080  Biso   1.000  H
  H55      1.0000 0.09240  0.84810  0.27920  Biso   1.000  H
  H56      1.0000 0.90760  0.84810  0.72080  Biso   1.000  H
  N25      1.0000 0.55900  0.23400  0.47400  Biso   1.000  N
  N26      1.0000 0.44100  0.23400  0.52600  Biso   1.000  N
  N27      1.0000 0.05900  0.73400  0.47400  Biso   1.000  N
  N28      1.0000 0.94100  0.73400  0.52600  Biso   1.000  N
  H57      1.0000 0.57300  0.25120  0.51790  Biso   1.000  H
  H58      1.0000 0.42700  0.25120  0.48210  Biso   1.000  H
  H59      1.0000 0.07300  0.75120  0.51790  Biso   1.000  H
  H60      1.0000 0.92700  0.75120  0.48210  Biso   1.000  H
  H61      1.0000 0.54130  0.31370  0.45870  Biso   1.000  H
  H62      1.0000 0.45870  0.31370  0.54130  Biso   1.000  H
  H63      1.0000 0.04130  0.81370  0.45870  Biso   1.000  H
  H64      1.0000 0.95870  0.81370  0.54130  Biso   1.000  H
  N29      1.0000 0.59700  0.98800  0.42800  Biso   1.000  N
  N30      1.0000 0.40300  0.98800  0.57200  Biso   1.000  N
  N31      1.0000 0.09700  0.48800  0.42800  Biso   1.000  N
  N32      1.0000 0.90300  0.48800  0.57200  Biso   1.000  N
  H65      1.0000 0.58440  0.95380  0.38650  Biso   1.000  H
  H66      1.0000 0.41560  0.95380  0.61350  Biso   1.000  H
  H67      1.0000 0.08440  0.45380  0.38650  Biso   1.000  H
  H68      1.0000 0.91560  0.45380  0.61350  Biso   1.000  H
  H69      1.0000 0.62700  0.93740  0.44270  Biso   1.000  H
  H70      1.0000 0.37300  0.93740  0.55730  Biso   1.000  H
  H71      1.0000 0.12700  0.43740  0.44270  Biso   1.000  H
  H72      1.0000 0.87300  0.43740  0.55730  Biso   1.000  H
  N33      1.0000 0.61700  0.03300  0.05100  Biso   1.000  N
  N34      1.0000 0.38300  0.03300  0.94900  Biso   1.000  N
  N35      1.0000 0.11700  0.53300  0.05100  Biso   1.000  N
  N36      1.0000 0.88300  0.53300  0.94900  Biso   1.000  N
  H73      1.0000 0.62660  0.01010  0.00890  Biso   1.000  H
  H74      1.0000 0.37340  0.01010  0.99110  Biso   1.000  H
  H75      1.0000 0.12660  0.51010  0.00890  Biso   1.000  H
  H76      1.0000 0.87340  0.51010  0.99110  Biso   1.000  H
  H77      1.0000 0.63260  0.96940  0.08100  Biso   1.000  H
  H78      1.0000 0.36740  0.96940  0.91900  Biso   1.000  H
  H79      1.0000 0.13260  0.46940  0.08100  Biso   1.000  H
  H80      1.0000 0.86740  0.46940  0.91900  Biso   1.000  H
  N37      1.0000 0.55500  0.28400  0.02700  Biso   1.000  N
  N38      1.0000 0.44500  0.28400  0.97300  Biso   1.000  N
  N39      1.0000 0.05500  0.78400  0.02700  Biso   1.000  N
  N40      1.0000 0.94500  0.78400  0.97300  Biso   1.000  N
  H81      1.0000 0.53580  0.32330  0.05920  Biso   1.000  H
  H82      1.0000 0.46420  0.32330  0.94080  Biso   1.000  H
  H83      1.0000 0.03580  0.82330  0.05920  Biso   1.000  H
  H84      1.0000 0.96420  0.82330  0.94080  Biso   1.000  H
  H85      1.0000 0.55690  0.34560  0.99210  Biso   1.000  H
  H86      1.0000 0.44310  0.34560  0.00790  Biso   1.000  H
  H87      1.0000 0.05690  0.84560  0.99210  Biso   1.000  H
  H88      1.0000 0.94310  0.84560  0.00790  Biso   1.000  H
  C17      1.0000 0.51700  0.10200  0.47300  Biso   1.000  C
  C18      1.0000 0.48300  0.10200  0.52700  Biso   1.000  C
  C19      1.0000 0.01700  0.60200  0.47300  Biso   1.000  C
  C20      1.0000 0.98300  0.60200  0.52700  Biso   1.000  C
  H89      1.0000 0.49520  0.10170  0.42910  Biso   1.000  H
  H90      1.0000 0.50480  0.10170  0.57090  Biso   1.000  H
  H91      1.0000 0.99520  0.60170  0.42910  Biso   1.000  H
  H92      1.0000 0.00480  0.60170  0.57090  Biso   1.000  H
  C21      1.0000 0.55400  0.96700  0.47800  Biso   1.000  C
  C22      1.0000 0.44600  0.96700  0.52200  Biso   1.000  C
  C23      1.0000 0.05400  0.46700  0.47800  Biso   1.000  C
  C24      1.0000 0.94600  0.46700  0.52200  Biso   1.000  C
  H93      1.0000 0.57060  0.95570  0.52480  Biso   1.000  H
  H94      1.0000 0.42940  0.95570  0.47520  Biso   1.000  H
  H95      1.0000 0.07060  0.45570  0.52480  Biso   1.000  H
  H96      1.0000 0.92940  0.45570  0.47520  Biso   1.000  H
  H97      1.0000 0.53190  0.88270  0.46620  Biso   1.000  H
  H98      1.0000 0.46810  0.88270  0.53380  Biso   1.000  H
  H99      1.0000 0.03190  0.38270  0.46620  Biso   1.000  H
  H100     1.0000 0.96810  0.38270  0.53380  Biso   1.000  H
  C25      1.0000 0.56100  0.01900  0.05000  Biso   1.000  C
  C26      1.0000 0.43900  0.01900  0.95000  Biso   1.000  C
  C27      1.0000 0.06100  0.51900  0.05000  Biso   1.000  C
  C28      1.0000 0.93900  0.51900  0.95000  Biso   1.000  C
  H101     1.0000 0.55080  0.02970  0.09640  Biso   1.000  H
  H102     1.0000 0.44920  0.02970  0.90360  Biso   1.000  H
  H103     1.0000 0.05080  0.52970  0.09640  Biso   1.000  H
  H104     1.0000 0.94920  0.52970  0.90360  Biso   1.000  H
  H105     1.0000 0.55090  0.92290  0.03420  Biso   1.000  H
  H106     1.0000 0.44910  0.92290  0.96580  Biso   1.000  H
  H107     1.0000 0.05090  0.42290  0.03420  Biso   1.000  H
  H108     1.0000 0.94910  0.42290  0.96580  Biso   1.000  H
  C29      1.0000 0.53000  0.13400  0.00100  Biso   1.000  C
  C30      1.0000 0.47000  0.13400  0.99900  Biso   1.000  C
  C31      1.0000 0.03000  0.63400  0.00100  Biso   1.000  C
  C32      1.0000 0.97000  0.63400  0.99900  Biso   1.000  C
  H109     1.0000 0.53990  0.11790  0.95430  Biso   1.000  H
  H110     1.0000 0.46010  0.11790  0.04570  Biso   1.000  H
  H111     1.0000 0.03990  0.61790  0.95430  Biso   1.000  H
  H112     1.0000 0.96010  0.61790  0.04570  Biso   1.000  H
  Re1      1.0000 0.64168  0.69100  0.68293  Biso   1.000  Re
  Re2      1.0000 0.35832  0.69100  0.31707  Biso   1.000  Re
  Re3      1.0000 0.14168  0.19100  0.68293  Biso   1.000  Re
  Re4      1.0000 0.85832  0.19100  0.31707  Biso   1.000  Re
  Re5      1.0000 0.64234  0.69730  0.82647  Biso   1.000  Re
  Re6      1.0000 0.35766  0.69730  0.17353  Biso   1.000  Re
  Re7      1.0000 0.14234  0.19730  0.82647  Biso   1.000  Re
  Re8      1.0000 0.85766  0.19730  0.17353  Biso   1.000  Re
  Re9      1.0000 0.59215  0.91180  0.74722  Biso   1.000  Re
  Re10     1.0000 0.40785  0.91180  0.25278  Biso   1.000  Re
  Re11     1.0000 0.09215  0.41180  0.74722  Biso   1.000  Re
  Re12     1.0000 0.90785  0.41180  0.25278  Biso   1.000  Re
  Re13     1.0000 0.54660  0.64030  0.74373  Biso   1.000  Re
  Re14     1.0000 0.45340  0.64030  0.25627  Biso   1.000  Re
  Re15     1.0000 0.04660  0.14030  0.74373  Biso   1.000  Re
  Re16     1.0000 0.95340  0.14030  0.25627  Biso   1.000  Re
  Te1      1.0000 0.62590  0.46010  0.75550  Biso   1.000  Te
  Te2      1.0000 0.37410  0.46010  0.24450  Biso   1.000  Te
  Te3      1.0000 0.12590  0.96010  0.75550  Biso   1.000  Te
  Te4      1.0000 0.87410  0.96010  0.24450  Biso   1.000  Te
  S1       1.0000 0.55560  0.79030  0.64640  Biso   1.000  S
  S2       1.0000 0.44440  0.79030  0.35360  Biso   1.000  S
  S3       1.0000 0.05560  0.29030  0.64640  Biso   1.000  S
  S4       1.0000 0.94440  0.29030  0.35360  Biso   1.000  S
  S5       1.0000 0.68730  0.86090  0.75460  Biso   1.000  S
  S6       1.0000 0.31270  0.86090  0.24540  Biso   1.000  S
  S7       1.0000 0.18730  0.36090  0.75460  Biso   1.000  S
  S8       1.0000 0.81270  0.36090  0.24540  Biso   1.000  S
  S9       1.0000 0.55530  0.79680  0.84160  Biso   1.000  S
  S10      1.0000 0.44470  0.79680  0.15840  Biso   1.000  S
  S11      1.0000 0.05530  0.29680  0.84160  Biso   1.000  S
  S12      1.0000 0.94470  0.29680  0.15840  Biso   1.000  S
  N41      1.0000 0.74900  0.52500  0.68200  Biso   1.000  N
  N42      1.0000 0.25100  0.52500  0.31800  Biso   1.000  N
  N43      1.0000 0.24900  0.02500  0.68200  Biso   1.000  N
  N44      1.0000 0.75100  0.02500  0.31800  Biso   1.000  N
  N45      1.0000 0.61600  0.48700  0.54800  Biso   1.000  N
  N46      1.0000 0.38400  0.48700  0.45200  Biso   1.000  N
  N47      1.0000 0.11600  0.98700  0.54800  Biso   1.000  N
  N48      1.0000 0.88400  0.98700  0.45200  Biso   1.000  N
  N49      1.0000 0.69200  0.89300  0.56300  Biso   1.000  N
  N50      1.0000 0.30800  0.89300  0.43700  Biso   1.000  N
  N51      1.0000 0.19200  0.39300  0.56300  Biso   1.000  N
  N52      1.0000 0.80800  0.39300  0.43700  Biso   1.000  N
  N53      1.0000 0.76000  0.55600  0.87300  Biso   1.000  N
  N54      1.0000 0.24000  0.55600  0.12700  Biso   1.000  N
  N55      1.0000 0.26000  0.05600  0.87300  Biso   1.000  N
  N56      1.0000 0.74000  0.05600  0.12700  Biso   1.000  N
  N57      1.0000 0.60900  0.51800  0.96700  Biso   1.000  N
  N58      1.0000 0.39100  0.51800  0.03300  Biso   1.000  N
  N59      1.0000 0.10900  0.01800  0.96700  Biso   1.000  N
  N60      1.0000 0.89100  0.01800  0.03300  Biso   1.000  N
  N61      1.0000 0.70000  0.89500  0.94100  Biso   1.000  N
  N62      1.0000 0.30000  0.89500  0.05900  Biso   1.000  N
  N63      1.0000 0.20000  0.39500  0.94100  Biso   1.000  N
  N64      1.0000 0.80000  0.39500  0.05900  Biso   1.000  N
  N65      1.0000 0.47200  0.07800  0.72900  Biso   1.000  N
  N66      1.0000 0.52800  0.07800  0.27100  Biso   1.000  N
  N67      1.0000 0.97200  0.57800  0.72900  Biso   1.000  N
  N68      1.0000 0.02800  0.57800  0.27100  Biso   1.000  N
  N69      1.0000 0.62400  0.17100  0.84900  Biso   1.000  N
  N70      1.0000 0.37600  0.17100  0.15100  Biso   1.000  N
  N71      1.0000 0.12400  0.67100  0.84900  Biso   1.000  N
  N72      1.0000 0.87600  0.67100  0.15100  Biso   1.000  N
  N73      1.0000 0.61280  0.16800  0.64500  Biso   1.000  N
  N74      1.0000 0.38720  0.16800  0.35500  Biso   1.000  N
  N75      1.0000 0.11280  0.66800  0.64500  Biso   1.000  N
  N76      1.0000 0.88720  0.66800  0.35500  Biso   1.000  N
  N77      1.0000 0.41600  0.72900  0.72200  Biso   1.000  N
  N78      1.0000 0.58400  0.72900  0.27800  Biso   1.000  N
  N79      1.0000 0.91600  0.22900  0.72200  Biso   1.000  N
  N80      1.0000 0.08400  0.22900  0.27800  Biso   1.000  N
  N81      1.0000 0.49800  0.41600  0.62800  Biso   1.000  N
  N82      1.0000 0.50200  0.41600  0.37200  Biso   1.000  N
  N83      1.0000 0.99800  0.91600  0.62800  Biso   1.000  N
  N84      1.0000 0.00200  0.91600  0.37200  Biso   1.000  N
  N85      1.0000 0.49300  0.42200  0.84700  Biso   1.000  N
  N86      1.0000 0.50700  0.42200  0.15300  Biso   1.000  N
  N87      1.0000 0.99300  0.92200  0.84700  Biso   1.000  N
  N88      1.0000 0.00700  0.92200  0.15300  Biso   1.000  N
  C33      1.0000 0.72000  0.60700  0.68100  Biso   1.000  C
  C34      1.0000 0.28000  0.60700  0.31900  Biso   1.000  C
  C35      1.0000 0.22000  0.10700  0.68100  Biso   1.000  C
  C36      1.0000 0.78000  0.10700  0.31900  Biso   1.000  C
  C37      1.0000 0.62500  0.55900  0.60000  Biso   1.000  C
  C38      1.0000 0.37500  0.55900  0.40000  Biso   1.000  C
  C39      1.0000 0.12500  0.05900  0.60000  Biso   1.000  C
  C40      1.0000 0.87500  0.05900  0.40000  Biso   1.000  C
  C41      1.0000 0.68200  0.82100  0.60200  Biso   1.000  C
  C42      1.0000 0.31800  0.82100  0.39800  Biso   1.000  C
  C43      1.0000 0.18200  0.32100  0.60200  Biso   1.000  C
  C44      1.0000 0.81800  0.32100  0.39800  Biso   1.000  C
  C45      1.0000 0.71600  0.60100  0.85400  Biso   1.000  C
  C46      1.0000 0.28400  0.60100  0.14600  Biso   1.000  C
  C47      1.0000 0.21600  0.10100  0.85400  Biso   1.000  C
  C48      1.0000 0.78400  0.10100  0.14600  Biso   1.000  C
  C49      1.0000 0.62500  0.57500  0.91100  Biso   1.000  C
  C50      1.0000 0.37500  0.57500  0.08900  Biso   1.000  C
  C51      1.0000 0.12500  0.07500  0.91100  Biso   1.000  C
  C52      1.0000 0.87500  0.07500  0.08900  Biso   1.000  C
  C53      1.0000 0.67600  0.83000  0.89800  Biso   1.000  C
  C54      1.0000 0.32400  0.83000  0.10200  Biso   1.000  C
  C55      1.0000 0.17600  0.33000  0.89800  Biso   1.000  C
  C56      1.0000 0.82400  0.33000  0.10200  Biso   1.000  C
  C57      1.0000 0.51400  0.01900  0.74400  Biso   1.000  C
  C58      1.0000 0.48600  0.01900  0.25600  Biso   1.000  C
  C59      1.0000 0.01400  0.51900  0.74400  Biso   1.000  C
  C60      1.0000 0.98600  0.51900  0.25600  Biso   1.000  C
  C61      1.0000 0.60900  0.07500  0.81000  Biso   1.000  C
  C62      1.0000 0.39100  0.07500  0.19000  Biso   1.000  C
  C63      1.0000 0.10900  0.57500  0.81000  Biso   1.000  C
  C64      1.0000 0.89100  0.57500  0.19000  Biso   1.000  C
  C65      1.0000 0.60300  0.08300  0.67400  Biso   1.000  C
  C66      1.0000 0.39700  0.08300  0.32600  Biso   1.000  C
  C67      1.0000 0.10300  0.58300  0.67400  Biso   1.000  C
  C68      1.0000 0.89700  0.58300  0.32600  Biso   1.000  C
  C69      1.0000 0.46500  0.70300  0.73200  Biso   1.000  C
  C70      1.0000 0.53500  0.70300  0.26800  Biso   1.000  C
  C71      1.0000 0.96500  0.20300  0.73200  Biso   1.000  C
  C72      1.0000 0.03500  0.20300  0.26800  Biso   1.000  C
  C73      1.0000 0.52800  0.50300  0.66500  Biso   1.000  C
  C74      1.0000 0.47200  0.50300  0.33500  Biso   1.000  C
  C75      1.0000 0.02800  0.00300  0.66500  Biso   1.000  C
  C76      1.0000 0.97200  0.00300  0.33500  Biso   1.000  C
  C77      1.0000 0.51700  0.51500  0.81300  Biso   1.000  C
  C78      1.0000 0.48300  0.51500  0.18700  Biso   1.000  C
  C79      1.0000 0.01700  0.01500  0.81300  Biso   1.000  C
  C80      1.0000 0.98300  0.01500  0.18700  Biso   1.000  C
  O1       1.0000 0.85100  0.37900  0.78900  Biso   1.000  O
  O2       1.0000 0.14900  0.37900  0.21100  Biso   1.000  O
  O3       1.0000 0.35100  0.87900  0.78900  Biso   1.000  O
  O4       1.0000 0.64900  0.87900  0.21100  Biso   1.000  O
  O5       1.0000 0.64800  0.74100  0.28000  Biso   1.000  O
  O6       1.0000 0.35200  0.74100  0.72000  Biso   1.000  O
  O7       1.0000 0.14800  0.24100  0.28000  Biso   1.000  O
  O8       1.0000 0.85200  0.24100  0.72000  Biso   1.000  O
