data_image0
_cell_length_a       10.635
_cell_length_b       10.983
_cell_length_c       13.166
_cell_angle_alpha    108.434
_cell_angle_beta     110.479
_cell_angle_gamma    92.856

_symmetry_space_group_name_H-M    "P 1"
_symmetry_int_tables_number       1

loop_
  _symmetry_equiv_pos_as_xyz
  'x, y, z'

loop_
  _atom_site_label
  _atom_site_occupancy
  _atom_site_fract_x
  _atom_site_fract_y
  _atom_site_fract_z
  _atom_site_thermal_displace_type
  _atom_site_B_iso_or_equiv
  _atom_site_type_symbol
  Re1      1.0000 0.05715  0.66262  0.60023  Biso   1.000  Re
  Re2      1.0000 0.24360  0.84021  0.78122  Biso   1.000  Re
  Re3      1.0000 0.13652  0.63517  0.80166  Biso   1.000  Re
  Re4      1.0000 0.00039  0.88971  0.68973  Biso   1.000  Re
  Re5      1.0000 0.89405  0.68450  0.70946  Biso   1.000  Re
  Re6      1.0000 0.07949  0.86222  0.89092  Biso   1.000  Re
  S1       1.0000 0.83150  0.71450  0.52530  Biso   1.000  S
  S2       1.0000 0.85420  0.90160  0.79800  Biso   1.000  S
  S3       1.0000 0.28380  0.62380  0.69550  Biso   1.000  S
  S4       1.0000 0.98070  0.66670  0.89950  Biso   1.000  S
  S5       1.0000 0.15850  0.86230  0.59070  Biso   1.000  S
  S6       1.0000 0.30230  0.80780  0.96460  Biso   1.000  S
  S7       1.0000 0.95790  0.47990  0.62720  Biso   1.000  S
  S8       1.0000 0.17660  0.04760  0.85940  Biso   1.000  S
  C1       1.0000 0.04000  0.55100  0.43800  Biso   1.000  C
  C2       1.0000 0.44200  0.93900  0.83600  Biso   1.000  C
  C3       1.0000 0.21500  0.49300  0.86900  Biso   1.000  C
  C4       1.0000 0.90900  0.03400  0.61700  Biso   1.000  C
  C5       1.0000 0.69100  0.59900  0.66200  Biso   1.000  C
  C6       1.0000 0.08000  0.98300  0.05900  Biso   1.000  C
  N1       1.0000 0.03100  0.48100  0.34700  Biso   1.000  N
  N2       1.0000 0.55600  0.99500  0.86300  Biso   1.000  N
  N3       1.0000 0.26700  0.42100  0.89900  Biso   1.000  N
  N4       1.0000 0.85500  0.10300  0.57900  Biso   1.000  N
  N5       1.0000 0.58200  0.54200  0.63200  Biso   1.000  N
  N6       1.0000 0.09300  0.02900  0.14900  Biso   1.000  N
  Cu1      1.0000 0.04380  0.25310  0.23380  Biso   1.000  Cu
  Cu2      1.0000 0.54340  0.25560  0.73300  Biso   1.000  Cu
  C7       1.0000 0.25100  0.22200  0.65650  Biso   1.000  C
  H1       1.0000 0.17440  0.15460  0.63570  Biso   1.000  H
  H2       1.0000 0.22710  0.30600  0.68510  Biso   1.000  H
  C8       1.0000 0.28300  0.21000  0.55400  Biso   1.000  C
  H3       1.0000 0.28260  0.11800  0.51440  Biso   1.000  H
  C9       1.0000 0.17300  0.25960  0.46400  Biso   1.000  C
  H4       1.0000 0.15640  0.34480  0.50520  Biso   1.000  H
  C10      1.0000 0.04000  0.15500  0.41120  Biso   1.000  C
  H5       1.0000 0.05620  0.06850  0.37760  Biso   1.000  H
  H6       1.0000 0.00280  0.15640  0.46910  Biso   1.000  H
  N7       1.0000 0.37400  0.20600  0.74900  Biso   1.000  N
  H7       1.0000 0.36540  0.12280  0.74490  Biso   1.000  H
  H8       1.0000 0.37700  0.25670  0.81910  Biso   1.000  H
  N8       1.0000 0.21220  0.26700  0.37040  Biso   1.000  N
  H9       1.0000 0.25680  0.20180  0.35050  Biso   1.000  H
  H10      1.0000 0.26830  0.34330  0.39400  Biso   1.000  H
  N9       1.0000 0.42600  0.28500  0.59900  Biso   1.000  N
  H11      1.0000 0.42330  0.37090  0.61730  Biso   1.000  H
  H12      1.0000 0.45930  0.26080  0.54330  Biso   1.000  H
  N10      1.0000 0.94500  0.20100  0.31780  Biso   1.000  N
  H13      1.0000 0.91130  0.26900  0.35130  Biso   1.000  H
  H14      1.0000 0.87470  0.13600  0.26770  Biso   1.000  H
  C11      1.0000 0.05100  0.29300  0.03100  Biso   1.000  C
  H15      1.0000 0.07810  0.35230  0.99830  Biso   1.000  H
  H16      1.0000 0.05410  0.20500  0.98670  Biso   1.000  H
  C12      1.0000 0.91200  0.30300  0.02820  Biso   1.000  C
  H17      1.0000 0.91040  0.39310  0.07130  Biso   1.000  H
  C13      1.0000 0.80400  0.26200  0.90160  Biso   1.000  C
  H18      1.0000 0.80950  0.17230  0.86100  Biso   1.000  H
  C14      1.0000 0.83100  0.34300  0.83200  Biso   1.000  C
  H19      1.0000 0.84730  0.43500  0.87960  Biso   1.000  H
  H20      1.0000 0.91530  0.32570  0.82170  Biso   1.000  H
  N11      1.0000 0.14200  0.32900  0.15400  Biso   1.000  N
  H21      1.0000 0.16490  0.41600  0.18860  Biso   1.000  H
  H22      1.0000 0.21960  0.29630  0.15890  Biso   1.000  H
  N12      1.0000 0.87800  0.21900  0.08610  Biso   1.000  N
  H23      1.0000 0.85960  0.13410  0.04020  Biso   1.000  H
  H24      1.0000 0.80460  0.23830  0.10270  Biso   1.000  H
  N13      1.0000 0.66690  0.25900  0.89900  Biso   1.000  N
  H25      1.0000 0.66280  0.33030  0.95410  Biso   1.000  H
  H26      1.0000 0.63950  0.18760  0.91030  Biso   1.000  H
  N14      1.0000 0.72600  0.32270  0.71890  Biso   1.000  N
  H27      1.0000 0.74190  0.26250  0.66220  Biso   1.000  H
  H28      1.0000 0.72160  0.39750  0.70440  Biso   1.000  H
  N15      1.0000 0.56460  0.50140  0.87080  Biso   1.000  N
  H29      1.0000 0.36920  0.54120  0.95670  Biso   1.000  H
  H30      1.0000 0.49680  0.45790  0.80720  Biso   1.000  H
  C15      1.0000 0.58370  0.64580  0.91870  Biso   1.000  C
  H31      1.0000 0.50510  0.67280  0.93480  Biso   1.000  H
  H32      1.0000 0.59520  0.68250  0.86380  Biso   1.000  H
  C16      1.0000 0.71390  0.69290  0.03270  Biso   1.000  C
  H33      1.0000 0.79510  0.68410  0.01370  Biso   1.000  H
  N16      1.0000 0.70660  0.60660  0.10480  Biso   1.000  N
  H34      1.0000 0.63770  0.54500  0.07880  Biso   1.000  H
  H35      1.0000 0.77160  0.62040  0.17070  Biso   1.000  H
  C17      1.0000 0.75930  0.91920  0.03910  Biso   1.000  C
  H36      1.0000 0.84070  0.89710  0.02570  Biso   1.000  H
  H37      1.0000 0.68540  0.90270  0.96490  Biso   1.000  H
  N17      1.0000 0.78440  0.06000  0.11660  Biso   1.000  N
  H38      1.0000 0.77580  0.07920  0.18220  Biso   1.000  H
  H39      1.0000 0.80720  0.12110  0.09520  Biso   1.000  H
  C18      1.0000 0.72130  0.83930  0.10440  Biso   1.000  C
  H40      1.0000 0.63030  0.85130  0.10350  Biso   1.000  H
  N18      1.0000 0.81500  0.88480  0.22080  Biso   1.000  N
  H41      1.0000 0.88110  0.94860  0.24480  Biso   1.000  H
  H42      1.0000 0.80610  0.84880  0.26770  Biso   1.000  H
  N19      1.0000 0.57430  0.07010  0.63910  Biso   1.000  N
  H43      1.0000 0.57460  0.07870  0.57340  Biso   1.000  H
  H44      1.0000 0.66130  0.06780  0.68010  Biso   1.000  H
  C19      1.0000 0.50220  0.93440  0.60010  Biso   1.000  C
  H45      1.0000 0.42180  0.93390  0.61880  Biso   1.000  H
  H46      1.0000 0.56170  0.88420  0.63790  Biso   1.000  H
  C20      1.0000 0.46110  0.87520  0.46650  Biso   1.000  C
  H47      1.0000 0.54220  0.85670  0.44940  Biso   1.000  H
  N20      1.0000 0.39750  0.97600  0.41260  Biso   1.000  N
  H48      1.0000 0.39050  0.05000  0.45660  Biso   1.000  H
  H49      1.0000 0.36940  0.95780  0.33890  Biso   1.000  H
  C21      1.0000 0.43390  0.64390  0.45090  Biso   1.000  C
  H50      1.0000 0.51240  0.63940  0.42930  Biso   1.000  H
  H51      1.0000 0.46530  0.66560  0.53410  Biso   1.000  H
  N21      1.0000 0.33480  0.51610  0.38730  Biso   1.000  N
  H52      1.0000 0.25290  0.51340  0.34200  Biso   1.000  H
  H53      1.0000 0.36030  0.44580  0.39640  Biso   1.000  H
  C22      1.0000 0.35420  0.74580  0.41410  Biso   1.000  C
  H54      1.0000 0.28680  0.75990  0.44980  Biso   1.000  H
  N22      1.0000 0.28450  0.69900  0.29250  Biso   1.000  N
  H55      1.0000 0.29110  0.62330  0.25120  Biso   1.000  H
  H56      1.0000 0.23540  0.74630  0.25970  Biso   1.000  H
  O1       1.0000 0.99300  0.77900  0.25800  Biso   1.000  O
  O2       1.0000 0.55300  0.14900  0.15500  Biso   1.000  O
  O3       1.0000 0.10400  0.88300  0.30200  Biso   1.000  O
  O4       1.0000 0.69600  0.42800  0.12100  Biso   1.000  O
  O5       1.0000 0.67200  0.26100  0.20700  Biso   1.000  O
  O6       1.0000 0.51400  0.15100  0.40400  Biso   1.000  O
