data_image0
_cell_length_a       12.0594
_cell_length_b       12.3286
_cell_length_c       16.6189
_cell_angle_alpha    81.743
_cell_angle_beta     85.883
_cell_angle_gamma    83.934

_symmetry_space_group_name_H-M    "P 1"
_symmetry_int_tables_number       1

loop_
  _symmetry_equiv_pos_as_xyz
  'x, y, z'

loop_
  _atom_site_label
  _atom_site_occupancy
  _atom_site_fract_x
  _atom_site_fract_y
  _atom_site_fract_z
  _atom_site_thermal_displace_type
  _atom_site_B_iso_or_equiv
  _atom_site_type_symbol
  Re1      1.0000 0.07365  0.86854  0.84266  Biso   1.000  Re
  Re2      1.0000 0.21127  0.02280  0.74967  Biso   1.000  Re
  Re3      1.0000 0.30555  0.86055  0.87359  Biso   1.000  Re
  Re4      1.0000 0.24108  0.79495  0.72632  Biso   1.000  Re
  Te1      1.0000 0.40910  0.91429  0.73043  Biso   1.000  Te
  Te2      1.0000 0.20318  0.68231  0.87143  Biso   1.000  Te
  Te3      1.0000 0.15750  0.02386  0.90680  Biso   1.000  Te
  Te4      1.0000 0.06215  0.92669  0.68391  Biso   1.000  Te
  C1       1.0000 0.95500  0.76100  0.82600  Biso   1.000  C
  C2       1.0000 0.01700  0.82900  0.96290  Biso   1.000  C
  C3       1.0000 0.92800  0.97400  0.84320  Biso   1.000  C
  C4       1.0000 0.08900  0.15300  0.73760  Biso   1.000  C
  C5       1.0000 0.30500  0.15000  0.76430  Biso   1.000  C
  C6       1.0000 0.24600  0.08500  0.62820  Biso   1.000  C
  C7       1.0000 0.41600  0.96210  0.90740  Biso   1.000  C
  C8       1.0000 0.29300  0.81500  0.99790  Biso   1.000  C
  C9       1.0000 0.44500  0.74900  0.88420  Biso   1.000  C
  C10      1.0000 0.15100  0.67100  0.68860  Biso   1.000  C
  C11      1.0000 0.28100  0.82200  0.60180  Biso   1.000  C
  C12      1.0000 0.37500  0.67000  0.71800  Biso   1.000  C
  N1       1.0000 0.89000  0.70000  0.81900  Biso   1.000  N
  N2       1.0000 0.98100  0.80100  0.02770  Biso   1.000  N
  N3       1.0000 0.84500  0.02800  0.83980  Biso   1.000  N
  N4       1.0000 0.02800  0.23000  0.73200  Biso   1.000  N
  N5       1.0000 0.35600  0.22400  0.77300  Biso   1.000  N
  N6       1.0000 0.27900  0.12400  0.56100  Biso   1.000  N
  N7       1.0000 0.48100  0.00800  0.93310  Biso   1.000  N
  N8       1.0000 0.28300  0.78800  0.06750  Biso   1.000  N
  N9       1.0000 0.52200  0.68600  0.89440  Biso   1.000  N
  N10      1.0000 0.10900  0.60600  0.66610  Biso   1.000  N
  N11      1.0000 0.30300  0.82500  0.53380  Biso   1.000  N
  N12      1.0000 0.44200  0.60100  0.71070  Biso   1.000  N
  Re5      1.0000 0.02162  0.94772  0.33849  Biso   1.000  Re
  Re6      1.0000 0.16667  0.09319  0.24504  Biso   1.000  Re
  Re7      1.0000 0.93429  0.11340  0.21378  Biso   1.000  Re
  Re8      1.0000 0.00227  0.17654  0.36075  Biso   1.000  Re
  Te5      1.0000 0.04727  0.28471  0.21499  Biso   1.000  Te
  Te6      1.0000 0.82828  0.06530  0.35668  Biso   1.000  Te
  Te7      1.0000 0.07394  0.94326  0.18202  Biso   1.000  Te
  Te8      1.0000 0.17646  0.03773  0.40428  Biso   1.000  Te
  C13      1.0000 0.13900  0.80740  0.34790  Biso   1.000  C
  C14      1.0000 0.98100  0.88300  0.45910  Biso   1.000  C
  C15      1.0000 0.91600  0.82640  0.32100  Biso   1.000  C
  C16      1.0000 0.30400  0.97300  0.24500  Biso   1.000  C
  C17      1.0000 0.29300  0.18900  0.26000  Biso   1.000  C
  C18      1.0000 0.23300  0.13300  0.12370  Biso   1.000  C
  C19      1.0000 0.81200  0.02500  0.17320  Biso   1.000  C
  C20      1.0000 0.95100  0.15900  0.08340  Biso   1.000  C
  C21      1.0000 0.79600  0.23200  0.20200  Biso   1.000  C
  C22      1.0000 0.09700  0.29500  0.39550  Biso   1.000  C
  C23      1.0000 0.87700  0.30700  0.36710  Biso   1.000  C
  C24      1.0000 0.96200  0.15200  0.48600  Biso   1.000  C
  N13      1.0000 0.20300  0.73200  0.35630  Biso   1.000  N
  N14      1.0000 0.96200  0.84300  0.52250  Biso   1.000  N
  N15      1.0000 0.86100  0.76100  0.32110  Biso   1.000  N
  N16      1.0000 0.38400  0.90740  0.24850  Biso   1.000  N
  N17      1.0000 0.36800  0.23700  0.27000  Biso   1.000  N
  N18      1.0000 0.26600  0.14800  0.05900  Biso   1.000  N
  N19      1.0000 0.74800  0.97400  0.14860  Biso   1.000  N
  N20      1.0000 0.95100  0.18200  0.01530  Biso   1.000  N
  N21      1.0000 0.71800  0.30000  0.19500  Biso   1.000  N
  N22      1.0000 0.14000  0.35800  0.42130  Biso   1.000  N
  N23      1.0000 0.80500  0.37800  0.37350  Biso   1.000  N
  N24      1.0000 0.93600  0.14200  0.55710  Biso   1.000  N
  Cu1      1.0000 0.74050  0.42720  0.75670  Biso   1.000  Cu
  Cu2      1.0000 0.62330  0.99360  0.03950  Biso   1.000  Cu
  Cu3      1.0000 0.47000  0.52130  0.26447  Biso   1.000  Cu
  Cu4      1.0000 0.14020  0.48920  0.54620  Biso   1.000  Cu
  N25      1.0000 0.91700  0.47500  0.77250  Biso   1.000  N
  H1       1.0000 0.96460  0.44950  0.73430  Biso   1.000  H
  H2       1.0000 0.93920  0.44510  0.82150  Biso   1.000  H
  H3       1.0000 0.91580  0.54760  0.76770  Biso   1.000  H
  N26      1.0000 0.28700  0.48500  0.24860  Biso   1.000  N
  H4       1.0000 0.25190  0.54170  0.21820  Biso   1.000  H
  H5       1.0000 0.25070  0.47360  0.29720  Biso   1.000  H
  H6       1.0000 0.28820  0.42470  0.22420  Biso   1.000  H
  C25      1.0000 0.62100  0.41600  0.90700  Biso   1.000  C
  H7       1.0000 0.55200  0.40470  0.88400  Biso   1.000  H
  H8       1.0000 0.60110  0.44150  0.95980  Biso   1.000  H
  C26      1.0000 0.69400  0.31100  0.91870  Biso   1.000  C
  H9       1.0000 0.75270  0.32070  0.95420  Biso   1.000  H
  C27      1.0000 0.63000  0.21430  0.96030  Biso   1.000  C
  H10      1.0000 0.57130  0.20470  0.92490  Biso   1.000  H
  C28      1.0000 0.57600  0.22500  0.04400  Biso   1.000  C
  H11      1.0000 0.63120  0.24040  0.07960  Biso   1.000  H
  H12      1.0000 0.51770  0.28580  0.04070  Biso   1.000  H
  N27      1.0000 0.67800  0.50000  0.85360  Biso   1.000  N
  H13      1.0000 0.73370  0.52150  0.87900  Biso   1.000  H
  H14      1.0000 0.63050  0.55870  0.83790  Biso   1.000  H
  N28      1.0000 0.74900  0.28950  0.83890  Biso   1.000  N
  H15      1.0000 0.71480  0.23720  0.82020  Biso   1.000  H
  H16      1.0000 0.82060  0.26410  0.84550  Biso   1.000  H
  N29      1.0000 0.70500  0.11020  0.97060  Biso   1.000  N
  H17      1.0000 0.76700  0.12060  0.99480  Biso   1.000  H
  H18      1.0000 0.72610  0.08920  0.92170  Biso   1.000  H
  N30      1.0000 0.52600  0.12000  0.08070  Biso   1.000  N
  H19      1.0000 0.45560  0.12190  0.06540  Biso   1.000  H
  H20      1.0000 0.52410  0.11310  0.13550  Biso   1.000  H
  C29      1.0000 0.55500  0.56420  0.09700  Biso   1.000  C
  H21      1.0000 0.49530  0.58070  0.05960  Biso   1.000  H
  H22      1.0000 0.62390  0.54620  0.06600  Biso   1.000  H
  C30      1.0000 0.56600  0.66700  0.14040  Biso   1.000  C
  H23      1.0000 0.63170  0.65280  0.17290  Biso   1.000  H
  C31      1.0000 0.57830  0.76740  0.07910  Biso   1.000  C
  H24      1.0000 0.52810  0.76500  0.03580  Biso   1.000  H
  C32      1.0000 0.69200  0.76400  0.04220  Biso   1.000  C
  H25      1.0000 0.70710  0.70060  0.01300  Biso   1.000  H
  H26      1.0000 0.74530  0.75660  0.08430  Biso   1.000  H
  N31      1.0000 0.53000  0.46850  0.15910  Biso   1.000  N
  H27      1.0000 0.59280  0.42290  0.16760  Biso   1.000  H
  H28      1.0000 0.47940  0.43070  0.14070  Biso   1.000  H
  N32      1.0000 0.46190  0.67170  0.19710  Biso   1.000  N
  H29      1.0000 0.39980  0.68420  0.16880  Biso   1.000  H
  H30      1.0000 0.46230  0.72500  0.22880  Biso   1.000  H
  N33      1.0000 0.54940  0.87180  0.11060  Biso   1.000  N
  H31      1.0000 0.57160  0.86610  0.16170  Biso   1.000  H
  H32      1.0000 0.47470  0.88800  0.11210  Biso   1.000  H
  N34      1.0000 0.70500  0.86700  0.98520  Biso   1.000  N
  H33      1.0000 0.67480  0.86310  0.93780  Biso   1.000  H
  H34      1.0000 0.77740  0.87710  0.97510  Biso   1.000  H
  C33      1.0000 0.36500  0.41900  0.58510  Biso   1.000  C
  H35      1.0000 0.36840  0.45090  0.63500  Biso   1.000  H
  H36      1.0000 0.42690  0.36260  0.58270  Biso   1.000  H
  C34      1.0000 0.37700  0.50700  0.51430  Biso   1.000  C
  H37      1.0000 0.43920  0.54840  0.52330  Biso   1.000  H
  C35      1.0000 0.39700  0.47090  0.43180  Biso   1.000  C
  H38      1.0000 0.33150  0.43600  0.42090  Biso   1.000  H
  C36      1.0000 0.50000  0.39100  0.41850  Biso   1.000  C
  H39      1.0000 0.56350  0.41750  0.43910  Biso   1.000  H
  H40      1.0000 0.48790  0.32000  0.44950  Biso   1.000  H
  N35      1.0000 0.25750  0.36750  0.58780  Biso   1.000  N
  H41      1.0000 0.23830  0.33840  0.63910  Biso   1.000  H
  H42      1.0000 0.26450  0.31350  0.55600  Biso   1.000  H
  N36      1.0000 0.27470  0.57720  0.51970  Biso   1.000  N
  H43      1.0000 0.26610  0.62130  0.47210  Biso   1.000  H
  H44      1.0000 0.27860  0.62020  0.55870  Biso   1.000  H
  N37      1.0000 0.40690  0.57270  0.36760  Biso   1.000  N
  H45      1.0000 0.45190  0.61800  0.38410  Biso   1.000  H
  H46      1.0000 0.33920  0.60980  0.36020  Biso   1.000  H
  N38      1.0000 0.52400  0.37790  0.33550  Biso   1.000  N
  H47      1.0000 0.48840  0.32200  0.32330  Biso   1.000  H
  H48      1.0000 0.59750  0.36210  0.32610  Biso   1.000  H
  C37      1.0000 0.91800  0.55200  0.49700  Biso   1.000  C
  H49      1.0000 0.91260  0.50760  0.45360  Biso   1.000  H
  H50      1.0000 0.85880  0.61210  0.49130  Biso   1.000  H
  C38      1.0000 0.90430  0.48310  0.57830  Biso   1.000  C
  H51      1.0000 0.89950  0.53200  0.62020  Biso   1.000  H
  C39      1.0000 0.79900  0.42200  0.58840  Biso   1.000  C
  H52      1.0000 0.79630  0.38140  0.54220  Biso   1.000  H
  C40      1.0000 0.69500  0.50200  0.59200  Biso   1.000  C
  H53      1.0000 0.69820  0.56100  0.54660  Biso   1.000  H
  H54      1.0000 0.62930  0.46470  0.58830  Biso   1.000  H
  N39      1.0000 0.02770  0.59740  0.48790  Biso   1.000  N
  H55      1.0000 0.02200  0.66120  0.50900  Biso   1.000  H
  H56      1.0000 0.04970  0.61110  0.43480  Biso   1.000  H
  N40      1.0000 0.00730  0.40900  0.58780  Biso   1.000  N
  H57      1.0000 0.00450  0.35180  0.56020  Biso   1.000  H
  H58      1.0000 0.01370  0.38230  0.64080  Biso   1.000  H
  N41      1.0000 0.79660  0.34570  0.66390  Biso   1.000  N
  H59      1.0000 0.86580  0.31300  0.67280  Biso   1.000  H
  H60      1.0000 0.75170  0.29300  0.66000  Biso   1.000  H
  N42      1.0000 0.68800  0.54700  0.66590  Biso   1.000  N
  H61      1.0000 0.61680  0.57290  0.67760  Biso   1.000  H
  H62      1.0000 0.73080  0.60320  0.66140  Biso   1.000  H
  O1       1.0000 0.29800  0.32200  0.92320  Biso   1.000  O
  O2       1.0000 0.04200  0.36500  0.92300  Biso   1.000  O
  O3       1.0000 0.61900  0.82800  0.29690  Biso   1.000  O
  O4       1.0000 0.67800  0.58300  0.33400  Biso   1.000  O
  O5       1.0000 0.34800  0.45100  0.05800  Biso   1.000  O
  O6       1.0000 0.80100  0.74800  0.64000  Biso   1.000  O
  O7       1.0000 0.50300  0.76000  0.43500  Biso   1.000  O
  O8       1.0000 0.55800  0.05900  0.32500  Biso   1.000  O
  O9       1.0000 0.50800  0.09000  0.49300  Biso   1.000  O
