data_image0
_cell_length_a       17.099
_cell_length_b       25.266
_cell_length_c       8.003
_cell_angle_alpha    90
_cell_angle_beta     90
_cell_angle_gamma    90

_symmetry_space_group_name_H-M    "P 1"
_symmetry_int_tables_number       1

loop_
  _symmetry_equiv_pos_as_xyz
  'x, y, z'

loop_
  _atom_site_label
  _atom_site_occupancy
  _atom_site_fract_x
  _atom_site_fract_y
  _atom_site_fract_z
  _atom_site_thermal_displace_type
  _atom_site_B_iso_or_equiv
  _atom_site_type_symbol
  Cu1      1.0000 0.13382  0.16314  0.32978  Biso   1.000  Cu
  Cu2      1.0000 0.36618  0.83686  0.82978  Biso   1.000  Cu
  Cu3      1.0000 0.63382  0.33686  0.67022  Biso   1.000  Cu
  Cu4      1.0000 0.86618  0.66314  0.17022  Biso   1.000  Cu
  Cu5      1.0000 0.86618  0.83686  0.67022  Biso   1.000  Cu
  Cu6      1.0000 0.63382  0.16314  0.17022  Biso   1.000  Cu
  Cu7      1.0000 0.36618  0.66314  0.32978  Biso   1.000  Cu
  Cu8      1.0000 0.13382  0.33686  0.82978  Biso   1.000  Cu
  S1       1.0000 0.02597  0.18698  0.57280  Biso   1.000  S
  S2       1.0000 0.47403  0.81302  0.07280  Biso   1.000  S
  S3       1.0000 0.52597  0.31302  0.42720  Biso   1.000  S
  S4       1.0000 0.97403  0.68698  0.92720  Biso   1.000  S
  S5       1.0000 0.97403  0.81302  0.42720  Biso   1.000  S
  S6       1.0000 0.52597  0.18698  0.92720  Biso   1.000  S
  S7       1.0000 0.47403  0.68698  0.57280  Biso   1.000  S
  S8       1.0000 0.02597  0.31302  0.07280  Biso   1.000  S
  N1       1.0000 0.22950  0.19420  0.44120  Biso   1.000  N
  N2       1.0000 0.27050  0.80580  0.94120  Biso   1.000  N
  N3       1.0000 0.72950  0.30580  0.55880  Biso   1.000  N
  N4       1.0000 0.77050  0.69420  0.05880  Biso   1.000  N
  N5       1.0000 0.77050  0.80580  0.55880  Biso   1.000  N
  N6       1.0000 0.72950  0.19420  0.05880  Biso   1.000  N
  N7       1.0000 0.27050  0.69420  0.44120  Biso   1.000  N
  N8       1.0000 0.22950  0.30580  0.94120  Biso   1.000  N
  N9       1.0000 0.17290  0.10126  0.44790  Biso   1.000  N
  N10      1.0000 0.32710  0.89874  0.94790  Biso   1.000  N
  N11      1.0000 0.67290  0.39874  0.55210  Biso   1.000  N
  N12      1.0000 0.82710  0.60126  0.05210  Biso   1.000  N
  N13      1.0000 0.82710  0.89874  0.55210  Biso   1.000  N
  N14      1.0000 0.67290  0.10126  0.05210  Biso   1.000  N
  N15      1.0000 0.32710  0.60126  0.44790  Biso   1.000  N
  N16      1.0000 0.17290  0.39874  0.94790  Biso   1.000  N
  N17      1.0000 0.06950  0.10822  0.19930  Biso   1.000  N
  N18      1.0000 0.43050  0.89178  0.69930  Biso   1.000  N
  N19      1.0000 0.56950  0.39178  0.80070  Biso   1.000  N
  N20      1.0000 0.93050  0.60822  0.30070  Biso   1.000  N
  N21      1.0000 0.93050  0.89178  0.80070  Biso   1.000  N
  N22      1.0000 0.56950  0.10822  0.30070  Biso   1.000  N
  N23      1.0000 0.43050  0.60822  0.19930  Biso   1.000  N
  N24      1.0000 0.06950  0.39178  0.69930  Biso   1.000  N
  N25      1.0000 0.10440  0.27460  0.70260  Biso   1.000  N
  N26      1.0000 0.39560  0.72540  0.20260  Biso   1.000  N
  N27      1.0000 0.60440  0.22540  0.29740  Biso   1.000  N
  N28      1.0000 0.89560  0.77460  0.79740  Biso   1.000  N
  N29      1.0000 0.89560  0.72540  0.29740  Biso   1.000  N
  N30      1.0000 0.60440  0.27460  0.79740  Biso   1.000  N
  N31      1.0000 0.39560  0.77460  0.70260  Biso   1.000  N
  N32      1.0000 0.10440  0.22540  0.20260  Biso   1.000  N
  C1       1.0000 0.25480  0.24400  0.43550  Biso   1.000  C
  C2       1.0000 0.24520  0.75600  0.93550  Biso   1.000  C
  C3       1.0000 0.75480  0.25600  0.56450  Biso   1.000  C
  C4       1.0000 0.74520  0.74400  0.06450  Biso   1.000  C
  C5       1.0000 0.74520  0.75600  0.56450  Biso   1.000  C
  C6       1.0000 0.75480  0.24400  0.06450  Biso   1.000  C
  C7       1.0000 0.24520  0.74400  0.43550  Biso   1.000  C
  C8       1.0000 0.25480  0.25600  0.93550  Biso   1.000  C
  H1       1.0000 0.22600  0.26850  0.37430  Biso   1.000  H
  H2       1.0000 0.27400  0.73150  0.87430  Biso   1.000  H
  H3       1.0000 0.72600  0.23150  0.62570  Biso   1.000  H
  H4       1.0000 0.77400  0.76850  0.12570  Biso   1.000  H
  H5       1.0000 0.77400  0.73150  0.62570  Biso   1.000  H
  H6       1.0000 0.72600  0.26850  0.12570  Biso   1.000  H
  H7       1.0000 0.27400  0.76850  0.37430  Biso   1.000  H
  H8       1.0000 0.22600  0.23150  0.87430  Biso   1.000  H
  C9       1.0000 0.32190  0.26120  0.51610  Biso   1.000  C
  C10      1.0000 0.17810  0.73880  0.01610  Biso   1.000  C
  C11      1.0000 0.82190  0.23880  0.48390  Biso   1.000  C
  C12      1.0000 0.67810  0.76120  0.98390  Biso   1.000  C
  C13      1.0000 0.67810  0.73880  0.48390  Biso   1.000  C
  C14      1.0000 0.82190  0.26120  0.98390  Biso   1.000  C
  C15      1.0000 0.17810  0.76120  0.51610  Biso   1.000  C
  C16      1.0000 0.32190  0.23880  0.01610  Biso   1.000  C
  H9       1.0000 0.33750  0.29650  0.51120  Biso   1.000  H
  H10      1.0000 0.16250  0.70350  0.01120  Biso   1.000  H
  H11      1.0000 0.83750  0.20350  0.48880  Biso   1.000  H
  H12      1.0000 0.66250  0.79650  0.98880  Biso   1.000  H
  H13      1.0000 0.66250  0.70350  0.48880  Biso   1.000  H
  H14      1.0000 0.83750  0.29650  0.98880  Biso   1.000  H
  H15      1.0000 0.16250  0.79650  0.51120  Biso   1.000  H
  H16      1.0000 0.33750  0.20350  0.01120  Biso   1.000  H
  C17      1.0000 0.36470  0.22410  0.60390  Biso   1.000  C
  C18      1.0000 0.13530  0.77590  0.10390  Biso   1.000  C
  C19      1.0000 0.86470  0.27590  0.39610  Biso   1.000  C
  C20      1.0000 0.63530  0.72410  0.89610  Biso   1.000  C
  C21      1.0000 0.63530  0.77590  0.39610  Biso   1.000  C
  C22      1.0000 0.86470  0.22410  0.89610  Biso   1.000  C
  C23      1.0000 0.13530  0.72410  0.60390  Biso   1.000  C
  C24      1.0000 0.36470  0.27590  0.10390  Biso   1.000  C
  H17      1.0000 0.41100  0.23390  0.65650  Biso   1.000  H
  H18      1.0000 0.08900  0.76610  0.15650  Biso   1.000  H
  H19      1.0000 0.91100  0.26610  0.34350  Biso   1.000  H
  H20      1.0000 0.58900  0.73390  0.84350  Biso   1.000  H
  H21      1.0000 0.58900  0.76610  0.34350  Biso   1.000  H
  H22      1.0000 0.91100  0.23390  0.84350  Biso   1.000  H
  H23      1.0000 0.08900  0.73390  0.65650  Biso   1.000  H
  H24      1.0000 0.41100  0.26610  0.15650  Biso   1.000  H
  C25      1.0000 0.33900  0.17300  0.61330  Biso   1.000  C
  C26      1.0000 0.16100  0.82700  0.11330  Biso   1.000  C
  C27      1.0000 0.83900  0.32700  0.38670  Biso   1.000  C
  C28      1.0000 0.66100  0.67300  0.88670  Biso   1.000  C
  C29      1.0000 0.66100  0.82700  0.38670  Biso   1.000  C
  C30      1.0000 0.83900  0.17300  0.88670  Biso   1.000  C
  C31      1.0000 0.16100  0.67300  0.61330  Biso   1.000  C
  C32      1.0000 0.33900  0.32700  0.11330  Biso   1.000  C
  H25      1.0000 0.36680  0.14810  0.67500  Biso   1.000  H
  H26      1.0000 0.13320  0.85190  0.17500  Biso   1.000  H
  H27      1.0000 0.86680  0.35190  0.32500  Biso   1.000  H
  H28      1.0000 0.63320  0.64810  0.82500  Biso   1.000  H
  H29      1.0000 0.63320  0.85190  0.32500  Biso   1.000  H
  H30      1.0000 0.86680  0.14810  0.82500  Biso   1.000  H
  H31      1.0000 0.13320  0.64810  0.67500  Biso   1.000  H
  H32      1.0000 0.36680  0.35190  0.17500  Biso   1.000  H
  C33      1.0000 0.27140  0.15850  0.53070  Biso   1.000  C
  C34      1.0000 0.22860  0.84150  0.03070  Biso   1.000  C
  C35      1.0000 0.77140  0.34150  0.46930  Biso   1.000  C
  C36      1.0000 0.72860  0.65850  0.96930  Biso   1.000  C
  C37      1.0000 0.72860  0.84150  0.46930  Biso   1.000  C
  C38      1.0000 0.77140  0.15850  0.96930  Biso   1.000  C
  C39      1.0000 0.22860  0.65850  0.53070  Biso   1.000  C
  C40      1.0000 0.27140  0.34150  0.03070  Biso   1.000  C
  C41      1.0000 0.23680  0.10480  0.52760  Biso   1.000  C
  C42      1.0000 0.26320  0.89520  0.02760  Biso   1.000  C
  C43      1.0000 0.73680  0.39520  0.47240  Biso   1.000  C
  C44      1.0000 0.76320  0.60480  0.97240  Biso   1.000  C
  C45      1.0000 0.76320  0.89520  0.47240  Biso   1.000  C
  C46      1.0000 0.73680  0.10480  0.97240  Biso   1.000  C
  C47      1.0000 0.26320  0.60480  0.52760  Biso   1.000  C
  C48      1.0000 0.23680  0.39520  0.02760  Biso   1.000  C
  C49      1.0000 0.12590  0.05360  0.42240  Biso   1.000  C
  C50      1.0000 0.37410  0.94640  0.92240  Biso   1.000  C
  C51      1.0000 0.62590  0.44640  0.57760  Biso   1.000  C
  C52      1.0000 0.87410  0.55360  0.07760  Biso   1.000  C
  C53      1.0000 0.87410  0.94640  0.57760  Biso   1.000  C
  C54      1.0000 0.62590  0.05360  0.07760  Biso   1.000  C
  C55      1.0000 0.37410  0.55360  0.42240  Biso   1.000  C
  C56      1.0000 0.12590  0.44640  0.92240  Biso   1.000  C
  H33      1.0000 0.08080  0.05370  0.49600  Biso   1.000  H
  H34      1.0000 0.41920  0.94630  0.99600  Biso   1.000  H
  H35      1.0000 0.58080  0.44630  0.50400  Biso   1.000  H
  H36      1.0000 0.91920  0.55370  0.00400  Biso   1.000  H
  H37      1.0000 0.91920  0.94630  0.50400  Biso   1.000  H
  H38      1.0000 0.58080  0.05370  0.00400  Biso   1.000  H
  H39      1.0000 0.41920  0.55370  0.49600  Biso   1.000  H
  H40      1.0000 0.08080  0.44630  0.99600  Biso   1.000  H
  H41      1.0000 0.15670  0.02220  0.44460  Biso   1.000  H
  H42      1.0000 0.34330  0.97780  0.94460  Biso   1.000  H
  H43      1.0000 0.65670  0.47780  0.55540  Biso   1.000  H
  H44      1.0000 0.84330  0.52220  0.05540  Biso   1.000  H
  H45      1.0000 0.84330  0.97780  0.55540  Biso   1.000  H
  H46      1.0000 0.65670  0.02220  0.05540  Biso   1.000  H
  H47      1.0000 0.34330  0.52220  0.44460  Biso   1.000  H
  H48      1.0000 0.15670  0.47780  0.94460  Biso   1.000  H
  C57      1.0000 0.10040  0.05500  0.24210  Biso   1.000  C
  C58      1.0000 0.39960  0.94500  0.74210  Biso   1.000  C
  C59      1.0000 0.60040  0.44500  0.75790  Biso   1.000  C
  C60      1.0000 0.89960  0.55500  0.25790  Biso   1.000  C
  C61      1.0000 0.89960  0.94500  0.75790  Biso   1.000  C
  C62      1.0000 0.60040  0.05500  0.25790  Biso   1.000  C
  C63      1.0000 0.39960  0.55500  0.24210  Biso   1.000  C
  C64      1.0000 0.10040  0.44500  0.74210  Biso   1.000  C
  H49      1.0000 0.14440  0.04670  0.17040  Biso   1.000  H
  H50      1.0000 0.35560  0.95330  0.67040  Biso   1.000  H
  H51      1.0000 0.64440  0.45330  0.82960  Biso   1.000  H
  H52      1.0000 0.85560  0.54670  0.32960  Biso   1.000  H
  H53      1.0000 0.85560  0.95330  0.82960  Biso   1.000  H
  H54      1.0000 0.64440  0.04670  0.32960  Biso   1.000  H
  H55      1.0000 0.35560  0.54670  0.17040  Biso   1.000  H
  H56      1.0000 0.14440  0.45330  0.67040  Biso   1.000  H
  H57      1.0000 0.06010  0.02860  0.22350  Biso   1.000  H
  H58      1.0000 0.43990  0.97140  0.72350  Biso   1.000  H
  H59      1.0000 0.56010  0.47140  0.77650  Biso   1.000  H
  H60      1.0000 0.93990  0.52860  0.27650  Biso   1.000  H
  H61      1.0000 0.93990  0.97140  0.77650  Biso   1.000  H
  H62      1.0000 0.56010  0.02860  0.27650  Biso   1.000  H
  H63      1.0000 0.43990  0.52860  0.22350  Biso   1.000  H
  H64      1.0000 0.06010  0.47140  0.72350  Biso   1.000  H
  C65      1.0000 0.06160  0.11770  0.01510  Biso   1.000  C
  C66      1.0000 0.43840  0.88230  0.51510  Biso   1.000  C
  C67      1.0000 0.56160  0.38230  0.98490  Biso   1.000  C
  C68      1.0000 0.93840  0.61770  0.48490  Biso   1.000  C
  C69      1.0000 0.93840  0.88230  0.98490  Biso   1.000  C
  C70      1.0000 0.56160  0.11770  0.48490  Biso   1.000  C
  C71      1.0000 0.43840  0.61770  0.01510  Biso   1.000  C
  C72      1.0000 0.06160  0.38230  0.51510  Biso   1.000  C
  H65      1.0000 0.03480  0.15160  0.00030  Biso   1.000  H
  H66      1.0000 0.46520  0.84840  0.50030  Biso   1.000  H
  H67      1.0000 0.53480  0.34840  0.99970  Biso   1.000  H
  H68      1.0000 0.96520  0.65160  0.49970  Biso   1.000  H
  H69      1.0000 0.96520  0.84840  0.99970  Biso   1.000  H
  H70      1.0000 0.53480  0.15160  0.49970  Biso   1.000  H
  H71      1.0000 0.46520  0.65160  0.00030  Biso   1.000  H
  H72      1.0000 0.03480  0.34840  0.50030  Biso   1.000  H
  C73      1.0000 0.14180  0.12250  0.93350  Biso   1.000  C
  C74      1.0000 0.35820  0.87750  0.43350  Biso   1.000  C
  C75      1.0000 0.64180  0.37750  0.06650  Biso   1.000  C
  C76      1.0000 0.85820  0.62250  0.56650  Biso   1.000  C
  C77      1.0000 0.85820  0.87750  0.06650  Biso   1.000  C
  C78      1.0000 0.64180  0.12250  0.56650  Biso   1.000  C
  C79      1.0000 0.35820  0.62250  0.93350  Biso   1.000  C
  C80      1.0000 0.14180  0.37750  0.43350  Biso   1.000  C
  H73      1.0000 0.17340  0.14680  0.99630  Biso   1.000  H
  H74      1.0000 0.32660  0.85320  0.49630  Biso   1.000  H
  H75      1.0000 0.67340  0.35320  0.00370  Biso   1.000  H
  H76      1.0000 0.82660  0.64680  0.50370  Biso   1.000  H
  H77      1.0000 0.82660  0.85320  0.00370  Biso   1.000  H
  H78      1.0000 0.67340  0.14680  0.50370  Biso   1.000  H
  H79      1.0000 0.32660  0.64680  0.99630  Biso   1.000  H
  H80      1.0000 0.17340  0.35320  0.49630  Biso   1.000  H
  H81      1.0000 0.13590  0.13530  0.82130  Biso   1.000  H
  H82      1.0000 0.36410  0.86470  0.32130  Biso   1.000  H
  H83      1.0000 0.63590  0.36470  0.17870  Biso   1.000  H
  H84      1.0000 0.86410  0.63530  0.67870  Biso   1.000  H
  H85      1.0000 0.86410  0.86470  0.17870  Biso   1.000  H
  H86      1.0000 0.63590  0.13530  0.67870  Biso   1.000  H
  H87      1.0000 0.36410  0.63530  0.82130  Biso   1.000  H
  H88      1.0000 0.13590  0.36470  0.32130  Biso   1.000  H
  H89      1.0000 0.16660  0.08840  0.93160  Biso   1.000  H
  H90      1.0000 0.33340  0.91160  0.43160  Biso   1.000  H
  H91      1.0000 0.66660  0.41160  0.06840  Biso   1.000  H
  H92      1.0000 0.83340  0.58840  0.56840  Biso   1.000  H
  H93      1.0000 0.83340  0.91160  0.06840  Biso   1.000  H
  H94      1.0000 0.66660  0.08840  0.56840  Biso   1.000  H
  H95      1.0000 0.33340  0.58840  0.93160  Biso   1.000  H
  H96      1.0000 0.16660  0.41160  0.43160  Biso   1.000  H
  C81      1.0000 0.01220  0.07550  0.93090  Biso   1.000  C
  C82      1.0000 0.48780  0.92450  0.43090  Biso   1.000  C
  C83      1.0000 0.51220  0.42450  0.06910  Biso   1.000  C
  C84      1.0000 0.98780  0.57550  0.56910  Biso   1.000  C
  C85      1.0000 0.98780  0.92450  0.06910  Biso   1.000  C
  C86      1.0000 0.51220  0.07550  0.56910  Biso   1.000  C
  C87      1.0000 0.48780  0.57550  0.93090  Biso   1.000  C
  C88      1.0000 0.01220  0.42450  0.43090  Biso   1.000  C
  H97      1.0000 0.04000  0.04250  0.93090  Biso   1.000  H
  H98      1.0000 0.46000  0.95750  0.43090  Biso   1.000  H
  H99      1.0000 0.54000  0.45750  0.06910  Biso   1.000  H
  H100     1.0000 0.96000  0.54250  0.56910  Biso   1.000  H
  H101     1.0000 0.96000  0.95750  0.06910  Biso   1.000  H
  H102     1.0000 0.54000  0.04250  0.56910  Biso   1.000  H
  H103     1.0000 0.46000  0.54250  0.93090  Biso   1.000  H
  H104     1.0000 0.04000  0.45750  0.43090  Biso   1.000  H
  H105     1.0000 0.00130  0.08590  0.81790  Biso   1.000  H
  H106     1.0000 0.49870  0.91410  0.31790  Biso   1.000  H
  H107     1.0000 0.50130  0.41410  0.18210  Biso   1.000  H
  H108     1.0000 0.99870  0.58590  0.68210  Biso   1.000  H
  H109     1.0000 0.99870  0.91410  0.18210  Biso   1.000  H
  H110     1.0000 0.50130  0.08590  0.68210  Biso   1.000  H
  H111     1.0000 0.49870  0.58590  0.81790  Biso   1.000  H
  H112     1.0000 0.00130  0.41410  0.31790  Biso   1.000  H
  H113     1.0000 0.96390  0.07140  0.99070  Biso   1.000  H
  H114     1.0000 0.53610  0.92860  0.49070  Biso   1.000  H
  H115     1.0000 0.46390  0.42860  0.00930  Biso   1.000  H
  H116     1.0000 0.03610  0.57140  0.50930  Biso   1.000  H
  H117     1.0000 0.03610  0.92860  0.00930  Biso   1.000  H
  H118     1.0000 0.46390  0.07140  0.50930  Biso   1.000  H
  H119     1.0000 0.53610  0.57140  0.99070  Biso   1.000  H
  H120     1.0000 0.96390  0.42860  0.49070  Biso   1.000  H
  C89      1.0000 0.27630  0.05980  0.61600  Biso   1.000  C
  C90      1.0000 0.22370  0.94020  0.11600  Biso   1.000  C
  C91      1.0000 0.77630  0.44020  0.38400  Biso   1.000  C
  C92      1.0000 0.72370  0.55980  0.88400  Biso   1.000  C
  C93      1.0000 0.72370  0.94020  0.38400  Biso   1.000  C
  C94      1.0000 0.77630  0.05980  0.88400  Biso   1.000  C
  C95      1.0000 0.22370  0.55980  0.61600  Biso   1.000  C
  C96      1.0000 0.27630  0.44020  0.11600  Biso   1.000  C
  H121     1.0000 0.24030  0.03080  0.62740  Biso   1.000  H
  H122     1.0000 0.25970  0.96920  0.12740  Biso   1.000  H
  H123     1.0000 0.74030  0.46920  0.37260  Biso   1.000  H
  H124     1.0000 0.75970  0.53080  0.87260  Biso   1.000  H
  H125     1.0000 0.75970  0.96920  0.37260  Biso   1.000  H
  H126     1.0000 0.74030  0.03080  0.87260  Biso   1.000  H
  H127     1.0000 0.25970  0.53080  0.62740  Biso   1.000  H
  H128     1.0000 0.24030  0.46920  0.12740  Biso   1.000  H
  H129     1.0000 0.29300  0.07120  0.72470  Biso   1.000  H
  H130     1.0000 0.20700  0.92880  0.22470  Biso   1.000  H
  H131     1.0000 0.79300  0.42880  0.27530  Biso   1.000  H
  H132     1.0000 0.70700  0.57120  0.77530  Biso   1.000  H
  H133     1.0000 0.70700  0.92880  0.27530  Biso   1.000  H
  H134     1.0000 0.79300  0.07120  0.77530  Biso   1.000  H
  H135     1.0000 0.20700  0.57120  0.72470  Biso   1.000  H
  H136     1.0000 0.29300  0.42880  0.22470  Biso   1.000  H
  H137     1.0000 0.32090  0.04850  0.55250  Biso   1.000  H
  H138     1.0000 0.17910  0.95150  0.05250  Biso   1.000  H
  H139     1.0000 0.82090  0.45150  0.44750  Biso   1.000  H
  H140     1.0000 0.67910  0.54850  0.94750  Biso   1.000  H
  H141     1.0000 0.67910  0.95150  0.44750  Biso   1.000  H
  H142     1.0000 0.82090  0.04850  0.94750  Biso   1.000  H
  H143     1.0000 0.17910  0.54850  0.55250  Biso   1.000  H
  H144     1.0000 0.32090  0.45150  0.05250  Biso   1.000  H
  C97      1.0000 0.07220  0.23850  0.64750  Biso   1.000  C
  C98      1.0000 0.42780  0.76150  0.14750  Biso   1.000  C
  C99      1.0000 0.57220  0.26150  0.35250  Biso   1.000  C
  C100     1.0000 0.92780  0.73850  0.85250  Biso   1.000  C
  C101     1.0000 0.92780  0.76150  0.35250  Biso   1.000  C
  C102     1.0000 0.57220  0.23850  0.85250  Biso   1.000  C
  C103     1.0000 0.42780  0.73850  0.64750  Biso   1.000  C
  C104     1.0000 0.07220  0.26150  0.14750  Biso   1.000  C
  H145     1.0000 0.02190  0.11100  0.24500  Biso   1.000  H
  H146     1.0000 0.47810  0.88900  0.74500  Biso   1.000  H
  H147     1.0000 0.52190  0.38900  0.75500  Biso   1.000  H
  H148     1.0000 0.97810  0.61100  0.25500  Biso   1.000  H
  H149     1.0000 0.97810  0.88900  0.75500  Biso   1.000  H
  H150     1.0000 0.52190  0.11100  0.25500  Biso   1.000  H
  H151     1.0000 0.47810  0.61100  0.24500  Biso   1.000  H
  H152     1.0000 0.02190  0.38900  0.74500  Biso   1.000  H
  B1       1.0000 0.86910  0.08310  0.36290  Biso   1.000  B
  B2       1.0000 0.63090  0.91690  0.86290  Biso   1.000  B
  B3       1.0000 0.36910  0.41690  0.63710  Biso   1.000  B
  B4       1.0000 0.13090  0.58310  0.13710  Biso   1.000  B
  B5       1.0000 0.13090  0.91690  0.63710  Biso   1.000  B
  B6       1.0000 0.36910  0.08310  0.13710  Biso   1.000  B
  B7       1.0000 0.63090  0.58310  0.36290  Biso   1.000  B
  B8       1.0000 0.86910  0.41690  0.86290  Biso   1.000  B
  F1       1.0000 0.88410  0.12590  0.27080  Biso   1.000  F
  F2       1.0000 0.61590  0.87410  0.77080  Biso   1.000  F
  F3       1.0000 0.38410  0.37410  0.72920  Biso   1.000  F
  F4       1.0000 0.11590  0.62590  0.22920  Biso   1.000  F
  F5       1.0000 0.11590  0.87410  0.72920  Biso   1.000  F
  F6       1.0000 0.38410  0.12590  0.22920  Biso   1.000  F
  F7       1.0000 0.61590  0.62590  0.27080  Biso   1.000  F
  F8       1.0000 0.88410  0.37410  0.77080  Biso   1.000  F
  F9       1.0000 0.93090  0.05090  0.36800  Biso   1.000  F
  F10      1.0000 0.56910  0.94910  0.86800  Biso   1.000  F
  F11      1.0000 0.43090  0.44910  0.63200  Biso   1.000  F
  F12      1.0000 0.06910  0.55090  0.13200  Biso   1.000  F
  F13      1.0000 0.06910  0.94910  0.63200  Biso   1.000  F
  F14      1.0000 0.43090  0.05090  0.13200  Biso   1.000  F
  F15      1.0000 0.56910  0.55090  0.36800  Biso   1.000  F
  F16      1.0000 0.93090  0.44910  0.86800  Biso   1.000  F
  F17      1.0000 0.80730  0.05750  0.30500  Biso   1.000  F
  F18      1.0000 0.69270  0.94250  0.80500  Biso   1.000  F
  F19      1.0000 0.30730  0.44250  0.69500  Biso   1.000  F
  F20      1.0000 0.19270  0.55750  0.19500  Biso   1.000  F
  F21      1.0000 0.19270  0.94250  0.69500  Biso   1.000  F
  F22      1.0000 0.30730  0.05750  0.19500  Biso   1.000  F
  F23      1.0000 0.69270  0.55750  0.30500  Biso   1.000  F
  F24      1.0000 0.80730  0.44250  0.80500  Biso   1.000  F
  F25      1.0000 0.85200  0.09730  0.52030  Biso   1.000  F
  F26      1.0000 0.64800  0.90270  0.02030  Biso   1.000  F
  F27      1.0000 0.35200  0.40270  0.47970  Biso   1.000  F
  F28      1.0000 0.14800  0.59730  0.97970  Biso   1.000  F
  F29      1.0000 0.14800  0.90270  0.47970  Biso   1.000  F
  F30      1.0000 0.35200  0.09730  0.97970  Biso   1.000  F
  F31      1.0000 0.64800  0.59730  0.52030  Biso   1.000  F
  F32      1.0000 0.85200  0.40270  0.02030  Biso   1.000  F
  F33      1.0000 0.89510  0.12490  0.27560  Biso   1.000  F
  F34      1.0000 0.60490  0.87510  0.77560  Biso   1.000  F
  F35      1.0000 0.39510  0.37510  0.72440  Biso   1.000  F
  F36      1.0000 0.10490  0.62490  0.22440  Biso   1.000  F
  F37      1.0000 0.10490  0.87510  0.72440  Biso   1.000  F
  F38      1.0000 0.39510  0.12490  0.22440  Biso   1.000  F
  F39      1.0000 0.60490  0.62490  0.27560  Biso   1.000  F
  F40      1.0000 0.89510  0.37510  0.77560  Biso   1.000  F
  F41      1.0000 0.91610  0.07590  0.49300  Biso   1.000  F
  F42      1.0000 0.58390  0.92410  0.99300  Biso   1.000  F
  F43      1.0000 0.41610  0.42410  0.50700  Biso   1.000  F
  F44      1.0000 0.08390  0.57590  0.00700  Biso   1.000  F
  F45      1.0000 0.08390  0.92410  0.50700  Biso   1.000  F
  F46      1.0000 0.41610  0.07590  0.00700  Biso   1.000  F
  F47      1.0000 0.58390  0.57590  0.49300  Biso   1.000  F
  F48      1.0000 0.91610  0.42410  0.99300  Biso   1.000  F
  F49      1.0000 0.87160  0.04060  0.26410  Biso   1.000  F
  F50      1.0000 0.62840  0.95940  0.76410  Biso   1.000  F
  F51      1.0000 0.37160  0.45940  0.73590  Biso   1.000  F
  F52      1.0000 0.12840  0.54060  0.23590  Biso   1.000  F
  F53      1.0000 0.12840  0.95940  0.73590  Biso   1.000  F
  F54      1.0000 0.37160  0.04060  0.23590  Biso   1.000  F
  F55      1.0000 0.62840  0.54060  0.26410  Biso   1.000  F
  F56      1.0000 0.87160  0.45940  0.76410  Biso   1.000  F
  F57      1.0000 0.79640  0.08920  0.41100  Biso   1.000  F
  F58      1.0000 0.70360  0.91080  0.91100  Biso   1.000  F
  F59      1.0000 0.29640  0.41080  0.58900  Biso   1.000  F
  F60      1.0000 0.20360  0.58920  0.08900  Biso   1.000  F
  F61      1.0000 0.20360  0.91080  0.58900  Biso   1.000  F
  F62      1.0000 0.29640  0.08920  0.08900  Biso   1.000  F
  F63      1.0000 0.70360  0.58920  0.41100  Biso   1.000  F
  F64      1.0000 0.79640  0.41080  0.91100  Biso   1.000  F
