data_image0
_cell_length_a       7.7597
_cell_length_b       13.29
_cell_length_c       15.1375
_cell_angle_alpha    90
_cell_angle_beta     93.535
_cell_angle_gamma    90

_symmetry_space_group_name_H-M    "P 1"
_symmetry_int_tables_number       1

loop_
  _symmetry_equiv_pos_as_xyz
  'x, y, z'

loop_
  _atom_site_label
  _atom_site_occupancy
  _atom_site_fract_x
  _atom_site_fract_y
  _atom_site_fract_z
  _atom_site_thermal_displace_type
  _atom_site_B_iso_or_equiv
  _atom_site_type_symbol
  Cu1      1.0000 0.69615  0.27025  0.96054  Biso   1.000  Cu
  Cu2      1.0000 0.30385  0.77025  0.53946  Biso   1.000  Cu
  Cu3      1.0000 0.30385  0.72975  0.03946  Biso   1.000  Cu
  Cu4      1.0000 0.69615  0.22975  0.46054  Biso   1.000  Cu
  N1       1.0000 0.67380  0.41629  0.92954  Biso   1.000  N
  N2       1.0000 0.32620  0.91629  0.57046  Biso   1.000  N
  N3       1.0000 0.32620  0.58371  0.07046  Biso   1.000  N
  N4       1.0000 0.67380  0.08371  0.42954  Biso   1.000  N
  N5       1.0000 0.80920  0.33335  0.07272  Biso   1.000  N
  N6       1.0000 0.19080  0.83335  0.42728  Biso   1.000  N
  N7       1.0000 0.19080  0.66665  0.92728  Biso   1.000  N
  N8       1.0000 0.80920  0.16665  0.57272  Biso   1.000  N
  N9       1.0000 0.69620  0.13182  0.00581  Biso   1.000  N
  N10      1.0000 0.30380  0.63182  0.49419  Biso   1.000  N
  N11      1.0000 0.30380  0.86818  0.99419  Biso   1.000  N
  N12      1.0000 0.69620  0.36818  0.50581  Biso   1.000  N
  H1       1.0000 0.70980  0.09020  0.95990  Biso   1.000  H
  H2       1.0000 0.29020  0.59020  0.54010  Biso   1.000  H
  H3       1.0000 0.29020  0.90980  0.04010  Biso   1.000  H
  H4       1.0000 0.70980  0.40980  0.45990  Biso   1.000  H
  H5       1.0000 0.59100  0.11950  0.02530  Biso   1.000  H
  H6       1.0000 0.40900  0.61950  0.47470  Biso   1.000  H
  H7       1.0000 0.40900  0.88050  0.97470  Biso   1.000  H
  H8       1.0000 0.59100  0.38050  0.52530  Biso   1.000  H
  N13      1.0000 0.92820  0.24463  0.88813  Biso   1.000  N
  N14      1.0000 0.07180  0.74463  0.61187  Biso   1.000  N
  N15      1.0000 0.07180  0.75537  0.11187  Biso   1.000  N
  N16      1.0000 0.92820  0.25537  0.38813  Biso   1.000  N
  N17      1.0000 0.19830  0.17213  0.84135  Biso   1.000  N
  N18      1.0000 0.80170  0.67213  0.65865  Biso   1.000  N
  N19      1.0000 0.80170  0.82787  0.15865  Biso   1.000  N
  N20      1.0000 0.19830  0.32787  0.34135  Biso   1.000  N
  N21      1.0000 0.48830  0.23491  0.88125  Biso   1.000  N
  N22      1.0000 0.51170  0.73491  0.61875  Biso   1.000  N
  N23      1.0000 0.51170  0.76509  0.11875  Biso   1.000  N
  N24      1.0000 0.48830  0.26509  0.38125  Biso   1.000  N
  C1       1.0000 0.60360  0.45348  0.85401  Biso   1.000  C
  C2       1.0000 0.39640  0.95348  0.64599  Biso   1.000  C
  C3       1.0000 0.39640  0.54652  0.14599  Biso   1.000  C
  C4       1.0000 0.60360  0.04652  0.35401  Biso   1.000  C
  H9       1.0000 0.55860  0.40920  0.81100  Biso   1.000  H
  H10      1.0000 0.44140  0.90920  0.68900  Biso   1.000  H
  H11      1.0000 0.44140  0.59080  0.18900  Biso   1.000  H
  H12      1.0000 0.55860  0.09080  0.31100  Biso   1.000  H
  C5       1.0000 0.59500  0.55599  0.83720  Biso   1.000  C
  C6       1.0000 0.40500  0.05599  0.66280  Biso   1.000  C
  C7       1.0000 0.40500  0.44401  0.16280  Biso   1.000  C
  C8       1.0000 0.59500  0.94401  0.33720  Biso   1.000  C
  H13      1.0000 0.54540  0.58010  0.78380  Biso   1.000  H
  H14      1.0000 0.45460  0.08010  0.71620  Biso   1.000  H
  H15      1.0000 0.45460  0.41990  0.21620  Biso   1.000  H
  H16      1.0000 0.54540  0.91990  0.28380  Biso   1.000  H
  C9       1.0000 0.66110  0.62101  0.90080  Biso   1.000  C
  C10      1.0000 0.33890  0.12101  0.59920  Biso   1.000  C
  C11      1.0000 0.33890  0.37899  0.09920  Biso   1.000  C
  C12      1.0000 0.66110  0.87899  0.40080  Biso   1.000  C
  H17      1.0000 0.65630  0.69010  0.89130  Biso   1.000  H
  H18      1.0000 0.34370  0.19010  0.60870  Biso   1.000  H
  H19      1.0000 0.34370  0.30990  0.10870  Biso   1.000  H
  H20      1.0000 0.65630  0.80990  0.39130  Biso   1.000  H
  C13      1.0000 0.73510  0.58281  0.97935  Biso   1.000  C
  C14      1.0000 0.26490  0.08281  0.52065  Biso   1.000  C
  C15      1.0000 0.26490  0.41719  0.02065  Biso   1.000  C
  C16      1.0000 0.73510  0.91719  0.47935  Biso   1.000  C
  H21      1.0000 0.78110  0.62610  0.02300  Biso   1.000  H
  H22      1.0000 0.21890  0.12610  0.47700  Biso   1.000  H
  H23      1.0000 0.21890  0.37390  0.97700  Biso   1.000  H
  H24      1.0000 0.78110  0.87390  0.52300  Biso   1.000  H
  C17      1.0000 0.74020  0.48002  0.99242  Biso   1.000  C
  C18      1.0000 0.25980  0.98002  0.50758  Biso   1.000  C
  C19      1.0000 0.25980  0.51998  0.00758  Biso   1.000  C
  C20      1.0000 0.74020  0.01998  0.49242  Biso   1.000  C
  C21      1.0000 0.81850  0.42917  0.07280  Biso   1.000  C
  C22      1.0000 0.18150  0.92917  0.42720  Biso   1.000  C
  C23      1.0000 0.18150  0.57083  0.92720  Biso   1.000  C
  C24      1.0000 0.81850  0.07083  0.57280  Biso   1.000  C
  C25      1.0000 0.89930  0.49300  0.14617  Biso   1.000  C
  C26      1.0000 0.10070  0.99300  0.35383  Biso   1.000  C
  C27      1.0000 0.10070  0.50700  0.85383  Biso   1.000  C
  C28      1.0000 0.89930  0.00700  0.64617  Biso   1.000  C
  H25      1.0000 0.81040  0.52090  0.18020  Biso   1.000  H
  H26      1.0000 0.18960  0.02090  0.31980  Biso   1.000  H
  H27      1.0000 0.18960  0.47910  0.81980  Biso   1.000  H
  H28      1.0000 0.81040  0.97910  0.68020  Biso   1.000  H
  H29      1.0000 0.96390  0.54650  0.12140  Biso   1.000  H
  H30      1.0000 0.03610  0.04650  0.37860  Biso   1.000  H
  H31      1.0000 0.03610  0.45350  0.87860  Biso   1.000  H
  H32      1.0000 0.96390  0.95350  0.62140  Biso   1.000  H
  H33      1.0000 0.97510  0.45230  0.18380  Biso   1.000  H
  H34      1.0000 0.02490  0.95230  0.31620  Biso   1.000  H
  H35      1.0000 0.02490  0.54770  0.81620  Biso   1.000  H
  H36      1.0000 0.97510  0.04770  0.68380  Biso   1.000  H
  C29      1.0000 0.88740  0.27540  0.14790  Biso   1.000  C
  C30      1.0000 0.11260  0.77540  0.35210  Biso   1.000  C
  C31      1.0000 0.11260  0.72460  0.85210  Biso   1.000  C
  C32      1.0000 0.88740  0.22460  0.64790  Biso   1.000  C
  H37      1.0000 0.87270  0.31250  0.20220  Biso   1.000  H
  H38      1.0000 0.12730  0.81250  0.29780  Biso   1.000  H
  H39      1.0000 0.12730  0.68750  0.79780  Biso   1.000  H
  H40      1.0000 0.87270  0.18750  0.70220  Biso   1.000  H
  H41      1.0000 0.01040  0.26890  0.14100  Biso   1.000  H
  H42      1.0000 0.98960  0.76890  0.35900  Biso   1.000  H
  H43      1.0000 0.98960  0.73110  0.85900  Biso   1.000  H
  H44      1.0000 0.01040  0.23110  0.64100  Biso   1.000  H
  C33      1.0000 0.81060  0.17190  0.15626  Biso   1.000  C
  C34      1.0000 0.18940  0.67190  0.34374  Biso   1.000  C
  C35      1.0000 0.18940  0.82810  0.84374  Biso   1.000  C
  C36      1.0000 0.81060  0.32810  0.65626  Biso   1.000  C
  H45      1.0000 0.68940  0.17910  0.16720  Biso   1.000  H
  H46      1.0000 0.31060  0.67910  0.33280  Biso   1.000  H
  H47      1.0000 0.31060  0.82090  0.83280  Biso   1.000  H
  H48      1.0000 0.68940  0.32090  0.66720  Biso   1.000  H
  H49      1.0000 0.86680  0.13910  0.20760  Biso   1.000  H
  H50      1.0000 0.13320  0.63910  0.29240  Biso   1.000  H
  H51      1.0000 0.13320  0.86090  0.79240  Biso   1.000  H
  H52      1.0000 0.86680  0.36090  0.70760  Biso   1.000  H
  C37      1.0000 0.82510  0.10400  0.07698  Biso   1.000  C
  C38      1.0000 0.17490  0.60400  0.42302  Biso   1.000  C
  C39      1.0000 0.17490  0.89600  0.92302  Biso   1.000  C
  C40      1.0000 0.82510  0.39600  0.57698  Biso   1.000  C
  H53      1.0000 0.94010  0.10950  0.05560  Biso   1.000  H
  H54      1.0000 0.05990  0.60950  0.44440  Biso   1.000  H
  H55      1.0000 0.05990  0.89050  0.94440  Biso   1.000  H
  H56      1.0000 0.94010  0.39050  0.55560  Biso   1.000  H
  H57      1.0000 0.80740  0.03460  0.09420  Biso   1.000  H
  H58      1.0000 0.19260  0.53460  0.40580  Biso   1.000  H
  H59      1.0000 0.19260  0.96540  0.90580  Biso   1.000  H
  H60      1.0000 0.80740  0.46540  0.59420  Biso   1.000  H
  C41      1.0000 0.05870  0.21292  0.86855  Biso   1.000  C
  C42      1.0000 0.94130  0.71292  0.63145  Biso   1.000  C
  C43      1.0000 0.94130  0.78708  0.13145  Biso   1.000  C
  C44      1.0000 0.05870  0.28708  0.36855  Biso   1.000  C
  C45      1.0000 0.34900  0.20812  0.86525  Biso   1.000  C
  C46      1.0000 0.65100  0.70812  0.63475  Biso   1.000  C
  C47      1.0000 0.65100  0.79188  0.13475  Biso   1.000  C
  C48      1.0000 0.34900  0.29188  0.36525  Biso   1.000  C
  F1       1.0000 0.46360  0.03009  0.14461  Biso   1.000  F
  F2       1.0000 0.53640  0.53009  0.35539  Biso   1.000  F
  F3       1.0000 0.53640  0.96991  0.85539  Biso   1.000  F
  F4       1.0000 0.46360  0.46991  0.64461  Biso   1.000  F
  F5       1.0000 0.18070  0.00713  0.14092  Biso   1.000  F
  F6       1.0000 0.81930  0.50713  0.35908  Biso   1.000  F
  F7       1.0000 0.81930  0.99287  0.85908  Biso   1.000  F
  F8       1.0000 0.18070  0.49287  0.64092  Biso   1.000  F
  F9       1.0000 0.29500  0.14517  0.20580  Biso   1.000  F
  F10      1.0000 0.70500  0.64517  0.29420  Biso   1.000  F
  F11      1.0000 0.70500  0.85483  0.79420  Biso   1.000  F
  F12      1.0000 0.29500  0.35483  0.70580  Biso   1.000  F
  F13      1.0000 0.29150  0.12924  0.05863  Biso   1.000  F
  F14      1.0000 0.70850  0.62924  0.44137  Biso   1.000  F
  F15      1.0000 0.70850  0.87076  0.94137  Biso   1.000  F
  F16      1.0000 0.29150  0.37076  0.55863  Biso   1.000  F
  B1       1.0000 0.30640  0.07920  0.13814  Biso   1.000  B
  B2       1.0000 0.69360  0.57920  0.36186  Biso   1.000  B
  B3       1.0000 0.69360  0.92080  0.86186  Biso   1.000  B
  B4       1.0000 0.30640  0.42080  0.63814  Biso   1.000  B
