data_image0
_cell_length_a       7.592
_cell_length_b       6.3812
_cell_length_c       23.954
_cell_angle_alpha    90
_cell_angle_beta     95.07
_cell_angle_gamma    90

_symmetry_space_group_name_H-M    "P 1"
_symmetry_int_tables_number       1

loop_
  _symmetry_equiv_pos_as_xyz
  'x, y, z'

loop_
  _atom_site_label
  _atom_site_occupancy
  _atom_site_fract_x
  _atom_site_fract_y
  _atom_site_fract_z
  _atom_site_thermal_displace_type
  _atom_site_B_iso_or_equiv
  _atom_site_type_symbol
  F1       1.0000 0.32060  0.61960  0.98781  Biso   1.000  F
  F2       1.0000 0.17940  0.11960  0.51219  Biso   1.000  F
  F3       1.0000 0.67940  0.38040  0.01219  Biso   1.000  F
  F4       1.0000 0.82060  0.88040  0.48781  Biso   1.000  F
  Cu1      1.0000 0.75276  0.68380  0.24834  Biso   1.000  Cu
  Cu2      1.0000 0.74724  0.18380  0.25166  Biso   1.000  Cu
  Cu3      1.0000 0.24724  0.31620  0.75166  Biso   1.000  Cu
  Cu4      1.0000 0.25276  0.81620  0.74834  Biso   1.000  Cu
  O1       1.0000 0.59850  0.75710  0.18140  Biso   1.000  O
  O2       1.0000 0.90150  0.25710  0.31860  Biso   1.000  O
  O3       1.0000 0.40150  0.24290  0.81860  Biso   1.000  O
  O4       1.0000 0.09850  0.74290  0.68140  Biso   1.000  O
  O5       1.0000 0.58800  0.10820  0.18661  Biso   1.000  O
  O6       1.0000 0.91200  0.60820  0.31339  Biso   1.000  O
  O7       1.0000 0.41200  0.89180  0.81339  Biso   1.000  O
  O8       1.0000 0.08800  0.39180  0.68661  Biso   1.000  O
  O9       1.0000 0.92230  0.43140  0.19740  Biso   1.000  O
  O10      1.0000 0.57770  0.93140  0.30260  Biso   1.000  O
  O11      1.0000 0.07770  0.56860  0.80260  Biso   1.000  O
  O12      1.0000 0.42230  0.06860  0.69740  Biso   1.000  O
  H1       1.0000 0.03600  0.43780  0.21250  Biso   1.000  H
  H2       1.0000 0.46400  0.93780  0.28750  Biso   1.000  H
  H3       1.0000 0.96400  0.56220  0.78750  Biso   1.000  H
  H4       1.0000 0.53600  0.06220  0.71250  Biso   1.000  H
  C1       1.0000 0.55210  0.93540  0.16319  Biso   1.000  C
  C2       1.0000 0.94790  0.43540  0.33681  Biso   1.000  C
  C3       1.0000 0.44790  0.06460  0.83681  Biso   1.000  C
  C4       1.0000 0.05210  0.56460  0.66319  Biso   1.000  C
  C5       1.0000 0.44140  0.94240  0.10784  Biso   1.000  C
  C6       1.0000 0.05860  0.44240  0.39216  Biso   1.000  C
  C7       1.0000 0.55860  0.05760  0.89216  Biso   1.000  C
  C8       1.0000 0.94140  0.55760  0.60784  Biso   1.000  C
  C9       1.0000 0.43070  0.76950  0.07320  Biso   1.000  C
  C10      1.0000 0.06930  0.26950  0.42680  Biso   1.000  C
  C11      1.0000 0.56930  0.23050  0.92680  Biso   1.000  C
  C12      1.0000 0.93070  0.73050  0.57320  Biso   1.000  C
  H5       1.0000 0.48810  0.64560  0.08430  Biso   1.000  H
  H6       1.0000 0.01190  0.14560  0.41570  Biso   1.000  H
  H7       1.0000 0.51190  0.35440  0.91570  Biso   1.000  H
  H8       1.0000 0.98810  0.85440  0.58430  Biso   1.000  H
  C13      1.0000 0.33430  0.78300  0.02212  Biso   1.000  C
  C14      1.0000 0.16570  0.28300  0.47788  Biso   1.000  C
  C15      1.0000 0.66570  0.21700  0.97788  Biso   1.000  C
  C16      1.0000 0.83430  0.71700  0.52212  Biso   1.000  C
  C17      1.0000 0.24430  0.96290  0.00494  Biso   1.000  C
  C18      1.0000 0.25570  0.46290  0.49506  Biso   1.000  C
  C19      1.0000 0.75570  0.03710  0.99506  Biso   1.000  C
  C20      1.0000 0.74430  0.53710  0.50494  Biso   1.000  C
  H9       1.0000 0.17840  0.96960  0.97040  Biso   1.000  H
  H10      1.0000 0.32160  0.46960  0.52960  Biso   1.000  H
  H11      1.0000 0.82160  0.03040  0.02960  Biso   1.000  H
  H12      1.0000 0.67840  0.53040  0.47040  Biso   1.000  H
  C21      1.0000 0.25520  0.12930  0.04000  Biso   1.000  C
  C22      1.0000 0.24480  0.62930  0.46000  Biso   1.000  C
  C23      1.0000 0.74480  0.87070  0.96000  Biso   1.000  C
  C24      1.0000 0.75520  0.37070  0.54000  Biso   1.000  C
  H13      1.0000 0.19450  0.25130  0.02920  Biso   1.000  H
  H14      1.0000 0.30550  0.75130  0.47080  Biso   1.000  H
  H15      1.0000 0.80550  0.74870  0.97080  Biso   1.000  H
  H16      1.0000 0.69450  0.24870  0.52920  Biso   1.000  H
  C25      1.0000 0.35270  0.12430  0.09111  Biso   1.000  C
  C26      1.0000 0.14730  0.62430  0.40889  Biso   1.000  C
  C27      1.0000 0.64730  0.87570  0.90889  Biso   1.000  C
  C28      1.0000 0.85270  0.37570  0.59111  Biso   1.000  C
  H17      1.0000 0.35900  0.24180  0.11420  Biso   1.000  H
  H18      1.0000 0.14100  0.74180  0.38580  Biso   1.000  H
  H19      1.0000 0.64100  0.75820  0.88580  Biso   1.000  H
  H20      1.0000 0.85900  0.25820  0.61420  Biso   1.000  H
  C29      1.0000 0.90590  0.41790  0.13718  Biso   1.000  C
  C30      1.0000 0.59410  0.91790  0.36282  Biso   1.000  C
  C31      1.0000 0.09410  0.58210  0.86282  Biso   1.000  C
  C32      1.0000 0.40590  0.08210  0.63718  Biso   1.000  C
  H21      1.0000 0.78200  0.40340  0.12400  Biso   1.000  H
  H22      1.0000 0.71800  0.90340  0.37600  Biso   1.000  H
  H23      1.0000 0.21800  0.59660  0.87600  Biso   1.000  H
  H24      1.0000 0.28200  0.09660  0.62400  Biso   1.000  H
  H25      1.0000 0.96740  0.29380  0.12580  Biso   1.000  H
  H26      1.0000 0.53260  0.79380  0.37420  Biso   1.000  H
  H27      1.0000 0.03260  0.70620  0.87420  Biso   1.000  H
  H28      1.0000 0.46740  0.20620  0.62580  Biso   1.000  H
  C33      1.0000 0.97980  0.60560  0.11070  Biso   1.000  C
  C34      1.0000 0.52020  0.10560  0.38930  Biso   1.000  C
  C35      1.0000 0.02020  0.39440  0.88930  Biso   1.000  C
  C36      1.0000 0.47980  0.89440  0.61070  Biso   1.000  C
  H29      1.0000 0.96630  0.59040  0.07060  Biso   1.000  H
  H30      1.0000 0.53370  0.09040  0.42940  Biso   1.000  H
  H31      1.0000 0.03370  0.40960  0.92940  Biso   1.000  H
  H32      1.0000 0.46630  0.90960  0.57060  Biso   1.000  H
  H33      1.0000 0.91780  0.72860  0.12120  Biso   1.000  H
  H34      1.0000 0.58220  0.22860  0.37880  Biso   1.000  H
  H35      1.0000 0.08220  0.27140  0.87880  Biso   1.000  H
  H36      1.0000 0.41780  0.77140  0.62120  Biso   1.000  H
  H37      1.0000 0.10310  0.61900  0.12310  Biso   1.000  H
  H38      1.0000 0.39690  0.11900  0.37690  Biso   1.000  H
  H39      1.0000 0.89690  0.38100  0.87690  Biso   1.000  H
  H40      1.0000 0.60310  0.88100  0.62310  Biso   1.000  H
  N1       1.0000 0.59960  0.43820  0.26195  Biso   1.000  N
  N2       1.0000 0.90040  0.93820  0.23805  Biso   1.000  N
  N3       1.0000 0.40040  0.56180  0.73805  Biso   1.000  N
  N4       1.0000 0.09960  0.06180  0.76195  Biso   1.000  N
  N5       1.0000 0.44320  0.43850  0.24725  Biso   1.000  N
  N6       1.0000 0.05680  0.93850  0.25275  Biso   1.000  N
  N7       1.0000 0.55680  0.56150  0.75275  Biso   1.000  N
  N8       1.0000 0.94320  0.06150  0.74725  Biso   1.000  N
  N9       1.0000 0.29540  0.43860  0.23430  Biso   1.000  N
  N10      1.0000 0.20460  0.93860  0.26570  Biso   1.000  N
  N11      1.0000 0.70460  0.56140  0.76570  Biso   1.000  N
  N12      1.0000 0.79540  0.06140  0.73430  Biso   1.000  N
  H41      1.0000 0.32940  0.66740  0.99840  Biso   1.000  H
  H42      1.0000 0.17060  0.16740  0.50160  Biso   1.000  H
  H43      1.0000 0.67060  0.33260  0.00160  Biso   1.000  H
  H44      1.0000 0.82940  0.83260  0.49840  Biso   1.000  H
  F5       1.0000 0.15000  0.27900  0.02580  Biso   1.000  F
  F6       1.0000 0.35000  0.77900  0.47420  Biso   1.000  F
  F7       1.0000 0.85000  0.72100  0.97420  Biso   1.000  F
  F8       1.0000 0.65000  0.22100  0.52580  Biso   1.000  F
