data_image0
_cell_length_a       7.2186
_cell_length_b       12.8491
_cell_length_c       13.7369
_cell_angle_alpha    90
_cell_angle_beta     98.938
_cell_angle_gamma    90

_symmetry_space_group_name_H-M    "P 1"
_symmetry_int_tables_number       1

loop_
  _symmetry_equiv_pos_as_xyz
  'x, y, z'

loop_
  _atom_site_label
  _atom_site_occupancy
  _atom_site_fract_x
  _atom_site_fract_y
  _atom_site_fract_z
  _atom_site_thermal_displace_type
  _atom_site_B_iso_or_equiv
  _atom_site_type_symbol
  S1       1.0000 0.75721  0.35897  0.53923  Biso   1.000  S
  S2       1.0000 0.74279  0.85897  0.96077  Biso   1.000  S
  S3       1.0000 0.24279  0.64103  0.46077  Biso   1.000  S
  S4       1.0000 0.25721  0.14103  0.03923  Biso   1.000  S
  O1       1.0000 0.90060  0.28600  0.51300  Biso   1.000  O
  O2       1.0000 0.59940  0.78600  0.98700  Biso   1.000  O
  O3       1.0000 0.09940  0.71400  0.48700  Biso   1.000  O
  O4       1.0000 0.40060  0.21400  0.01300  Biso   1.000  O
  O5       1.0000 0.62510  0.30540  0.59070  Biso   1.000  O
  O6       1.0000 0.87490  0.80540  0.90930  Biso   1.000  O
  O7       1.0000 0.37490  0.69460  0.40930  Biso   1.000  O
  O8       1.0000 0.12510  0.19460  0.09070  Biso   1.000  O
  O9       1.0000 0.85630  0.44240  0.60150  Biso   1.000  O
  O10      1.0000 0.64370  0.94240  0.89850  Biso   1.000  O
  O11      1.0000 0.14370  0.55760  0.39850  Biso   1.000  O
  O12      1.0000 0.35630  0.05760  0.10150  Biso   1.000  O
  O13      1.0000 0.65500  0.40740  0.44850  Biso   1.000  O
  O14      1.0000 0.84500  0.90740  0.05150  Biso   1.000  O
  O15      1.0000 0.34500  0.59260  0.55150  Biso   1.000  O
  O16      1.0000 0.15500  0.09260  0.94850  Biso   1.000  O
  Cu1      1.0000 0.26114  0.28956  0.56026  Biso   1.000  Cu
  Cu2      1.0000 0.23886  0.78956  0.93974  Biso   1.000  Cu
  Cu3      1.0000 0.73886  0.71044  0.43974  Biso   1.000  Cu
  Cu4      1.0000 0.76114  0.21044  0.06026  Biso   1.000  Cu
  O17      1.0000 0.28900  0.36600  0.43730  Biso   1.000  O
  O18      1.0000 0.21100  0.86600  0.06270  Biso   1.000  O
  O19      1.0000 0.71100  0.63400  0.56270  Biso   1.000  O
  O20      1.0000 0.78900  0.13400  0.93730  Biso   1.000  O
  H1       1.0000 0.39600  0.37200  0.43400  Biso   1.000  H
  H2       1.0000 0.10400  0.87200  0.06600  Biso   1.000  H
  H3       1.0000 0.60400  0.62800  0.56600  Biso   1.000  H
  H4       1.0000 0.89600  0.12800  0.93400  Biso   1.000  H
  H5       1.0000 0.23600  0.41800  0.41300  Biso   1.000  H
  H6       1.0000 0.26400  0.91800  0.08700  Biso   1.000  H
  H7       1.0000 0.76400  0.58200  0.58700  Biso   1.000  H
  H8       1.0000 0.73600  0.08200  0.91300  Biso   1.000  H
  O21      1.0000 0.22720  0.42010  0.63010  Biso   1.000  O
  O22      1.0000 0.27280  0.92010  0.86990  Biso   1.000  O
  O23      1.0000 0.77280  0.57990  0.36990  Biso   1.000  O
  O24      1.0000 0.72720  0.07990  0.13010  Biso   1.000  O
  H9       1.0000 0.10100  0.43200  0.62600  Biso   1.000  H
  H10      1.0000 0.39900  0.93200  0.87400  Biso   1.000  H
  H11      1.0000 0.89900  0.56800  0.37400  Biso   1.000  H
  H12      1.0000 0.60100  0.06800  0.12600  Biso   1.000  H
  H13      1.0000 0.26400  0.45800  0.60000  Biso   1.000  H
  H14      1.0000 0.23600  0.95800  0.90000  Biso   1.000  H
  H15      1.0000 0.73600  0.54200  0.40000  Biso   1.000  H
  H16      1.0000 0.76400  0.04200  0.10000  Biso   1.000  H
  N1       1.0000 0.27680  0.15330  0.49610  Biso   1.000  N
  N2       1.0000 0.22320  0.65330  0.00390  Biso   1.000  N
  N3       1.0000 0.72320  0.84670  0.50390  Biso   1.000  N
  N4       1.0000 0.77680  0.34670  0.99610  Biso   1.000  N
  C1       1.0000 0.30400  0.13740  0.40310  Biso   1.000  C
  C2       1.0000 0.19600  0.63740  0.09690  Biso   1.000  C
  C3       1.0000 0.69600  0.86260  0.59690  Biso   1.000  C
  C4       1.0000 0.80400  0.36260  0.90310  Biso   1.000  C
  H17      1.0000 0.32360  0.19460  0.36440  Biso   1.000  H
  H18      1.0000 0.17640  0.69460  0.13560  Biso   1.000  H
  H19      1.0000 0.67640  0.80540  0.63560  Biso   1.000  H
  H20      1.0000 0.82360  0.30540  0.86440  Biso   1.000  H
  C5       1.0000 0.30410  0.03990  0.36290  Biso   1.000  C
  C6       1.0000 0.19590  0.53990  0.13710  Biso   1.000  C
  C7       1.0000 0.69590  0.96010  0.63710  Biso   1.000  C
  C8       1.0000 0.80410  0.46010  0.86290  Biso   1.000  C
  H21      1.0000 0.32420  0.03120  0.29820  Biso   1.000  H
  H22      1.0000 0.17580  0.53120  0.20180  Biso   1.000  H
  H23      1.0000 0.67580  0.96880  0.70180  Biso   1.000  H
  H24      1.0000 0.82420  0.46880  0.79820  Biso   1.000  H
  C9       1.0000 0.27360  0.95420  0.42000  Biso   1.000  C
  C10      1.0000 0.22640  0.45420  0.08000  Biso   1.000  C
  C11      1.0000 0.72640  0.04580  0.58000  Biso   1.000  C
  C12      1.0000 0.77360  0.54580  0.92000  Biso   1.000  C
  H25      1.0000 0.27670  0.88730  0.39450  Biso   1.000  H
  H26      1.0000 0.22330  0.38730  0.10550  Biso   1.000  H
  H27      1.0000 0.72330  0.11270  0.60550  Biso   1.000  H
  H28      1.0000 0.77670  0.61270  0.89450  Biso   1.000  H
  C13      1.0000 0.23880  0.96920  0.51480  Biso   1.000  C
  C14      1.0000 0.26120  0.46920  0.98520  Biso   1.000  C
  C15      1.0000 0.76120  0.03080  0.48520  Biso   1.000  C
  C16      1.0000 0.73880  0.53080  0.01480  Biso   1.000  C
  C17      1.0000 0.24420  0.07230  0.55230  Biso   1.000  C
  C18      1.0000 0.25580  0.57230  0.94770  Biso   1.000  C
  C19      1.0000 0.75580  0.92770  0.44770  Biso   1.000  C
  C20      1.0000 0.74420  0.42770  0.05230  Biso   1.000  C
  O25      1.0000 0.19910  0.89400  0.57670  Biso   1.000  O
  O26      1.0000 0.30090  0.39400  0.92330  Biso   1.000  O
  O27      1.0000 0.80090  0.10600  0.42330  Biso   1.000  O
  O28      1.0000 0.69910  0.60600  0.07670  Biso   1.000  O
  H29      1.0000 0.19930  0.83730  0.54940  Biso   1.000  H
  H30      1.0000 0.30070  0.33730  0.95060  Biso   1.000  H
  H31      1.0000 0.80070  0.16270  0.45060  Biso   1.000  H
  H32      1.0000 0.69930  0.66270  0.04940  Biso   1.000  H
  C21      1.0000 0.20920  0.09310  0.65340  Biso   1.000  C
  C22      1.0000 0.29080  0.59310  0.84660  Biso   1.000  C
  C23      1.0000 0.79080  0.90690  0.34660  Biso   1.000  C
  C24      1.0000 0.70920  0.40690  0.15340  Biso   1.000  C
  H33      1.0000 0.28790  0.04770  0.69870  Biso   1.000  H
  H34      1.0000 0.21210  0.54770  0.80130  Biso   1.000  H
  H35      1.0000 0.71210  0.95230  0.30130  Biso   1.000  H
  H36      1.0000 0.78790  0.45230  0.19870  Biso   1.000  H
  H37      1.0000 0.07950  0.07690  0.65770  Biso   1.000  H
  H38      1.0000 0.42050  0.57690  0.84230  Biso   1.000  H
  H39      1.0000 0.92050  0.92310  0.34230  Biso   1.000  H
  H40      1.0000 0.57950  0.42310  0.15770  Biso   1.000  H
  N5       1.0000 0.24750  0.20290  0.68370  Biso   1.000  N
  N6       1.0000 0.25250  0.70290  0.81630  Biso   1.000  N
  N7       1.0000 0.75250  0.79710  0.31630  Biso   1.000  N
  N8       1.0000 0.74750  0.29710  0.18370  Biso   1.000  N
  C25      1.0000 0.42910  0.21110  0.75000  Biso   1.000  C
  C26      1.0000 0.07090  0.71110  0.75000  Biso   1.000  C
  C27      1.0000 0.57090  0.78890  0.25000  Biso   1.000  C
  C28      1.0000 0.92910  0.28890  0.25000  Biso   1.000  C
  H41      1.0000 0.45270  0.28250  0.76840  Biso   1.000  H
  H42      1.0000 0.04730  0.78250  0.73160  Biso   1.000  H
  H43      1.0000 0.54730  0.71750  0.23160  Biso   1.000  H
  H44      1.0000 0.95270  0.21750  0.26840  Biso   1.000  H
  H45      1.0000 0.52760  0.18590  0.71670  Biso   1.000  H
  H46      1.0000 0.97240  0.68590  0.78330  Biso   1.000  H
  H47      1.0000 0.47240  0.81410  0.28330  Biso   1.000  H
  H48      1.0000 0.02760  0.31410  0.21670  Biso   1.000  H
  H49      1.0000 0.42480  0.17010  0.80810  Biso   1.000  H
  H50      1.0000 0.07520  0.67010  0.69190  Biso   1.000  H
  H51      1.0000 0.57520  0.82990  0.19190  Biso   1.000  H
  H52      1.0000 0.92480  0.32990  0.30810  Biso   1.000  H
  C29      1.0000 0.09910  0.23940  0.74010  Biso   1.000  C
  C30      1.0000 0.40090  0.73940  0.75990  Biso   1.000  C
  C31      1.0000 0.90090  0.76060  0.25990  Biso   1.000  C
  C32      1.0000 0.59910  0.26060  0.24010  Biso   1.000  C
  H53      1.0000 0.12280  0.31050  0.75960  Biso   1.000  H
  H54      1.0000 0.37720  0.81050  0.74040  Biso   1.000  H
  H55      1.0000 0.87720  0.68950  0.24040  Biso   1.000  H
  H56      1.0000 0.62280  0.18950  0.25960  Biso   1.000  H
  H57      1.0000 0.10030  0.19690  0.79760  Biso   1.000  H
  H58      1.0000 0.39970  0.69690  0.70240  Biso   1.000  H
  H59      1.0000 0.89970  0.80310  0.20240  Biso   1.000  H
  H60      1.0000 0.60030  0.30310  0.29760  Biso   1.000  H
  H61      1.0000 0.97880  0.23440  0.69930  Biso   1.000  H
  H62      1.0000 0.52120  0.73440  0.80070  Biso   1.000  H
  H63      1.0000 0.02120  0.76560  0.30070  Biso   1.000  H
  H64      1.0000 0.47880  0.26560  0.19930  Biso   1.000  H
