data_image0
_cell_length_a       5.5199
_cell_length_b       5.6912
_cell_length_c       13.456
_cell_angle_alpha    83.015
_cell_angle_beta     85.442
_cell_angle_gamma    79.488

_symmetry_space_group_name_H-M    "P 1"
_symmetry_int_tables_number       1

loop_
  _symmetry_equiv_pos_as_xyz
  'x, y, z'

loop_
  _atom_site_label
  _atom_site_occupancy
  _atom_site_fract_x
  _atom_site_fract_y
  _atom_site_fract_z
  _atom_site_thermal_displace_type
  _atom_site_B_iso_or_equiv
  _atom_site_type_symbol
  Cu1      1.0000 0.15111  0.52564  0.90066  Biso   1.000  Cu
  Cu2      1.0000 0.84889  0.47436  0.09934  Biso   1.000  Cu
  Cu3      1.0000 0.00000  0.00000  0.00000  Biso   1.000  Cu
  Mo1      1.0000 0.43677  0.06860  0.14886  Biso   1.000  Mo
  Mo2      1.0000 0.56323  0.93140  0.85114  Biso   1.000  Mo
  O1       1.0000 0.12040  0.64530  0.03490  Biso   1.000  O
  O2       1.0000 0.87960  0.35470  0.96510  Biso   1.000  O
  H1       1.0000 0.26000  0.59300  0.05600  Biso   1.000  H
  H2       1.0000 0.74000  0.40700  0.94400  Biso   1.000  H
  O3       1.0000 0.12100  0.09030  0.11800  Biso   1.000  O
  O4       1.0000 0.87900  0.90970  0.88200  Biso   1.000  O
  O5       1.0000 0.63540  0.85680  0.08280  Biso   1.000  O
  O6       1.0000 0.36460  0.14320  0.91720  Biso   1.000  O
  O7       1.0000 0.46380  0.64570  0.87330  Biso   1.000  O
  O8       1.0000 0.53620  0.35430  0.12670  Biso   1.000  O
  O9       1.0000 0.45430  0.97390  0.27410  Biso   1.000  O
  O10      1.0000 0.54570  0.02610  0.72590  Biso   1.000  O
  N1       1.0000 0.10520  0.50550  0.75520  Biso   1.000  N
  N2       1.0000 0.89480  0.49450  0.24480  Biso   1.000  N
  C1       1.0000 0.93600  0.39900  0.72690  Biso   1.000  C
  C2       1.0000 0.06400  0.60100  0.27310  Biso   1.000  C
  H3       1.0000 0.83940  0.31940  0.77710  Biso   1.000  H
  H4       1.0000 0.16060  0.68060  0.22290  Biso   1.000  H
  C3       1.0000 0.24500  0.59900  0.68310  Biso   1.000  C
  C4       1.0000 0.75500  0.40100  0.31690  Biso   1.000  C
  H5       1.0000 0.38110  0.66170  0.70220  Biso   1.000  H
  H6       1.0000 0.61890  0.33830  0.29780  Biso   1.000  H
  C5       1.0000 0.89100  0.39400  0.62600  Biso   1.000  C
  C6       1.0000 0.10900  0.60600  0.37400  Biso   1.000  C
  H7       1.0000 0.76390  0.31510  0.61030  Biso   1.000  H
  H8       1.0000 0.23610  0.68490  0.38970  Biso   1.000  H
  C7       1.0000 0.21000  0.61500  0.58130  Biso   1.000  C
  C8       1.0000 0.79000  0.38500  0.41870  Biso   1.000  C
  H9       1.0000 0.30780  0.69810  0.53270  Biso   1.000  H
  H10      1.0000 0.69220  0.30190  0.46730  Biso   1.000  H
  C9       1.0000 0.02000  0.50000  0.55000  Biso   1.000  C
  C10      1.0000 0.98000  0.50000  0.45000  Biso   1.000  C
  C11      1.0000 0.88600  0.30800  0.41420  Biso   1.000  C
  C12      1.0000 0.11400  0.69200  0.58580  Biso   1.000  C
  H11      1.0000 0.85420  0.17810  0.46160  Biso   1.000  H
  H12      1.0000 0.14580  0.82190  0.53840  Biso   1.000  H
  C13      1.0000 0.03600  0.68100  0.37100  Biso   1.000  C
  C14      1.0000 0.96400  0.31900  0.62900  Biso   1.000  C
  H13      1.0000 0.10970  0.80790  0.38850  Biso   1.000  H
  H14      1.0000 0.89030  0.19210  0.61150  Biso   1.000  H
  C15      1.0000 0.84300  0.30600  0.31560  Biso   1.000  C
  C16      1.0000 0.15700  0.69400  0.68440  Biso   1.000  C
  H15      1.0000 0.77710  0.17790  0.29520  Biso   1.000  H
  H16      1.0000 0.22290  0.82210  0.70480  Biso   1.000  H
  C17      1.0000 0.98600  0.67500  0.27580  Biso   1.000  C
  C18      1.0000 0.01400  0.32500  0.72420  Biso   1.000  C
  H17      1.0000 0.01590  0.80440  0.22770  Biso   1.000  H
  H18      1.0000 0.98410  0.19560  0.77230  Biso   1.000  H
