data_image0
_cell_length_a       5.6757
_cell_length_b       5.7121
_cell_length_c       9.447
_cell_angle_alpha    95.284
_cell_angle_beta     91.557
_cell_angle_gamma    100.248

_symmetry_space_group_name_H-M    "P 1"
_symmetry_int_tables_number       1

loop_
  _symmetry_equiv_pos_as_xyz
  'x, y, z'

loop_
  _atom_site_label
  _atom_site_occupancy
  _atom_site_fract_x
  _atom_site_fract_y
  _atom_site_fract_z
  _atom_site_thermal_displace_type
  _atom_site_B_iso_or_equiv
  _atom_site_type_symbol
  Cu1      1.0000 0.87713  0.03551  0.14229  Biso   1.000  Cu
  Cu2      1.0000 0.12287  0.96449  0.85771  Biso   1.000  Cu
  Cu3      1.0000 0.00000  0.50000  0.00000  Biso   1.000  Cu
  Mo1      1.0000 0.52950  0.55650  0.81144  Biso   1.000  Mo
  Mo2      1.0000 0.47050  0.44350  0.18856  Biso   1.000  Mo
  O1       1.0000 0.87560  0.14810  0.94750  Biso   1.000  O
  O2       1.0000 0.12440  0.85190  0.05250  Biso   1.000  O
  H1       1.0000 0.74700  0.07100  0.91000  Biso   1.000  H
  H2       1.0000 0.25300  0.92900  0.09000  Biso   1.000  H
  O3       1.0000 0.85310  0.59780  0.83370  Biso   1.000  O
  O4       1.0000 0.14690  0.40220  0.16630  Biso   1.000  O
  O5       1.0000 0.36040  0.33890  0.90940  Biso   1.000  O
  O6       1.0000 0.63960  0.66110  0.09060  Biso   1.000  O
  O7       1.0000 0.57570  0.16650  0.17520  Biso   1.000  O
  O8       1.0000 0.42430  0.83350  0.82480  Biso   1.000  O
  O9       1.0000 0.46820  0.43580  0.63820  Biso   1.000  O
  O10      1.0000 0.53180  0.56420  0.36180  Biso   1.000  O
  N1       1.0000 0.90750  0.98170  0.35000  Biso   1.000  N
  N2       1.0000 0.09250  0.01830  0.65000  Biso   1.000  N
  H3       1.0000 0.76750  0.87800  0.36700  Biso   1.000  H
  H4       1.0000 0.23250  0.12200  0.63300  Biso   1.000  H
  C1       1.0000 0.10490  0.86080  0.39340  Biso   1.000  C
  C2       1.0000 0.89510  0.13920  0.60660  Biso   1.000  C
  H5       1.0000 0.26050  0.96530  0.38130  Biso   1.000  H
  H6       1.0000 0.73950  0.03470  0.61870  Biso   1.000  H
  H7       1.0000 0.09800  0.71090  0.33060  Biso   1.000  H
  H8       1.0000 0.90200  0.28910  0.66940  Biso   1.000  H
  C3       1.0000 0.91000  0.19750  0.45100  Biso   1.000  C
  C4       1.0000 0.09000  0.80250  0.54900  Biso   1.000  C
  H9       1.0000 0.77280  0.27380  0.42630  Biso   1.000  H
  H10      1.0000 0.22720  0.72620  0.57370  Biso   1.000  H
  H11      1.0000 0.05900  0.31350  0.44090  Biso   1.000  H
  H12      1.0000 0.94100  0.68650  0.55910  Biso   1.000  H
