data_image0
_cell_length_a       8.9761
_cell_length_b       16.731
_cell_length_c       8.0224
_cell_angle_alpha    90
_cell_angle_beta     114.437
_cell_angle_gamma    90

_symmetry_space_group_name_H-M    "P 1"
_symmetry_int_tables_number       1

loop_
  _symmetry_equiv_pos_as_xyz
  'x, y, z'

loop_
  _atom_site_label
  _atom_site_occupancy
  _atom_site_fract_x
  _atom_site_fract_y
  _atom_site_fract_z
  _atom_site_thermal_displace_type
  _atom_site_B_iso_or_equiv
  _atom_site_type_symbol
  Cu1      1.0000 0.33511  0.14787  0.47948  Biso   1.000  Cu
  Cu2      1.0000 0.66489  0.64787  0.02052  Biso   1.000  Cu
  Cu3      1.0000 0.66489  0.85213  0.52052  Biso   1.000  Cu
  Cu4      1.0000 0.33511  0.35213  0.97948  Biso   1.000  Cu
  N1       1.0000 0.99590  0.07148  0.23990  Biso   1.000  N
  N2       1.0000 0.00410  0.57148  0.26010  Biso   1.000  N
  N3       1.0000 0.00410  0.92852  0.76010  Biso   1.000  N
  N4       1.0000 0.99590  0.42852  0.73990  Biso   1.000  N
  N5       1.0000 0.29770  0.22201  0.68400  Biso   1.000  N
  N6       1.0000 0.70230  0.72201  0.81600  Biso   1.000  N
  N7       1.0000 0.70230  0.77799  0.31600  Biso   1.000  N
  N8       1.0000 0.29770  0.27799  0.18400  Biso   1.000  N
  N9       1.0000 0.41230  0.04893  0.64530  Biso   1.000  N
  N10      1.0000 0.58770  0.54893  0.85470  Biso   1.000  N
  N11      1.0000 0.58770  0.95107  0.35470  Biso   1.000  N
  N12      1.0000 0.41230  0.45107  0.14530  Biso   1.000  N
  N13      1.0000 0.58760  0.16230  0.59080  Biso   1.000  N
  N14      1.0000 0.41240  0.66230  0.90920  Biso   1.000  N
  N15      1.0000 0.41240  0.83770  0.40920  Biso   1.000  N
  N16      1.0000 0.58760  0.33770  0.09080  Biso   1.000  N
  C1       1.0000 0.11740  0.10050  0.33200  Biso   1.000  C
  C2       1.0000 0.88260  0.60050  0.16800  Biso   1.000  C
  C3       1.0000 0.88260  0.89950  0.66800  Biso   1.000  C
  C4       1.0000 0.11740  0.39950  0.83200  Biso   1.000  C
  C5       1.0000 0.30530  0.26843  0.79170  Biso   1.000  C
  C6       1.0000 0.69470  0.76843  0.70830  Biso   1.000  C
  C7       1.0000 0.69470  0.73157  0.20830  Biso   1.000  C
  C8       1.0000 0.30530  0.23157  0.29170  Biso   1.000  C
  C9       1.0000 0.31330  0.99321  0.66600  Biso   1.000  C
  C10      1.0000 0.68670  0.49321  0.83400  Biso   1.000  C
  C11      1.0000 0.68670  0.00679  0.33400  Biso   1.000  C
  C12      1.0000 0.31330  0.50679  0.16600  Biso   1.000  C
  H1       1.0000 0.19840  0.99890  0.59970  Biso   1.000  H
  H2       1.0000 0.80160  0.49890  0.90030  Biso   1.000  H
  H3       1.0000 0.80160  0.00110  0.40030  Biso   1.000  H
  H4       1.0000 0.19840  0.50110  0.09970  Biso   1.000  H
  C13      1.0000 0.37270  0.92791  0.78030  Biso   1.000  C
  C14      1.0000 0.62730  0.42791  0.71970  Biso   1.000  C
  C15      1.0000 0.62730  0.07209  0.21970  Biso   1.000  C
  C16      1.0000 0.37270  0.57209  0.28030  Biso   1.000  C
  H5       1.0000 0.29980  0.88920  0.79130  Biso   1.000  H
  H6       1.0000 0.70020  0.38920  0.70870  Biso   1.000  H
  H7       1.0000 0.70020  0.11080  0.20870  Biso   1.000  H
  H8       1.0000 0.29980  0.61080  0.29130  Biso   1.000  H
  C17      1.0000 0.53930  0.91994  0.87790  Biso   1.000  C
  C18      1.0000 0.46070  0.41994  0.62210  Biso   1.000  C
  C19      1.0000 0.46070  0.08006  0.12210  Biso   1.000  C
  C20      1.0000 0.53930  0.58006  0.37790  Biso   1.000  C
  H9       1.0000 0.58290  0.87540  0.95660  Biso   1.000  H
  H10      1.0000 0.41710  0.37540  0.54340  Biso   1.000  H
  H11      1.0000 0.41710  0.12460  0.04340  Biso   1.000  H
  H12      1.0000 0.58290  0.62460  0.45660  Biso   1.000  H
  C21      1.0000 0.64270  0.97780  0.85990  Biso   1.000  C
  C22      1.0000 0.35730  0.47780  0.64010  Biso   1.000  C
  C23      1.0000 0.35730  0.02220  0.14010  Biso   1.000  C
  C24      1.0000 0.64270  0.52220  0.35990  Biso   1.000  C
  H13      1.0000 0.75780  0.97380  0.92730  Biso   1.000  H
  H14      1.0000 0.24220  0.47380  0.57270  Biso   1.000  H
  H15      1.0000 0.24220  0.02620  0.07270  Biso   1.000  H
  H16      1.0000 0.75780  0.52620  0.42730  Biso   1.000  H
  C25      1.0000 0.84370  0.10666  0.79470  Biso   1.000  C
  C26      1.0000 0.15630  0.60666  0.70530  Biso   1.000  C
  C27      1.0000 0.15630  0.89334  0.20530  Biso   1.000  C
  C28      1.0000 0.84370  0.39334  0.29470  Biso   1.000  C
  H17      1.0000 0.90230  0.06590  0.87880  Biso   1.000  H
  H18      1.0000 0.09770  0.56590  0.62120  Biso   1.000  H
  H19      1.0000 0.09770  0.93410  0.12120  Biso   1.000  H
  H20      1.0000 0.90230  0.43410  0.37880  Biso   1.000  H
  C29      1.0000 0.92680  0.16837  0.75450  Biso   1.000  C
  C30      1.0000 0.07320  0.66837  0.74550  Biso   1.000  C
  C31      1.0000 0.07320  0.83163  0.24550  Biso   1.000  C
  C32      1.0000 0.92680  0.33163  0.25450  Biso   1.000  C
  H21      1.0000 0.04290  0.17050  0.81090  Biso   1.000  H
  H22      1.0000 0.95710  0.67050  0.68910  Biso   1.000  H
  H23      1.0000 0.95710  0.82950  0.18910  Biso   1.000  H
  H24      1.0000 0.04290  0.32950  0.31090  Biso   1.000  H
  C33      1.0000 0.83880  0.22640  0.63190  Biso   1.000  C
  C34      1.0000 0.16120  0.72640  0.86810  Biso   1.000  C
  C35      1.0000 0.16120  0.77360  0.36810  Biso   1.000  C
  C36      1.0000 0.83880  0.27360  0.13190  Biso   1.000  C
  H25      1.0000 0.89310  0.26910  0.60200  Biso   1.000  H
  H26      1.0000 0.10690  0.76910  0.89800  Biso   1.000  H
  H27      1.0000 0.10690  0.73090  0.39800  Biso   1.000  H
  H28      1.0000 0.89310  0.23090  0.10200  Biso   1.000  H
  C37      1.0000 0.67060  0.22142  0.55340  Biso   1.000  C
  C38      1.0000 0.32940  0.72142  0.94660  Biso   1.000  C
  C39      1.0000 0.32940  0.77858  0.44660  Biso   1.000  C
  C40      1.0000 0.67060  0.27858  0.05340  Biso   1.000  C
  H29      1.0000 0.61030  0.26170  0.46880  Biso   1.000  H
  H30      1.0000 0.38970  0.76170  0.03120  Biso   1.000  H
  H31      1.0000 0.38970  0.73830  0.53120  Biso   1.000  H
  H32      1.0000 0.61030  0.23830  0.96880  Biso   1.000  H
  C41      1.0000 0.57500  0.04131  0.74210  Biso   1.000  C
  C42      1.0000 0.42500  0.54131  0.75790  Biso   1.000  C
  C43      1.0000 0.42500  0.95869  0.25790  Biso   1.000  C
  C44      1.0000 0.57500  0.45869  0.24210  Biso   1.000  C
  C45      1.0000 0.67460  0.10520  0.71100  Biso   1.000  C
  C46      1.0000 0.32540  0.60520  0.78900  Biso   1.000  C
  C47      1.0000 0.32540  0.89480  0.28900  Biso   1.000  C
  C48      1.0000 0.67460  0.39480  0.21100  Biso   1.000  C
