data_image0
_cell_length_a       16.943
_cell_length_b       8.2744
_cell_length_c       9.2263
_cell_angle_alpha    90
_cell_angle_beta     107.671
_cell_angle_gamma    90

_symmetry_space_group_name_H-M    "P 1"
_symmetry_int_tables_number       1

loop_
  _symmetry_equiv_pos_as_xyz
  'x, y, z'

loop_
  _atom_site_label
  _atom_site_occupancy
  _atom_site_fract_x
  _atom_site_fract_y
  _atom_site_fract_z
  _atom_site_thermal_displace_type
  _atom_site_B_iso_or_equiv
  _atom_site_type_symbol
  Cu1      1.0000 0.67922  0.11672  0.03829  Biso   1.000  Cu
  Cu2      1.0000 0.32078  0.11672  0.96171  Biso   1.000  Cu
  Cu3      1.0000 0.17922  0.61672  0.03829  Biso   1.000  Cu
  Cu4      1.0000 0.82078  0.61672  0.96171  Biso   1.000  Cu
  C1       1.0000 0.73242  0.91000  0.04990  Biso   1.000  C
  C2       1.0000 0.26758  0.91000  0.95010  Biso   1.000  C
  C3       1.0000 0.23242  0.41000  0.04990  Biso   1.000  C
  C4       1.0000 0.76758  0.41000  0.95010  Biso   1.000  C
  N1       1.0000 0.76751  0.79320  0.03850  Biso   1.000  N
  N2       1.0000 0.23249  0.79320  0.96150  Biso   1.000  N
  N3       1.0000 0.26751  0.29320  0.03850  Biso   1.000  N
  N4       1.0000 0.73249  0.29320  0.96150  Biso   1.000  N
  P1       1.0000 0.91830  0.70991  0.86598  Biso   1.000  P
  P2       1.0000 0.08170  0.70991  0.13402  Biso   1.000  P
  P3       1.0000 0.41830  0.20991  0.86598  Biso   1.000  P
  P4       1.0000 0.58170  0.20991  0.13402  Biso   1.000  P
  C5       1.0000 0.00000  0.83210  0.00000  Biso   1.000  C
  C6       1.0000 0.50000  0.33210  0.00000  Biso   1.000  C
  C7       1.0000 0.02317  0.56530  0.20940  Biso   1.000  C
  C8       1.0000 0.97683  0.56530  0.79060  Biso   1.000  C
  C9       1.0000 0.52317  0.06530  0.20940  Biso   1.000  C
  C10      1.0000 0.47683  0.06530  0.79060  Biso   1.000  C
  C11      1.0000 0.04636  0.40360  0.21650  Biso   1.000  C
  C12      1.0000 0.95364  0.40360  0.78350  Biso   1.000  C
  C13      1.0000 0.54636  0.90360  0.21650  Biso   1.000  C
  C14      1.0000 0.45364  0.90360  0.78350  Biso   1.000  C
  C15      1.0000 0.00190  0.28730  0.26770  Biso   1.000  C
  C16      1.0000 0.99810  0.28730  0.73230  Biso   1.000  C
  C17      1.0000 0.50190  0.78730  0.26770  Biso   1.000  C
  C18      1.0000 0.49810  0.78730  0.73230  Biso   1.000  C
  C19      1.0000 0.93350  0.33260  0.31110  Biso   1.000  C
  C20      1.0000 0.06650  0.33260  0.68890  Biso   1.000  C
  C21      1.0000 0.43350  0.83260  0.31110  Biso   1.000  C
  C22      1.0000 0.56650  0.83260  0.68890  Biso   1.000  C
  C23      1.0000 0.90967  0.49360  0.30470  Biso   1.000  C
  C24      1.0000 0.09033  0.49360  0.69530  Biso   1.000  C
  C25      1.0000 0.40967  0.99360  0.30470  Biso   1.000  C
  C26      1.0000 0.59033  0.99360  0.69530  Biso   1.000  C
  C27      1.0000 0.95389  0.61070  0.25380  Biso   1.000  C
  C28      1.0000 0.04611  0.61070  0.74620  Biso   1.000  C
  C29      1.0000 0.45389  0.11070  0.25380  Biso   1.000  C
  C30      1.0000 0.54611  0.11070  0.74620  Biso   1.000  C
  C31      1.0000 0.12323  0.85750  0.28550  Biso   1.000  C
  C32      1.0000 0.87677  0.85750  0.71450  Biso   1.000  C
  C33      1.0000 0.62323  0.35750  0.28550  Biso   1.000  C
  C34      1.0000 0.37677  0.35750  0.71450  Biso   1.000  C
  C35      1.0000 0.11761  0.84110  0.43230  Biso   1.000  C
  C36      1.0000 0.88239  0.84110  0.56770  Biso   1.000  C
  C37      1.0000 0.61761  0.34110  0.43230  Biso   1.000  C
  C38      1.0000 0.38239  0.34110  0.56770  Biso   1.000  C
  C39      1.0000 0.15519  0.95460  0.54400  Biso   1.000  C
  C40      1.0000 0.84481  0.95460  0.45600  Biso   1.000  C
  C41      1.0000 0.65519  0.45460  0.54400  Biso   1.000  C
  C42      1.0000 0.34481  0.45460  0.45600  Biso   1.000  C
  C43      1.0000 0.19813  0.08480  0.50950  Biso   1.000  C
  C44      1.0000 0.80187  0.08480  0.49050  Biso   1.000  C
  C45      1.0000 0.69813  0.58480  0.50950  Biso   1.000  C
  C46      1.0000 0.30187  0.58480  0.49050  Biso   1.000  C
  C47      1.0000 0.20298  0.10310  0.36260  Biso   1.000  C
  C48      1.0000 0.79702  0.10310  0.63740  Biso   1.000  C
  C49      1.0000 0.70298  0.60310  0.36260  Biso   1.000  C
  C50      1.0000 0.29702  0.60310  0.63740  Biso   1.000  C
  C51      1.0000 0.16641  0.98940  0.25110  Biso   1.000  C
  C52      1.0000 0.83359  0.98940  0.74890  Biso   1.000  C
  C53      1.0000 0.66641  0.48940  0.25110  Biso   1.000  C
  C54      1.0000 0.33359  0.48940  0.74890  Biso   1.000  C
  H1       1.0000 0.97200  0.89700  0.04500  Biso   1.000  H
  H2       1.0000 0.02800  0.89700  0.95500  Biso   1.000  H
  H3       1.0000 0.47200  0.39700  0.04500  Biso   1.000  H
  H4       1.0000 0.52800  0.39700  0.95500  Biso   1.000  H
  H5       1.0000 0.08900  0.37400  0.18600  Biso   1.000  H
  H6       1.0000 0.91100  0.37400  0.81400  Biso   1.000  H
  H7       1.0000 0.58900  0.87400  0.18600  Biso   1.000  H
  H8       1.0000 0.41100  0.87400  0.81400  Biso   1.000  H
  H9       1.0000 0.01700  0.16900  0.26200  Biso   1.000  H
  H10      1.0000 0.98300  0.16900  0.73800  Biso   1.000  H
  H11      1.0000 0.51700  0.66900  0.26200  Biso   1.000  H
  H12      1.0000 0.48300  0.66900  0.73800  Biso   1.000  H
  H13      1.0000 0.90100  0.26200  0.34600  Biso   1.000  H
  H14      1.0000 0.09900  0.26200  0.65400  Biso   1.000  H
  H15      1.0000 0.40100  0.76200  0.34600  Biso   1.000  H
  H16      1.0000 0.59900  0.76200  0.65400  Biso   1.000  H
  H17      1.0000 0.85800  0.52000  0.33200  Biso   1.000  H
  H18      1.0000 0.14200  0.52000  0.66800  Biso   1.000  H
  H19      1.0000 0.35800  0.02000  0.33200  Biso   1.000  H
  H20      1.0000 0.64200  0.02000  0.66800  Biso   1.000  H
  H21      1.0000 0.93260  0.70800  0.25100  Biso   1.000  H
  H22      1.0000 0.06740  0.70800  0.74900  Biso   1.000  H
  H23      1.0000 0.43260  0.20800  0.25100  Biso   1.000  H
  H24      1.0000 0.56740  0.20800  0.74900  Biso   1.000  H
  H25      1.0000 0.09000  0.75200  0.45700  Biso   1.000  H
  H26      1.0000 0.91000  0.75200  0.54300  Biso   1.000  H
  H27      1.0000 0.59000  0.25200  0.45700  Biso   1.000  H
  H28      1.0000 0.41000  0.25200  0.54300  Biso   1.000  H
  H29      1.0000 0.15500  0.94000  0.64000  Biso   1.000  H
  H30      1.0000 0.84500  0.94000  0.36000  Biso   1.000  H
  H31      1.0000 0.65500  0.44000  0.64000  Biso   1.000  H
  H32      1.0000 0.34500  0.44000  0.36000  Biso   1.000  H
  H33      1.0000 0.22500  0.16100  0.58400  Biso   1.000  H
  H34      1.0000 0.77500  0.16100  0.41600  Biso   1.000  H
  H35      1.0000 0.72500  0.66100  0.58400  Biso   1.000  H
  H36      1.0000 0.27500  0.66100  0.41600  Biso   1.000  H
  H37      1.0000 0.23000  0.19700  0.33900  Biso   1.000  H
  H38      1.0000 0.77000  0.19700  0.66100  Biso   1.000  H
  H39      1.0000 0.73000  0.69700  0.33900  Biso   1.000  H
  H40      1.0000 0.27000  0.69700  0.66100  Biso   1.000  H
  H41      1.0000 0.16800  0.00600  0.15700  Biso   1.000  H
  H42      1.0000 0.83200  0.00600  0.84300  Biso   1.000  H
  H43      1.0000 0.66800  0.50600  0.15700  Biso   1.000  H
  H44      1.0000 0.33200  0.50600  0.84300  Biso   1.000  H
