data_image0
_cell_length_a       8.5214
_cell_length_b       15.3737
_cell_length_c       9.9845
_cell_angle_alpha    90
_cell_angle_beta     100.905
_cell_angle_gamma    90

_symmetry_space_group_name_H-M    "P 1"
_symmetry_int_tables_number       1

loop_
  _symmetry_equiv_pos_as_xyz
  'x, y, z'

loop_
  _atom_site_label
  _atom_site_occupancy
  _atom_site_fract_x
  _atom_site_fract_y
  _atom_site_fract_z
  _atom_site_thermal_displace_type
  _atom_site_B_iso_or_equiv
  _atom_site_type_symbol
  Cu1      1.0000 0.84328  0.55732  0.27803  Biso   1.000  Cu
  Cu2      1.0000 0.15672  0.05732  0.22197  Biso   1.000  Cu
  Cu3      1.0000 0.15672  0.44268  0.72197  Biso   1.000  Cu
  Cu4      1.0000 0.84328  0.94268  0.77803  Biso   1.000  Cu
  O1       1.0000 0.87190  0.44150  0.34200  Biso   1.000  O
  O2       1.0000 0.12810  0.94150  0.15800  Biso   1.000  O
  O3       1.0000 0.12810  0.55850  0.65800  Biso   1.000  O
  O4       1.0000 0.87190  0.05850  0.84200  Biso   1.000  O
  N1       1.0000 0.75090  0.59617  0.42870  Biso   1.000  N
  N2       1.0000 0.24910  0.09617  0.07130  Biso   1.000  N
  N3       1.0000 0.24910  0.40383  0.57130  Biso   1.000  N
  N4       1.0000 0.75090  0.90383  0.92870  Biso   1.000  N
  C1       1.0000 0.82570  0.40882  0.44920  Biso   1.000  C
  C2       1.0000 0.17430  0.90882  0.05080  Biso   1.000  C
  C3       1.0000 0.17430  0.59118  0.55080  Biso   1.000  C
  C4       1.0000 0.82570  0.09118  0.94920  Biso   1.000  C
  O5       1.0000 0.82010  0.67730  0.21878  Biso   1.000  O
  O6       1.0000 0.17990  0.17730  0.28122  Biso   1.000  O
  O7       1.0000 0.17990  0.32270  0.78122  Biso   1.000  O
  O8       1.0000 0.82010  0.82270  0.71878  Biso   1.000  O
  C5       1.0000 0.85440  0.31985  0.47840  Biso   1.000  C
  C6       1.0000 0.14560  0.81985  0.02160  Biso   1.000  C
  C7       1.0000 0.14560  0.68015  0.52160  Biso   1.000  C
  C8       1.0000 0.85440  0.18015  0.97840  Biso   1.000  C
  H1       1.0000 0.91330  0.28740  0.42860  Biso   1.000  H
  H2       1.0000 0.08670  0.78740  0.07140  Biso   1.000  H
  H3       1.0000 0.08670  0.71260  0.57140  Biso   1.000  H
  H4       1.0000 0.91330  0.21260  0.92860  Biso   1.000  H
  N5       1.0000 0.94480  0.52470  0.11650  Biso   1.000  N
  N6       1.0000 0.05520  0.02470  0.38350  Biso   1.000  N
  N7       1.0000 0.05520  0.47530  0.88350  Biso   1.000  N
  N8       1.0000 0.94480  0.97530  0.61650  Biso   1.000  N
  O9       1.0000 0.73490  0.80645  0.27450  Biso   1.000  O
  O10      1.0000 0.26510  0.30645  0.22550  Biso   1.000  O
  O11      1.0000 0.26510  0.19355  0.72550  Biso   1.000  O
  O12      1.0000 0.73490  0.69355  0.77450  Biso   1.000  O
  C9       1.0000 0.80750  0.28050  0.58770  Biso   1.000  C
  C10      1.0000 0.19250  0.78050  0.91230  Biso   1.000  C
  C11      1.0000 0.19250  0.71950  0.41230  Biso   1.000  C
  C12      1.0000 0.80750  0.21950  0.08770  Biso   1.000  C
  H5       1.0000 0.83480  0.21800  0.60670  Biso   1.000  H
  H6       1.0000 0.16520  0.71800  0.89330  Biso   1.000  H
  H7       1.0000 0.16520  0.78200  0.39330  Biso   1.000  H
  H8       1.0000 0.83480  0.28200  0.10670  Biso   1.000  H
  C13      1.0000 0.72810  0.32760  0.67400  Biso   1.000  C
  C14      1.0000 0.27190  0.82760  0.82600  Biso   1.000  C
  C15      1.0000 0.27190  0.67240  0.32600  Biso   1.000  C
  C16      1.0000 0.72810  0.17240  0.17400  Biso   1.000  C
  H9       1.0000 0.69270  0.29640  0.75340  Biso   1.000  H
  H10      1.0000 0.30730  0.79640  0.74660  Biso   1.000  H
  H11      1.0000 0.30730  0.70360  0.24660  Biso   1.000  H
  H12      1.0000 0.69270  0.20360  0.25340  Biso   1.000  H
  O13      1.0000 0.42400  0.47084  0.87070  Biso   1.000  O
  O14      1.0000 0.57600  0.97084  0.62930  Biso   1.000  O
  O15      1.0000 0.57600  0.52916  0.12930  Biso   1.000  O
  O16      1.0000 0.42400  0.02916  0.37070  Biso   1.000  O
  C17      1.0000 0.69790  0.41340  0.64820  Biso   1.000  C
  C18      1.0000 0.30210  0.91340  0.85180  Biso   1.000  C
  C19      1.0000 0.30210  0.58660  0.35180  Biso   1.000  C
  C20      1.0000 0.69790  0.08660  0.14820  Biso   1.000  C
  H13      1.0000 0.64030  0.44780  0.70480  Biso   1.000  H
  H14      1.0000 0.35970  0.94780  0.79520  Biso   1.000  H
  H15      1.0000 0.35970  0.55220  0.29520  Biso   1.000  H
  H16      1.0000 0.64030  0.05220  0.20480  Biso   1.000  H
  C21      1.0000 0.74630  0.45676  0.53870  Biso   1.000  C
  C22      1.0000 0.25370  0.95676  0.96130  Biso   1.000  C
  C23      1.0000 0.25370  0.54324  0.46130  Biso   1.000  C
  C24      1.0000 0.74630  0.04324  0.03870  Biso   1.000  C
  C25      1.0000 0.71480  0.54853  0.52360  Biso   1.000  C
  C26      1.0000 0.28520  0.04853  0.97640  Biso   1.000  C
  C27      1.0000 0.28520  0.45147  0.47640  Biso   1.000  C
  C28      1.0000 0.71480  0.95147  0.02360  Biso   1.000  C
  H17      1.0000 0.66160  0.57520  0.59340  Biso   1.000  H
  H18      1.0000 0.33840  0.07520  0.90660  Biso   1.000  H
  H19      1.0000 0.33840  0.42480  0.40660  Biso   1.000  H
  H20      1.0000 0.66160  0.92480  0.09340  Biso   1.000  H
  C29      1.0000 0.71380  0.68884  0.42290  Biso   1.000  C
  C30      1.0000 0.28620  0.18884  0.07710  Biso   1.000  C
  C31      1.0000 0.28620  0.31116  0.57710  Biso   1.000  C
  C32      1.0000 0.71380  0.81116  0.92290  Biso   1.000  C
  H21      1.0000 0.76760  0.72120  0.50350  Biso   1.000  H
  H22      1.0000 0.23240  0.22120  0.99650  Biso   1.000  H
  H23      1.0000 0.23240  0.27880  0.49650  Biso   1.000  H
  H24      1.0000 0.76760  0.77880  0.00350  Biso   1.000  H
  H25      1.0000 0.60820  0.69840  0.42520  Biso   1.000  H
  H26      1.0000 0.39180  0.19840  0.07480  Biso   1.000  H
  H27      1.0000 0.39180  0.30160  0.57480  Biso   1.000  H
  H28      1.0000 0.60820  0.80160  0.92520  Biso   1.000  H
  C33      1.0000 0.75910  0.72877  0.29590  Biso   1.000  C
  C34      1.0000 0.24090  0.22877  0.20410  Biso   1.000  C
  C35      1.0000 0.24090  0.27123  0.70410  Biso   1.000  C
  C36      1.0000 0.75910  0.77123  0.79590  Biso   1.000  C
  C37      1.0000 0.92450  0.57500  0.00540  Biso   1.000  C
  C38      1.0000 0.07550  0.07500  0.49460  Biso   1.000  C
  C39      1.0000 0.07550  0.42500  0.99460  Biso   1.000  C
  C40      1.0000 0.92450  0.92500  0.50540  Biso   1.000  C
  H29      1.0000 0.86320  0.62390  0.00400  Biso   1.000  H
  H30      1.0000 0.13680  0.12390  0.49600  Biso   1.000  H
  H31      1.0000 0.13680  0.37610  0.99600  Biso   1.000  H
  H32      1.0000 0.86320  0.87610  0.50400  Biso   1.000  H
  C41      1.0000 0.02140  0.44943  0.11060  Biso   1.000  C
  C42      1.0000 0.97860  0.94943  0.38940  Biso   1.000  C
  C43      1.0000 0.97860  0.55057  0.88940  Biso   1.000  C
  C44      1.0000 0.02140  0.05057  0.61060  Biso   1.000  C
  H33      1.0000 0.03470  0.41200  0.18950  Biso   1.000  H
  H34      1.0000 0.96530  0.91200  0.31050  Biso   1.000  H
  H35      1.0000 0.96530  0.58800  0.81050  Biso   1.000  H
  H36      1.0000 0.03470  0.08800  0.68950  Biso   1.000  H
  C45      1.0000 0.51940  0.41390  0.96390  Biso   1.000  C
  C46      1.0000 0.48060  0.91390  0.53610  Biso   1.000  C
  C47      1.0000 0.48060  0.58610  0.03610  Biso   1.000  C
  C48      1.0000 0.51940  0.08610  0.46390  Biso   1.000  C
  H37      1.0000 0.63430  0.41550  0.94540  Biso   1.000  H
  H38      1.0000 0.36570  0.91550  0.55460  Biso   1.000  H
  H39      1.0000 0.36570  0.58450  0.05460  Biso   1.000  H
  H40      1.0000 0.63430  0.08450  0.44540  Biso   1.000  H
  H41      1.0000 0.47960  0.35630  0.95460  Biso   1.000  H
  H42      1.0000 0.52040  0.85630  0.54540  Biso   1.000  H
  H43      1.0000 0.52040  0.64370  0.04540  Biso   1.000  H
  H44      1.0000 0.47960  0.14370  0.45460  Biso   1.000  H
  C49      1.0000 0.52180  0.44140  0.10860  Biso   1.000  C
  C50      1.0000 0.47820  0.94140  0.39140  Biso   1.000  C
  C51      1.0000 0.47820  0.55860  0.89140  Biso   1.000  C
  C52      1.0000 0.52180  0.05860  0.60860  Biso   1.000  C
  H45      1.0000 0.41360  0.43810  0.13570  Biso   1.000  H
  H46      1.0000 0.58640  0.93810  0.36430  Biso   1.000  H
  H47      1.0000 0.58640  0.56190  0.86430  Biso   1.000  H
  H48      1.0000 0.41360  0.06190  0.63570  Biso   1.000  H
  H49      1.0000 0.60070  0.39900  0.16290  Biso   1.000  H
  H50      1.0000 0.39930  0.89900  0.33710  Biso   1.000  H
  H51      1.0000 0.39930  0.60100  0.83710  Biso   1.000  H
  H52      1.0000 0.60070  0.10100  0.66290  Biso   1.000  H
