data_image0
_cell_length_a       15.826
_cell_length_b       18.166
_cell_length_c       14.159
_cell_angle_alpha    90
_cell_angle_beta     90
_cell_angle_gamma    90

_symmetry_space_group_name_H-M    "P 1"
_symmetry_int_tables_number       1

loop_
  _symmetry_equiv_pos_as_xyz
  'x, y, z'

loop_
  _atom_site_label
  _atom_site_occupancy
  _atom_site_fract_x
  _atom_site_fract_y
  _atom_site_fract_z
  _atom_site_thermal_displace_type
  _atom_site_B_iso_or_equiv
  _atom_site_type_symbol
  Cu1      1.0000 0.15155  0.31569  0.83406  Biso   1.000  Cu
  Cu2      1.0000 0.34845  0.18431  0.33406  Biso   1.000  Cu
  Cu3      1.0000 0.84845  0.31569  0.66594  Biso   1.000  Cu
  Cu4      1.0000 0.65155  0.18431  0.16594  Biso   1.000  Cu
  Cu5      1.0000 0.84845  0.68431  0.16594  Biso   1.000  Cu
  Cu6      1.0000 0.65155  0.81569  0.66594  Biso   1.000  Cu
  Cu7      1.0000 0.15155  0.68431  0.33406  Biso   1.000  Cu
  Cu8      1.0000 0.34845  0.81569  0.83406  Biso   1.000  Cu
  N1       1.0000 0.16380  0.22340  0.76160  Biso   1.000  N
  N2       1.0000 0.33620  0.27660  0.26160  Biso   1.000  N
  N3       1.0000 0.83620  0.22340  0.73840  Biso   1.000  N
  N4       1.0000 0.66380  0.27660  0.23840  Biso   1.000  N
  N5       1.0000 0.83620  0.77660  0.23840  Biso   1.000  N
  N6       1.0000 0.66380  0.72340  0.73840  Biso   1.000  N
  N7       1.0000 0.16380  0.77660  0.26160  Biso   1.000  N
  N8       1.0000 0.33620  0.72340  0.76160  Biso   1.000  N
  N9       1.0000 0.27220  0.33520  0.79020  Biso   1.000  N
  N10      1.0000 0.22780  0.16480  0.29020  Biso   1.000  N
  N11      1.0000 0.72780  0.33520  0.70980  Biso   1.000  N
  N12      1.0000 0.77220  0.16480  0.20980  Biso   1.000  N
  N13      1.0000 0.72780  0.66480  0.20980  Biso   1.000  N
  N14      1.0000 0.77220  0.83520  0.70980  Biso   1.000  N
  N15      1.0000 0.27220  0.66480  0.29020  Biso   1.000  N
  N16      1.0000 0.22780  0.83520  0.79020  Biso   1.000  N
  N17      1.0000 0.16500  0.41240  0.89630  Biso   1.000  N
  N18      1.0000 0.33500  0.08760  0.39630  Biso   1.000  N
  N19      1.0000 0.83500  0.41240  0.60370  Biso   1.000  N
  N20      1.0000 0.66500  0.08760  0.10370  Biso   1.000  N
  N21      1.0000 0.83500  0.58760  0.10370  Biso   1.000  N
  N22      1.0000 0.66500  0.91240  0.60370  Biso   1.000  N
  N23      1.0000 0.16500  0.58760  0.39630  Biso   1.000  N
  N24      1.0000 0.33500  0.91240  0.89630  Biso   1.000  N
  O1       1.0000 0.54120  0.20750  0.10890  Biso   1.000  O
  O2       1.0000 0.95880  0.29250  0.60890  Biso   1.000  O
  O3       1.0000 0.45880  0.20750  0.39110  Biso   1.000  O
  O4       1.0000 0.04120  0.29250  0.89110  Biso   1.000  O
  O5       1.0000 0.45880  0.79250  0.89110  Biso   1.000  O
  O6       1.0000 0.04120  0.70750  0.39110  Biso   1.000  O
  O7       1.0000 0.54120  0.79250  0.60890  Biso   1.000  O
  O8       1.0000 0.95880  0.70750  0.10890  Biso   1.000  O
  O9       1.0000 0.63150  0.25310  0.01090  Biso   1.000  O
  O10      1.0000 0.86850  0.24690  0.51090  Biso   1.000  O
  O11      1.0000 0.36850  0.25310  0.48910  Biso   1.000  O
  O12      1.0000 0.13150  0.24690  0.98910  Biso   1.000  O
  O13      1.0000 0.36850  0.74690  0.98910  Biso   1.000  O
  O14      1.0000 0.13150  0.75310  0.48910  Biso   1.000  O
  O15      1.0000 0.63150  0.74690  0.51090  Biso   1.000  O
  O16      1.0000 0.86850  0.75310  0.01090  Biso   1.000  O
  O17      1.0000 0.09310  0.37130  0.69490  Biso   1.000  O
  O18      1.0000 0.40690  0.12870  0.19490  Biso   1.000  O
  O19      1.0000 0.90690  0.37130  0.80510  Biso   1.000  O
  O20      1.0000 0.59310  0.12870  0.30510  Biso   1.000  O
  O21      1.0000 0.90690  0.62870  0.30510  Biso   1.000  O
  O22      1.0000 0.59310  0.87130  0.80510  Biso   1.000  O
  O23      1.0000 0.09310  0.62870  0.19490  Biso   1.000  O
  O24      1.0000 0.40690  0.87130  0.69490  Biso   1.000  O
  C1       1.0000 0.11530  0.16680  0.76580  Biso   1.000  C
  C2       1.0000 0.38470  0.33320  0.26580  Biso   1.000  C
  C3       1.0000 0.88470  0.16680  0.73420  Biso   1.000  C
  C4       1.0000 0.61530  0.33320  0.23420  Biso   1.000  C
  C5       1.0000 0.88470  0.83320  0.23420  Biso   1.000  C
  C6       1.0000 0.61530  0.66680  0.73420  Biso   1.000  C
  C7       1.0000 0.11530  0.83320  0.26580  Biso   1.000  C
  C8       1.0000 0.38470  0.66680  0.76580  Biso   1.000  C
  H1       1.0000 0.07170  0.16570  0.80990  Biso   1.000  H
  H2       1.0000 0.42830  0.33430  0.30990  Biso   1.000  H
  H3       1.0000 0.92830  0.16570  0.69010  Biso   1.000  H
  H4       1.0000 0.57170  0.33430  0.19010  Biso   1.000  H
  H5       1.0000 0.92830  0.83430  0.19010  Biso   1.000  H
  H6       1.0000 0.57170  0.66570  0.69010  Biso   1.000  H
  H7       1.0000 0.07170  0.83430  0.30990  Biso   1.000  H
  H8       1.0000 0.42830  0.66570  0.80990  Biso   1.000  H
  C9       1.0000 0.12720  0.10540  0.70400  Biso   1.000  C
  C10      1.0000 0.37280  0.39460  0.20400  Biso   1.000  C
  C11      1.0000 0.87280  0.10540  0.79600  Biso   1.000  C
  C12      1.0000 0.62720  0.39460  0.29600  Biso   1.000  C
  C13      1.0000 0.87280  0.89460  0.29600  Biso   1.000  C
  C14      1.0000 0.62720  0.60540  0.79600  Biso   1.000  C
  C15      1.0000 0.12720  0.89460  0.20400  Biso   1.000  C
  C16      1.0000 0.37280  0.60540  0.70400  Biso   1.000  C
  H9       1.0000 0.08940  0.06640  0.70100  Biso   1.000  H
  H10      1.0000 0.41060  0.43360  0.20100  Biso   1.000  H
  H11      1.0000 0.91060  0.06640  0.79900  Biso   1.000  H
  H12      1.0000 0.58940  0.43360  0.29900  Biso   1.000  H
  H13      1.0000 0.91060  0.93360  0.29900  Biso   1.000  H
  H14      1.0000 0.58940  0.56640  0.79900  Biso   1.000  H
  H15      1.0000 0.08940  0.93360  0.20100  Biso   1.000  H
  H16      1.0000 0.41060  0.56640  0.70100  Biso   1.000  H
  C17      1.0000 0.19820  0.10860  0.64980  Biso   1.000  C
  C18      1.0000 0.30180  0.39140  0.14980  Biso   1.000  C
  C19      1.0000 0.80180  0.10860  0.85020  Biso   1.000  C
  C20      1.0000 0.69820  0.39140  0.35020  Biso   1.000  C
  C21      1.0000 0.80180  0.89140  0.35020  Biso   1.000  C
  C22      1.0000 0.69820  0.60860  0.85020  Biso   1.000  C
  C23      1.0000 0.19820  0.89140  0.14980  Biso   1.000  C
  C24      1.0000 0.30180  0.60860  0.64980  Biso   1.000  C
  H17      1.0000 0.20980  0.06840  0.61120  Biso   1.000  H
  H18      1.0000 0.29020  0.43160  0.11120  Biso   1.000  H
  H19      1.0000 0.79020  0.06840  0.88880  Biso   1.000  H
  H20      1.0000 0.70980  0.43160  0.38880  Biso   1.000  H
  H21      1.0000 0.79020  0.93160  0.38880  Biso   1.000  H
  H22      1.0000 0.70980  0.56840  0.88880  Biso   1.000  H
  H23      1.0000 0.20980  0.93160  0.11120  Biso   1.000  H
  H24      1.0000 0.29020  0.56840  0.61120  Biso   1.000  H
  C25      1.0000 0.25360  0.16630  0.64760  Biso   1.000  C
  C26      1.0000 0.24640  0.33370  0.14760  Biso   1.000  C
  C27      1.0000 0.74640  0.16630  0.85240  Biso   1.000  C
  C28      1.0000 0.75360  0.33370  0.35240  Biso   1.000  C
  C29      1.0000 0.74640  0.83370  0.35240  Biso   1.000  C
  C30      1.0000 0.75360  0.66630  0.85240  Biso   1.000  C
  C31      1.0000 0.25360  0.83370  0.14760  Biso   1.000  C
  C32      1.0000 0.24640  0.66630  0.64760  Biso   1.000  C
  H25      1.0000 0.30180  0.16640  0.61000  Biso   1.000  H
  H26      1.0000 0.19820  0.33360  0.11000  Biso   1.000  H
  H27      1.0000 0.69820  0.16640  0.89000  Biso   1.000  H
  H28      1.0000 0.80180  0.33360  0.39000  Biso   1.000  H
  H29      1.0000 0.69820  0.83360  0.39000  Biso   1.000  H
  H30      1.0000 0.80180  0.66640  0.89000  Biso   1.000  H
  H31      1.0000 0.30180  0.83360  0.11000  Biso   1.000  H
  H32      1.0000 0.19820  0.66640  0.61000  Biso   1.000  H
  C33      1.0000 0.23260  0.22380  0.70520  Biso   1.000  C
  C34      1.0000 0.26740  0.27620  0.20520  Biso   1.000  C
  C35      1.0000 0.76740  0.22380  0.79480  Biso   1.000  C
  C36      1.0000 0.73260  0.27620  0.29480  Biso   1.000  C
  C37      1.0000 0.76740  0.77620  0.29480  Biso   1.000  C
  C38      1.0000 0.73260  0.72380  0.79480  Biso   1.000  C
  C39      1.0000 0.23260  0.77620  0.20520  Biso   1.000  C
  C40      1.0000 0.26740  0.72380  0.70520  Biso   1.000  C
  C41      1.0000 0.28160  0.29630  0.70360  Biso   1.000  C
  C42      1.0000 0.21840  0.20370  0.20360  Biso   1.000  C
  C43      1.0000 0.71840  0.29630  0.79640  Biso   1.000  C
  C44      1.0000 0.78160  0.20370  0.29640  Biso   1.000  C
  C45      1.0000 0.71840  0.70370  0.29640  Biso   1.000  C
  C46      1.0000 0.78160  0.79630  0.79640  Biso   1.000  C
  C47      1.0000 0.28160  0.70370  0.20360  Biso   1.000  C
  C48      1.0000 0.21840  0.79630  0.70360  Biso   1.000  C
  H33      1.0000 0.34100  0.28630  0.69260  Biso   1.000  H
  H34      1.0000 0.15900  0.21370  0.19260  Biso   1.000  H
  H35      1.0000 0.65900  0.28630  0.80740  Biso   1.000  H
  H36      1.0000 0.84100  0.21370  0.30740  Biso   1.000  H
  H37      1.0000 0.65900  0.71370  0.30740  Biso   1.000  H
  H38      1.0000 0.84100  0.78630  0.80740  Biso   1.000  H
  H39      1.0000 0.34100  0.71370  0.19260  Biso   1.000  H
  H40      1.0000 0.15900  0.78630  0.69260  Biso   1.000  H
  H41      1.0000 0.26120  0.32670  0.65200  Biso   1.000  H
  H42      1.0000 0.23880  0.17330  0.15200  Biso   1.000  H
  H43      1.0000 0.73880  0.32670  0.84800  Biso   1.000  H
  H44      1.0000 0.76120  0.17330  0.34800  Biso   1.000  H
  H45      1.0000 0.73880  0.67330  0.34800  Biso   1.000  H
  H46      1.0000 0.76120  0.82670  0.84800  Biso   1.000  H
  H47      1.0000 0.26120  0.67330  0.15200  Biso   1.000  H
  H48      1.0000 0.23880  0.82670  0.65200  Biso   1.000  H
  C49      1.0000 0.27370  0.41720  0.78260  Biso   1.000  C
  C50      1.0000 0.22630  0.08280  0.28260  Biso   1.000  C
  C51      1.0000 0.72630  0.41720  0.71740  Biso   1.000  C
  C52      1.0000 0.77370  0.08280  0.21740  Biso   1.000  C
  C53      1.0000 0.72630  0.58280  0.21740  Biso   1.000  C
  C54      1.0000 0.77370  0.91720  0.71740  Biso   1.000  C
  C55      1.0000 0.27370  0.58280  0.28260  Biso   1.000  C
  C56      1.0000 0.22630  0.91720  0.78260  Biso   1.000  C
  H49      1.0000 0.33190  0.43400  0.78230  Biso   1.000  H
  H50      1.0000 0.16810  0.06600  0.28230  Biso   1.000  H
  H51      1.0000 0.66810  0.43400  0.71770  Biso   1.000  H
  H52      1.0000 0.83190  0.06600  0.21770  Biso   1.000  H
  H53      1.0000 0.66810  0.56600  0.21770  Biso   1.000  H
  H54      1.0000 0.83190  0.93400  0.71770  Biso   1.000  H
  H55      1.0000 0.33190  0.56600  0.28230  Biso   1.000  H
  H56      1.0000 0.16810  0.93400  0.78230  Biso   1.000  H
  H57      1.0000 0.24790  0.43190  0.72340  Biso   1.000  H
  H58      1.0000 0.25210  0.06810  0.22340  Biso   1.000  H
  H59      1.0000 0.75210  0.43190  0.77660  Biso   1.000  H
  H60      1.0000 0.74790  0.06810  0.27660  Biso   1.000  H
  H61      1.0000 0.75210  0.56810  0.27660  Biso   1.000  H
  H62      1.0000 0.74790  0.93190  0.77660  Biso   1.000  H
  H63      1.0000 0.24790  0.56810  0.22340  Biso   1.000  H
  H64      1.0000 0.25210  0.93190  0.72340  Biso   1.000  H
  C57      1.0000 0.22850  0.45200  0.86090  Biso   1.000  C
  C58      1.0000 0.27150  0.04800  0.36090  Biso   1.000  C
  C59      1.0000 0.77150  0.45200  0.63910  Biso   1.000  C
  C60      1.0000 0.72850  0.04800  0.13910  Biso   1.000  C
  C61      1.0000 0.77150  0.54800  0.13910  Biso   1.000  C
  C62      1.0000 0.72850  0.95200  0.63910  Biso   1.000  C
  C63      1.0000 0.22850  0.54800  0.36090  Biso   1.000  C
  C64      1.0000 0.27150  0.95200  0.86090  Biso   1.000  C
  C65      1.0000 0.25320  0.51840  0.90030  Biso   1.000  C
  C66      1.0000 0.24680  0.98160  0.40030  Biso   1.000  C
  C67      1.0000 0.74680  0.51840  0.59970  Biso   1.000  C
  C68      1.0000 0.75320  0.98160  0.09970  Biso   1.000  C
  C69      1.0000 0.74680  0.48160  0.09970  Biso   1.000  C
  C70      1.0000 0.75320  0.01840  0.59970  Biso   1.000  C
  C71      1.0000 0.25320  0.48160  0.40030  Biso   1.000  C
  C72      1.0000 0.24680  0.01840  0.90030  Biso   1.000  C
  H65      1.0000 0.29980  0.54470  0.87870  Biso   1.000  H
  H66      1.0000 0.20020  0.95530  0.37870  Biso   1.000  H
  H67      1.0000 0.70020  0.54470  0.62130  Biso   1.000  H
  H68      1.0000 0.79980  0.95530  0.12130  Biso   1.000  H
  H69      1.0000 0.70020  0.45530  0.12130  Biso   1.000  H
  H70      1.0000 0.79980  0.04470  0.62130  Biso   1.000  H
  H71      1.0000 0.29980  0.45530  0.37870  Biso   1.000  H
  H72      1.0000 0.20020  0.04470  0.87870  Biso   1.000  H
  C73      1.0000 0.20410  0.54240  0.97320  Biso   1.000  C
  C74      1.0000 0.29590  0.95760  0.47320  Biso   1.000  C
  C75      1.0000 0.79590  0.54240  0.52680  Biso   1.000  C
  C76      1.0000 0.70410  0.95760  0.02680  Biso   1.000  C
  C77      1.0000 0.79590  0.45760  0.02680  Biso   1.000  C
  C78      1.0000 0.70410  0.04240  0.52680  Biso   1.000  C
  C79      1.0000 0.20410  0.45760  0.47320  Biso   1.000  C
  C80      1.0000 0.29590  0.04240  0.97320  Biso   1.000  C
  H73      1.0000 0.21970  0.58550  0.00410  Biso   1.000  H
  H74      1.0000 0.28030  0.91450  0.50410  Biso   1.000  H
  H75      1.0000 0.78030  0.58550  0.49590  Biso   1.000  H
  H76      1.0000 0.71970  0.91450  0.99590  Biso   1.000  H
  H77      1.0000 0.78030  0.41450  0.99590  Biso   1.000  H
  H78      1.0000 0.71970  0.08550  0.49590  Biso   1.000  H
  H79      1.0000 0.21970  0.41450  0.50410  Biso   1.000  H
  H80      1.0000 0.28030  0.08550  0.00410  Biso   1.000  H
  C81      1.0000 0.13300  0.50640  0.00350  Biso   1.000  C
  C82      1.0000 0.36700  0.99360  0.50350  Biso   1.000  C
  C83      1.0000 0.86700  0.50640  0.49650  Biso   1.000  C
  C84      1.0000 0.63300  0.99360  0.99650  Biso   1.000  C
  C85      1.0000 0.86700  0.49360  0.99650  Biso   1.000  C
  C86      1.0000 0.63300  0.00640  0.49650  Biso   1.000  C
  C87      1.0000 0.13300  0.49360  0.50350  Biso   1.000  C
  C88      1.0000 0.36700  0.00640  0.00350  Biso   1.000  C
  H81      1.0000 0.09710  0.52640  0.04880  Biso   1.000  H
  H82      1.0000 0.40290  0.97360  0.54880  Biso   1.000  H
  H83      1.0000 0.90290  0.52640  0.45120  Biso   1.000  H
  H84      1.0000 0.59710  0.97360  0.95120  Biso   1.000  H
  H85      1.0000 0.90290  0.47360  0.95120  Biso   1.000  H
  H86      1.0000 0.59710  0.02640  0.45120  Biso   1.000  H
  H87      1.0000 0.09710  0.47360  0.54880  Biso   1.000  H
  H88      1.0000 0.40290  0.02640  0.04880  Biso   1.000  H
  C89      1.0000 0.11830  0.44180  0.96480  Biso   1.000  C
  C90      1.0000 0.38170  0.05820  0.46480  Biso   1.000  C
  C91      1.0000 0.88170  0.44180  0.53520  Biso   1.000  C
  C92      1.0000 0.61830  0.05820  0.03520  Biso   1.000  C
  C93      1.0000 0.88170  0.55820  0.03520  Biso   1.000  C
  C94      1.0000 0.61830  0.94180  0.53520  Biso   1.000  C
  C95      1.0000 0.11830  0.55820  0.46480  Biso   1.000  C
  C96      1.0000 0.38170  0.94180  0.96480  Biso   1.000  C
  H89      1.0000 0.07230  0.41490  0.98670  Biso   1.000  H
  H90      1.0000 0.42770  0.08510  0.48670  Biso   1.000  H
  H91      1.0000 0.92770  0.41490  0.51330  Biso   1.000  H
  H92      1.0000 0.57230  0.08510  0.01330  Biso   1.000  H
  H93      1.0000 0.92770  0.58510  0.01330  Biso   1.000  H
  H94      1.0000 0.57230  0.91490  0.51330  Biso   1.000  H
  H95      1.0000 0.07230  0.58510  0.48670  Biso   1.000  H
  H96      1.0000 0.42770  0.91490  0.98670  Biso   1.000  H
  C97      1.0000 0.55930  0.23930  0.03040  Biso   1.000  C
  C98      1.0000 0.94070  0.26070  0.53040  Biso   1.000  C
  C99      1.0000 0.44070  0.23930  0.46960  Biso   1.000  C
  C100     1.0000 0.05930  0.26070  0.96960  Biso   1.000  C
  C101     1.0000 0.44070  0.76070  0.96960  Biso   1.000  C
  C102     1.0000 0.05930  0.73930  0.46960  Biso   1.000  C
  C103     1.0000 0.55930  0.76070  0.53040  Biso   1.000  C
  C104     1.0000 0.94070  0.73930  0.03040  Biso   1.000  C
  C105     1.0000 0.49080  0.25860  0.96280  Biso   1.000  C
  C106     1.0000 0.00920  0.24140  0.46280  Biso   1.000  C
  C107     1.0000 0.50920  0.25860  0.53720  Biso   1.000  C
  C108     1.0000 0.99080  0.24140  0.03720  Biso   1.000  C
  C109     1.0000 0.50920  0.74140  0.03720  Biso   1.000  C
  C110     1.0000 0.99080  0.75860  0.53720  Biso   1.000  C
  C111     1.0000 0.49080  0.74140  0.46280  Biso   1.000  C
  C112     1.0000 0.00920  0.75860  0.96280  Biso   1.000  C
  H97      1.0000 0.49140  0.31150  0.95340  Biso   1.000  H
  H98      1.0000 0.00860  0.18850  0.45340  Biso   1.000  H
  H99      1.0000 0.50860  0.31150  0.54660  Biso   1.000  H
  H100     1.0000 0.99140  0.18850  0.04660  Biso   1.000  H
  H101     1.0000 0.50860  0.68850  0.04660  Biso   1.000  H
  H102     1.0000 0.99140  0.81150  0.54660  Biso   1.000  H
  H103     1.0000 0.49140  0.68850  0.45340  Biso   1.000  H
  H104     1.0000 0.00860  0.81150  0.95340  Biso   1.000  H
  H105     1.0000 0.50360  0.23590  0.90250  Biso   1.000  H
  H106     1.0000 0.99640  0.26410  0.40250  Biso   1.000  H
  H107     1.0000 0.49640  0.23590  0.59750  Biso   1.000  H
  H108     1.0000 0.00360  0.26410  0.09750  Biso   1.000  H
  H109     1.0000 0.49640  0.76410  0.09750  Biso   1.000  H
  H110     1.0000 0.00360  0.73590  0.59750  Biso   1.000  H
  H111     1.0000 0.50360  0.76410  0.40250  Biso   1.000  H
  H112     1.0000 0.99640  0.73590  0.90250  Biso   1.000  H
  C113     1.0000 0.40500  0.23670  0.99070  Biso   1.000  C
  C114     1.0000 0.09500  0.26330  0.49070  Biso   1.000  C
  C115     1.0000 0.59500  0.23670  0.50930  Biso   1.000  C
  C116     1.0000 0.90500  0.26330  0.00930  Biso   1.000  C
  C117     1.0000 0.59500  0.76330  0.00930  Biso   1.000  C
  C118     1.0000 0.90500  0.73670  0.50930  Biso   1.000  C
  C119     1.0000 0.40500  0.76330  0.49070  Biso   1.000  C
  C120     1.0000 0.09500  0.73670  0.99070  Biso   1.000  C
  H113     1.0000 0.38550  0.26770  0.04200  Biso   1.000  H
  H114     1.0000 0.11450  0.23230  0.54200  Biso   1.000  H
  H115     1.0000 0.61450  0.26770  0.45800  Biso   1.000  H
  H116     1.0000 0.88550  0.23230  0.95800  Biso   1.000  H
  H117     1.0000 0.61450  0.73230  0.95800  Biso   1.000  H
  H118     1.0000 0.88550  0.76770  0.45800  Biso   1.000  H
  H119     1.0000 0.38550  0.73230  0.54200  Biso   1.000  H
  H120     1.0000 0.11450  0.76770  0.04200  Biso   1.000  H
  H121     1.0000 0.40530  0.18610  0.01250  Biso   1.000  H
  H122     1.0000 0.09470  0.31390  0.51250  Biso   1.000  H
  H123     1.0000 0.59470  0.18610  0.48750  Biso   1.000  H
  H124     1.0000 0.90530  0.31390  0.98750  Biso   1.000  H
  H125     1.0000 0.59470  0.81390  0.98750  Biso   1.000  H
  H126     1.0000 0.90530  0.68610  0.48750  Biso   1.000  H
  H127     1.0000 0.40530  0.81390  0.51250  Biso   1.000  H
  H128     1.0000 0.09470  0.68610  0.01250  Biso   1.000  H
  C121     1.0000 0.33790  0.24530  0.89520  Biso   1.000  C
  C122     1.0000 0.16210  0.25470  0.39520  Biso   1.000  C
  C123     1.0000 0.66210  0.24530  0.60480  Biso   1.000  C
  C124     1.0000 0.83790  0.25470  0.10480  Biso   1.000  C
  C125     1.0000 0.66210  0.75470  0.10480  Biso   1.000  C
  C126     1.0000 0.83790  0.74530  0.60480  Biso   1.000  C
  C127     1.0000 0.33790  0.75470  0.39520  Biso   1.000  C
  C128     1.0000 0.16210  0.74530  0.89520  Biso   1.000  C
  H129     1.0000 0.35490  0.21070  0.84660  Biso   1.000  H
  H130     1.0000 0.14510  0.28930  0.34660  Biso   1.000  H
  H131     1.0000 0.64510  0.21070  0.65340  Biso   1.000  H
  H132     1.0000 0.85490  0.28930  0.15340  Biso   1.000  H
  H133     1.0000 0.64510  0.78930  0.15340  Biso   1.000  H
  H134     1.0000 0.85490  0.71070  0.65340  Biso   1.000  H
  H135     1.0000 0.35490  0.78930  0.34660  Biso   1.000  H
  H136     1.0000 0.14510  0.71070  0.84660  Biso   1.000  H
  H137     1.0000 0.28100  0.23260  0.91470  Biso   1.000  H
  H138     1.0000 0.21900  0.26740  0.41470  Biso   1.000  H
  H139     1.0000 0.71900  0.23260  0.58530  Biso   1.000  H
  H140     1.0000 0.78100  0.26740  0.08530  Biso   1.000  H
  H141     1.0000 0.71900  0.76740  0.08530  Biso   1.000  H
  H142     1.0000 0.78100  0.73260  0.58530  Biso   1.000  H
  H143     1.0000 0.28100  0.76740  0.41470  Biso   1.000  H
  H144     1.0000 0.21900  0.73260  0.91470  Biso   1.000  H
  C129     1.0000 0.33780  0.31130  0.86020  Biso   1.000  C
  C130     1.0000 0.16220  0.18870  0.36020  Biso   1.000  C
  C131     1.0000 0.66220  0.31130  0.63980  Biso   1.000  C
  C132     1.0000 0.83780  0.18870  0.13980  Biso   1.000  C
  C133     1.0000 0.66220  0.68870  0.13980  Biso   1.000  C
  C134     1.0000 0.83780  0.81130  0.63980  Biso   1.000  C
  C135     1.0000 0.33780  0.68870  0.36020  Biso   1.000  C
  C136     1.0000 0.16220  0.81130  0.86020  Biso   1.000  C
  H145     1.0000 0.39240  0.31870  0.83060  Biso   1.000  H
  H146     1.0000 0.10760  0.18130  0.33060  Biso   1.000  H
  H147     1.0000 0.60760  0.31870  0.66940  Biso   1.000  H
  H148     1.0000 0.89240  0.18130  0.16940  Biso   1.000  H
  H149     1.0000 0.60760  0.68130  0.16940  Biso   1.000  H
  H150     1.0000 0.89240  0.81870  0.66940  Biso   1.000  H
  H151     1.0000 0.39240  0.68130  0.33060  Biso   1.000  H
  H152     1.0000 0.10760  0.81870  0.83060  Biso   1.000  H
  H153     1.0000 0.33480  0.34520  0.91300  Biso   1.000  H
  H154     1.0000 0.16520  0.15480  0.41300  Biso   1.000  H
  H155     1.0000 0.66520  0.34520  0.58700  Biso   1.000  H
  H156     1.0000 0.83480  0.15480  0.08700  Biso   1.000  H
  H157     1.0000 0.66520  0.65480  0.08700  Biso   1.000  H
  H158     1.0000 0.83480  0.84520  0.58700  Biso   1.000  H
  H159     1.0000 0.33480  0.65480  0.41300  Biso   1.000  H
  H160     1.0000 0.16520  0.84520  0.91300  Biso   1.000  H
  Cl1      1.0000 0.00000  0.43260  0.25000  Biso   1.000  Cl
  Cl2      1.0000 0.50000  0.06740  0.75000  Biso   1.000  Cl
  Cl3      1.0000 0.00000  0.56740  0.75000  Biso   1.000  Cl
  Cl4      1.0000 0.50000  0.93260  0.25000  Biso   1.000  Cl
  O25      1.0000 0.03000  0.48860  0.24200  Biso   1.000  O
  O26      1.0000 0.47000  0.01140  0.74200  Biso   1.000  O
  O27      1.0000 0.97000  0.48860  0.25800  Biso   1.000  O
  O28      1.0000 0.53000  0.01140  0.75800  Biso   1.000  O
  O29      1.0000 0.97000  0.51140  0.75800  Biso   1.000  O
  O30      1.0000 0.53000  0.98860  0.25800  Biso   1.000  O
  O31      1.0000 0.03000  0.51140  0.74200  Biso   1.000  O
  O32      1.0000 0.47000  0.98860  0.24200  Biso   1.000  O
  O33      1.0000 0.01000  0.38360  0.19800  Biso   1.000  O
  O34      1.0000 0.49000  0.11640  0.69800  Biso   1.000  O
  O35      1.0000 0.99000  0.38360  0.30200  Biso   1.000  O
  O36      1.0000 0.51000  0.11640  0.80200  Biso   1.000  O
  O37      1.0000 0.99000  0.61640  0.80200  Biso   1.000  O
  O38      1.0000 0.51000  0.88360  0.30200  Biso   1.000  O
  O39      1.0000 0.01000  0.61640  0.69800  Biso   1.000  O
  O40      1.0000 0.49000  0.88360  0.19800  Biso   1.000  O
  Cl5      1.0000 0.00000  0.00000  0.50000  Biso   1.000  Cl
  Cl6      1.0000 0.50000  0.50000  0.00000  Biso   1.000  Cl
  Cl7      1.0000 0.00000  0.00000  0.00000  Biso   1.000  Cl
  Cl8      1.0000 0.50000  0.50000  0.50000  Biso   1.000  Cl
  O41      1.0000 0.02680  0.97850  0.54870  Biso   1.000  O
  O42      1.0000 0.47320  0.52150  0.04870  Biso   1.000  O
  O43      1.0000 0.97320  0.97850  0.95130  Biso   1.000  O
  O44      1.0000 0.52680  0.52150  0.45130  Biso   1.000  O
  O45      1.0000 0.97320  0.02150  0.45130  Biso   1.000  O
  O46      1.0000 0.52680  0.47850  0.95130  Biso   1.000  O
  O47      1.0000 0.02680  0.02150  0.04870  Biso   1.000  O
  O48      1.0000 0.47320  0.47850  0.54870  Biso   1.000  O
  O49      1.0000 0.03100  0.03500  0.49600  Biso   1.000  O
  O50      1.0000 0.46900  0.46500  0.99600  Biso   1.000  O
  O51      1.0000 0.96900  0.03500  0.00400  Biso   1.000  O
  O52      1.0000 0.53100  0.46500  0.50400  Biso   1.000  O
  O53      1.0000 0.96900  0.96500  0.50400  Biso   1.000  O
  O54      1.0000 0.53100  0.53500  0.00400  Biso   1.000  O
  O55      1.0000 0.03100  0.96500  0.99600  Biso   1.000  O
  O56      1.0000 0.46900  0.53500  0.49600  Biso   1.000  O
