data_image0
_cell_length_a       16.2261
_cell_length_b       15.5944
_cell_length_c       16.3219
_cell_angle_alpha    90
_cell_angle_beta     90
_cell_angle_gamma    90

_symmetry_space_group_name_H-M    "P 1"
_symmetry_int_tables_number       1

loop_
  _symmetry_equiv_pos_as_xyz
  'x, y, z'

loop_
  _atom_site_label
  _atom_site_occupancy
  _atom_site_fract_x
  _atom_site_fract_y
  _atom_site_fract_z
  _atom_site_thermal_displace_type
  _atom_site_B_iso_or_equiv
  _atom_site_type_symbol
  Cu1      1.0000 0.01268  0.95672  0.34555  Biso   1.000  Cu
  Cu2      1.0000 0.48732  0.04328  0.84555  Biso   1.000  Cu
  Cu3      1.0000 0.98732  0.45672  0.15445  Biso   1.000  Cu
  Cu4      1.0000 0.51268  0.54328  0.65445  Biso   1.000  Cu
  Cu5      1.0000 0.98732  0.04328  0.65445  Biso   1.000  Cu
  Cu6      1.0000 0.51268  0.95672  0.15445  Biso   1.000  Cu
  Cu7      1.0000 0.01268  0.54328  0.84555  Biso   1.000  Cu
  Cu8      1.0000 0.48732  0.45672  0.34555  Biso   1.000  Cu
  Cl1      1.0000 0.69256  0.91200  0.53705  Biso   1.000  Cl
  Cl2      1.0000 0.80744  0.08800  0.03705  Biso   1.000  Cl
  Cl3      1.0000 0.30744  0.41200  0.96295  Biso   1.000  Cl
  Cl4      1.0000 0.19256  0.58800  0.46295  Biso   1.000  Cl
  Cl5      1.0000 0.30744  0.08800  0.46295  Biso   1.000  Cl
  Cl6      1.0000 0.19256  0.91200  0.96295  Biso   1.000  Cl
  Cl7      1.0000 0.69256  0.58800  0.03705  Biso   1.000  Cl
  Cl8      1.0000 0.80744  0.41200  0.53705  Biso   1.000  Cl
  O1       1.0000 0.97851  0.88145  0.43655  Biso   1.000  O
  O2       1.0000 0.52149  0.11855  0.93655  Biso   1.000  O
  O3       1.0000 0.02149  0.38145  0.06345  Biso   1.000  O
  O4       1.0000 0.47851  0.61855  0.56345  Biso   1.000  O
  O5       1.0000 0.02149  0.11855  0.56345  Biso   1.000  O
  O6       1.0000 0.47851  0.88145  0.06345  Biso   1.000  O
  O7       1.0000 0.97851  0.61855  0.93655  Biso   1.000  O
  O8       1.0000 0.52149  0.38145  0.43655  Biso   1.000  O
  O9       1.0000 0.93830  0.80670  0.32937  Biso   1.000  O
  O10      1.0000 0.56170  0.19330  0.82937  Biso   1.000  O
  O11      1.0000 0.06170  0.30670  0.17063  Biso   1.000  O
  O12      1.0000 0.43830  0.69330  0.67063  Biso   1.000  O
  O13      1.0000 0.06170  0.19330  0.67063  Biso   1.000  O
  O14      1.0000 0.43830  0.80670  0.17063  Biso   1.000  O
  O15      1.0000 0.93830  0.69330  0.82937  Biso   1.000  O
  O16      1.0000 0.56170  0.30670  0.32937  Biso   1.000  O
  O17      1.0000 0.74010  0.95710  0.59150  Biso   1.000  O
  O18      1.0000 0.75990  0.04290  0.09150  Biso   1.000  O
  O19      1.0000 0.25990  0.45710  0.90850  Biso   1.000  O
  O20      1.0000 0.24010  0.54290  0.40850  Biso   1.000  O
  O21      1.0000 0.25990  0.04290  0.40850  Biso   1.000  O
  O22      1.0000 0.24010  0.95710  0.90850  Biso   1.000  O
  O23      1.0000 0.74010  0.54290  0.09150  Biso   1.000  O
  O24      1.0000 0.75990  0.45710  0.59150  Biso   1.000  O
  O25      1.0000 0.74190  0.85870  0.49010  Biso   1.000  O
  O26      1.0000 0.75810  0.14130  0.99010  Biso   1.000  O
  O27      1.0000 0.25810  0.35870  0.00990  Biso   1.000  O
  O28      1.0000 0.24190  0.64130  0.50990  Biso   1.000  O
  O29      1.0000 0.25810  0.14130  0.50990  Biso   1.000  O
  O30      1.0000 0.24190  0.85870  0.00990  Biso   1.000  O
  O31      1.0000 0.74190  0.64130  0.99010  Biso   1.000  O
  O32      1.0000 0.75810  0.35870  0.49010  Biso   1.000  O
  O33      1.0000 0.65330  0.97240  0.48530  Biso   1.000  O
  O34      1.0000 0.84670  0.02760  0.98530  Biso   1.000  O
  O35      1.0000 0.34670  0.47240  0.01470  Biso   1.000  O
  O36      1.0000 0.15330  0.52760  0.51470  Biso   1.000  O
  O37      1.0000 0.34670  0.02760  0.51470  Biso   1.000  O
  O38      1.0000 0.15330  0.97240  0.01470  Biso   1.000  O
  O39      1.0000 0.65330  0.52760  0.98530  Biso   1.000  O
  O40      1.0000 0.84670  0.47240  0.48530  Biso   1.000  O
  O41      1.0000 0.63090  0.86500  0.57870  Biso   1.000  O
  O42      1.0000 0.86910  0.13500  0.07870  Biso   1.000  O
  O43      1.0000 0.36910  0.36500  0.92130  Biso   1.000  O
  O44      1.0000 0.13090  0.63500  0.42130  Biso   1.000  O
  O45      1.0000 0.36910  0.13500  0.42130  Biso   1.000  O
  O46      1.0000 0.13090  0.86500  0.92130  Biso   1.000  O
  O47      1.0000 0.63090  0.63500  0.07870  Biso   1.000  O
  O48      1.0000 0.86910  0.36500  0.57870  Biso   1.000  O
  N1       1.0000 0.91840  0.46069  0.85140  Biso   1.000  N
  N2       1.0000 0.58160  0.53931  0.35140  Biso   1.000  N
  N3       1.0000 0.08160  0.96069  0.64860  Biso   1.000  N
  N4       1.0000 0.41840  0.03931  0.14860  Biso   1.000  N
  N5       1.0000 0.08160  0.53931  0.14860  Biso   1.000  N
  N6       1.0000 0.41840  0.46069  0.64860  Biso   1.000  N
  N7       1.0000 0.91840  0.03931  0.35140  Biso   1.000  N
  N8       1.0000 0.58160  0.96069  0.85140  Biso   1.000  N
  N9       1.0000 0.03460  0.48310  0.73700  Biso   1.000  N
  N10      1.0000 0.46540  0.51690  0.23700  Biso   1.000  N
  N11      1.0000 0.96540  0.98310  0.76300  Biso   1.000  N
  N12      1.0000 0.53460  0.01690  0.26300  Biso   1.000  N
  N13      1.0000 0.96540  0.51690  0.26300  Biso   1.000  N
  N14      1.0000 0.53460  0.48310  0.76300  Biso   1.000  N
  N15      1.0000 0.03460  0.01690  0.23700  Biso   1.000  N
  N16      1.0000 0.46540  0.98310  0.73700  Biso   1.000  N
  N17      1.0000 0.12100  0.59930  0.82372  Biso   1.000  N
  N18      1.0000 0.37900  0.40070  0.32372  Biso   1.000  N
  N19      1.0000 0.87900  0.09930  0.67628  Biso   1.000  N
  N20      1.0000 0.62100  0.90070  0.17628  Biso   1.000  N
  N21      1.0000 0.87900  0.40070  0.17628  Biso   1.000  N
  N22      1.0000 0.62100  0.59930  0.67628  Biso   1.000  N
  N23      1.0000 0.12100  0.90070  0.32372  Biso   1.000  N
  N24      1.0000 0.37900  0.09930  0.82372  Biso   1.000  N
  O49      1.0000 0.08420  0.06280  0.41510  Biso   1.000  O
  O50      1.0000 0.41580  0.93720  0.91510  Biso   1.000  O
  O51      1.0000 0.91580  0.56280  0.08490  Biso   1.000  O
  O52      1.0000 0.58420  0.43720  0.58490  Biso   1.000  O
  O53      1.0000 0.91580  0.93720  0.58490  Biso   1.000  O
  O54      1.0000 0.58420  0.06280  0.08490  Biso   1.000  O
  O55      1.0000 0.08420  0.43720  0.91510  Biso   1.000  O
  O56      1.0000 0.41580  0.56280  0.41510  Biso   1.000  O
  H1       1.0000 0.06500  0.08000  0.45600  Biso   1.000  H
  H2       1.0000 0.43500  0.92000  0.95600  Biso   1.000  H
  H3       1.0000 0.93500  0.58000  0.04400  Biso   1.000  H
  H4       1.0000 0.56500  0.42000  0.54400  Biso   1.000  H
  H5       1.0000 0.93500  0.92000  0.54400  Biso   1.000  H
  H6       1.0000 0.56500  0.08000  0.04400  Biso   1.000  H
  H7       1.0000 0.06500  0.42000  0.95600  Biso   1.000  H
  H8       1.0000 0.43500  0.58000  0.45600  Biso   1.000  H
  H9       1.0000 0.15300  0.06400  0.42300  Biso   1.000  H
  H10      1.0000 0.34700  0.93600  0.92300  Biso   1.000  H
  H11      1.0000 0.84700  0.56400  0.07700  Biso   1.000  H
  H12      1.0000 0.65300  0.43600  0.57700  Biso   1.000  H
  H13      1.0000 0.84700  0.93600  0.57700  Biso   1.000  H
  H14      1.0000 0.65300  0.06400  0.07700  Biso   1.000  H
  H15      1.0000 0.15300  0.43600  0.92300  Biso   1.000  H
  H16      1.0000 0.34700  0.56400  0.42300  Biso   1.000  H
  C1       1.0000 0.85570  0.45940  0.90440  Biso   1.000  C
  C2       1.0000 0.64430  0.54060  0.40440  Biso   1.000  C
  C3       1.0000 0.14430  0.95940  0.59560  Biso   1.000  C
  C4       1.0000 0.35570  0.04060  0.09560  Biso   1.000  C
  C5       1.0000 0.14430  0.54060  0.09560  Biso   1.000  C
  C6       1.0000 0.35570  0.45940  0.59560  Biso   1.000  C
  C7       1.0000 0.85570  0.04060  0.40440  Biso   1.000  C
  C8       1.0000 0.64430  0.95940  0.90440  Biso   1.000  C
  H17      1.0000 0.84800  0.50650  0.93860  Biso   1.000  H
  H18      1.0000 0.65200  0.49350  0.43860  Biso   1.000  H
  H19      1.0000 0.15200  0.00650  0.56140  Biso   1.000  H
  H20      1.0000 0.34800  0.99350  0.06140  Biso   1.000  H
  H21      1.0000 0.15200  0.49350  0.06140  Biso   1.000  H
  H22      1.0000 0.34800  0.50650  0.56140  Biso   1.000  H
  H23      1.0000 0.84800  0.99350  0.43860  Biso   1.000  H
  H24      1.0000 0.65200  0.00650  0.93860  Biso   1.000  H
  C9       1.0000 0.80230  0.39190  0.91070  Biso   1.000  C
  C10      1.0000 0.69770  0.60810  0.41070  Biso   1.000  C
  C11      1.0000 0.19770  0.89190  0.58930  Biso   1.000  C
  C12      1.0000 0.30230  0.10810  0.08930  Biso   1.000  C
  C13      1.0000 0.19770  0.60810  0.08930  Biso   1.000  C
  C14      1.0000 0.30230  0.39190  0.58930  Biso   1.000  C
  C15      1.0000 0.80230  0.10810  0.41070  Biso   1.000  C
  C16      1.0000 0.69770  0.89190  0.91070  Biso   1.000  C
  H25      1.0000 0.75980  0.39280  0.94890  Biso   1.000  H
  H26      1.0000 0.74020  0.60720  0.44890  Biso   1.000  H
  H27      1.0000 0.24020  0.89280  0.55110  Biso   1.000  H
  H28      1.0000 0.25980  0.10720  0.05110  Biso   1.000  H
  H29      1.0000 0.24020  0.60720  0.05110  Biso   1.000  H
  H30      1.0000 0.25980  0.39280  0.55110  Biso   1.000  H
  H31      1.0000 0.75980  0.10720  0.44890  Biso   1.000  H
  H32      1.0000 0.74020  0.89280  0.94890  Biso   1.000  H
  C17      1.0000 0.81240  0.32330  0.85980  Biso   1.000  C
  C18      1.0000 0.68760  0.67670  0.35980  Biso   1.000  C
  C19      1.0000 0.18760  0.82330  0.64020  Biso   1.000  C
  C20      1.0000 0.31240  0.17670  0.14020  Biso   1.000  C
  C21      1.0000 0.18760  0.67670  0.14020  Biso   1.000  C
  C22      1.0000 0.31240  0.32330  0.64020  Biso   1.000  C
  C23      1.0000 0.81240  0.17670  0.35980  Biso   1.000  C
  C24      1.0000 0.68760  0.82330  0.85980  Biso   1.000  C
  H33      1.0000 0.77600  0.27730  0.86200  Biso   1.000  H
  H34      1.0000 0.72400  0.72270  0.36200  Biso   1.000  H
  H35      1.0000 0.22400  0.77730  0.63800  Biso   1.000  H
  H36      1.0000 0.27600  0.22270  0.13800  Biso   1.000  H
  H37      1.0000 0.22400  0.72270  0.13800  Biso   1.000  H
  H38      1.0000 0.27600  0.27730  0.63800  Biso   1.000  H
  H39      1.0000 0.77600  0.22270  0.36200  Biso   1.000  H
  H40      1.0000 0.72400  0.77730  0.86200  Biso   1.000  H
  C25      1.0000 0.87710  0.32260  0.80510  Biso   1.000  C
  C26      1.0000 0.62290  0.67740  0.30510  Biso   1.000  C
  C27      1.0000 0.12290  0.82260  0.69490  Biso   1.000  C
  C28      1.0000 0.37710  0.17740  0.19490  Biso   1.000  C
  C29      1.0000 0.12290  0.67740  0.19490  Biso   1.000  C
  C30      1.0000 0.37710  0.32260  0.69490  Biso   1.000  C
  C31      1.0000 0.87710  0.17740  0.30510  Biso   1.000  C
  C32      1.0000 0.62290  0.82260  0.80510  Biso   1.000  C
  H41      1.0000 0.88510  0.27580  0.77060  Biso   1.000  H
  H42      1.0000 0.61490  0.72420  0.27060  Biso   1.000  H
  H43      1.0000 0.11490  0.77580  0.72940  Biso   1.000  H
  H44      1.0000 0.38510  0.22420  0.22940  Biso   1.000  H
  H45      1.0000 0.11490  0.72420  0.22940  Biso   1.000  H
  H46      1.0000 0.38510  0.27580  0.72940  Biso   1.000  H
  H47      1.0000 0.88510  0.22420  0.27060  Biso   1.000  H
  H48      1.0000 0.61490  0.77580  0.77060  Biso   1.000  H
  C33      1.0000 0.92980  0.39170  0.80190  Biso   1.000  C
  C34      1.0000 0.57020  0.60830  0.30190  Biso   1.000  C
  C35      1.0000 0.07020  0.89170  0.69810  Biso   1.000  C
  C36      1.0000 0.42980  0.10830  0.19810  Biso   1.000  C
  C37      1.0000 0.07020  0.60830  0.19810  Biso   1.000  C
  C38      1.0000 0.42980  0.39170  0.69810  Biso   1.000  C
  C39      1.0000 0.92980  0.10830  0.30190  Biso   1.000  C
  C40      1.0000 0.57020  0.89170  0.80190  Biso   1.000  C
  C41      1.0000 0.00500  0.39310  0.74900  Biso   1.000  C
  C42      1.0000 0.49500  0.60690  0.24900  Biso   1.000  C
  C43      1.0000 0.99500  0.89310  0.75100  Biso   1.000  C
  C44      1.0000 0.50500  0.10690  0.25100  Biso   1.000  C
  C45      1.0000 0.99500  0.60690  0.25100  Biso   1.000  C
  C46      1.0000 0.50500  0.39310  0.75100  Biso   1.000  C
  C47      1.0000 0.00500  0.10690  0.24900  Biso   1.000  C
  C48      1.0000 0.49500  0.89310  0.74900  Biso   1.000  C
  H49      1.0000 0.04820  0.35930  0.77450  Biso   1.000  H
  H50      1.0000 0.45180  0.64070  0.27450  Biso   1.000  H
  H51      1.0000 0.95180  0.85930  0.72550  Biso   1.000  H
  H52      1.0000 0.54820  0.14070  0.22550  Biso   1.000  H
  H53      1.0000 0.95180  0.64070  0.22550  Biso   1.000  H
  H54      1.0000 0.54820  0.35930  0.72550  Biso   1.000  H
  H55      1.0000 0.04820  0.14070  0.27450  Biso   1.000  H
  H56      1.0000 0.45180  0.85930  0.77450  Biso   1.000  H
  H57      1.0000 0.99240  0.36760  0.69630  Biso   1.000  H
  H58      1.0000 0.50760  0.63240  0.19630  Biso   1.000  H
  H59      1.0000 0.00760  0.86760  0.80370  Biso   1.000  H
  H60      1.0000 0.49240  0.13240  0.30370  Biso   1.000  H
  H61      1.0000 0.00760  0.63240  0.30370  Biso   1.000  H
  H62      1.0000 0.49240  0.36760  0.80370  Biso   1.000  H
  H63      1.0000 0.99240  0.13240  0.19630  Biso   1.000  H
  H64      1.0000 0.50760  0.86760  0.69630  Biso   1.000  H
  C49      1.0000 0.12440  0.48630  0.72210  Biso   1.000  C
  C50      1.0000 0.37560  0.51370  0.22210  Biso   1.000  C
  C51      1.0000 0.87560  0.98630  0.77790  Biso   1.000  C
  C52      1.0000 0.62440  0.01370  0.27790  Biso   1.000  C
  C53      1.0000 0.87560  0.51370  0.27790  Biso   1.000  C
  C54      1.0000 0.62440  0.48630  0.77790  Biso   1.000  C
  C55      1.0000 0.12440  0.01370  0.22210  Biso   1.000  C
  C56      1.0000 0.37560  0.98630  0.72210  Biso   1.000  C
  H65      1.0000 0.15000  0.43540  0.74470  Biso   1.000  H
  H66      1.0000 0.35000  0.56460  0.24470  Biso   1.000  H
  H67      1.0000 0.85000  0.93540  0.75530  Biso   1.000  H
  H68      1.0000 0.65000  0.06460  0.25530  Biso   1.000  H
  H69      1.0000 0.85000  0.56460  0.25530  Biso   1.000  H
  H70      1.0000 0.65000  0.43540  0.75530  Biso   1.000  H
  H71      1.0000 0.15000  0.06460  0.24470  Biso   1.000  H
  H72      1.0000 0.35000  0.93540  0.74470  Biso   1.000  H
  H73      1.0000 0.13460  0.48690  0.66350  Biso   1.000  H
  H74      1.0000 0.36540  0.51310  0.16350  Biso   1.000  H
  H75      1.0000 0.86540  0.98690  0.83650  Biso   1.000  H
  H76      1.0000 0.63460  0.01310  0.33650  Biso   1.000  H
  H77      1.0000 0.86540  0.51310  0.33650  Biso   1.000  H
  H78      1.0000 0.63460  0.48690  0.83650  Biso   1.000  H
  H79      1.0000 0.13460  0.01310  0.16350  Biso   1.000  H
  H80      1.0000 0.36540  0.98690  0.66350  Biso   1.000  H
  C57      1.0000 0.16220  0.56480  0.76050  Biso   1.000  C
  C58      1.0000 0.33780  0.43520  0.26050  Biso   1.000  C
  C59      1.0000 0.83780  0.06480  0.73950  Biso   1.000  C
  C60      1.0000 0.66220  0.93520  0.23950  Biso   1.000  C
  C61      1.0000 0.83780  0.43520  0.23950  Biso   1.000  C
  C62      1.0000 0.66220  0.56480  0.73950  Biso   1.000  C
  C63      1.0000 0.16220  0.93520  0.26050  Biso   1.000  C
  C64      1.0000 0.33780  0.06480  0.76050  Biso   1.000  C
  C65      1.0000 0.23840  0.59750  0.73710  Biso   1.000  C
  C66      1.0000 0.26160  0.40250  0.23710  Biso   1.000  C
  C67      1.0000 0.76160  0.09750  0.76290  Biso   1.000  C
  C68      1.0000 0.73840  0.90250  0.26290  Biso   1.000  C
  C69      1.0000 0.76160  0.40250  0.26290  Biso   1.000  C
  C70      1.0000 0.73840  0.59750  0.76290  Biso   1.000  C
  C71      1.0000 0.23840  0.90250  0.23710  Biso   1.000  C
  C72      1.0000 0.26160  0.09750  0.73710  Biso   1.000  C
  H81      1.0000 0.26540  0.57520  0.69160  Biso   1.000  H
  H82      1.0000 0.23460  0.42480  0.19160  Biso   1.000  H
  H83      1.0000 0.73460  0.07520  0.80840  Biso   1.000  H
  H84      1.0000 0.76540  0.92480  0.30840  Biso   1.000  H
  H85      1.0000 0.73460  0.42480  0.30840  Biso   1.000  H
  H86      1.0000 0.76540  0.57520  0.80840  Biso   1.000  H
  H87      1.0000 0.26540  0.92480  0.19160  Biso   1.000  H
  H88      1.0000 0.23460  0.07520  0.69160  Biso   1.000  H
  C73      1.0000 0.27310  0.66190  0.78070  Biso   1.000  C
  C74      1.0000 0.22690  0.33810  0.28070  Biso   1.000  C
  C75      1.0000 0.72690  0.16190  0.71930  Biso   1.000  C
  C76      1.0000 0.77310  0.83810  0.21930  Biso   1.000  C
  C77      1.0000 0.72690  0.33810  0.21930  Biso   1.000  C
  C78      1.0000 0.77310  0.66190  0.71930  Biso   1.000  C
  C79      1.0000 0.27310  0.83810  0.28070  Biso   1.000  C
  C80      1.0000 0.22690  0.16190  0.78070  Biso   1.000  C
  H89      1.0000 0.32420  0.68370  0.76570  Biso   1.000  H
  H90      1.0000 0.17580  0.31630  0.26570  Biso   1.000  H
  H91      1.0000 0.67580  0.18370  0.73430  Biso   1.000  H
  H92      1.0000 0.82420  0.81630  0.23430  Biso   1.000  H
  H93      1.0000 0.67580  0.31630  0.23430  Biso   1.000  H
  H94      1.0000 0.82420  0.68370  0.73430  Biso   1.000  H
  H95      1.0000 0.32420  0.81630  0.26570  Biso   1.000  H
  H96      1.0000 0.17580  0.18370  0.76570  Biso   1.000  H
  C81      1.0000 0.23190  0.69510  0.84760  Biso   1.000  C
  C82      1.0000 0.26810  0.30490  0.34760  Biso   1.000  C
  C83      1.0000 0.76810  0.19510  0.65240  Biso   1.000  C
  C84      1.0000 0.73190  0.80490  0.15240  Biso   1.000  C
  C85      1.0000 0.76810  0.30490  0.15240  Biso   1.000  C
  C86      1.0000 0.73190  0.69510  0.65240  Biso   1.000  C
  C87      1.0000 0.23190  0.80490  0.34760  Biso   1.000  C
  C88      1.0000 0.26810  0.19510  0.84760  Biso   1.000  C
  H97      1.0000 0.25530  0.73850  0.87910  Biso   1.000  H
  H98      1.0000 0.24470  0.26150  0.37910  Biso   1.000  H
  H99      1.0000 0.74470  0.23850  0.62090  Biso   1.000  H
  H100     1.0000 0.75530  0.76150  0.12090  Biso   1.000  H
  H101     1.0000 0.74470  0.26150  0.12090  Biso   1.000  H
  H102     1.0000 0.75530  0.73850  0.62090  Biso   1.000  H
  H103     1.0000 0.25530  0.76150  0.37910  Biso   1.000  H
  H104     1.0000 0.24470  0.23850  0.87910  Biso   1.000  H
  C89      1.0000 0.15590  0.66240  0.86660  Biso   1.000  C
  C90      1.0000 0.34410  0.33760  0.36660  Biso   1.000  C
  C91      1.0000 0.84410  0.16240  0.63340  Biso   1.000  C
  C92      1.0000 0.65590  0.83760  0.13340  Biso   1.000  C
  C93      1.0000 0.84410  0.33760  0.13340  Biso   1.000  C
  C94      1.0000 0.65590  0.66240  0.63340  Biso   1.000  C
  C95      1.0000 0.15590  0.83760  0.36660  Biso   1.000  C
  C96      1.0000 0.34410  0.16240  0.86660  Biso   1.000  C
  H105     1.0000 0.12750  0.68510  0.91110  Biso   1.000  H
  H106     1.0000 0.37250  0.31490  0.41110  Biso   1.000  H
  H107     1.0000 0.87250  0.18510  0.58890  Biso   1.000  H
  H108     1.0000 0.62750  0.81490  0.08890  Biso   1.000  H
  H109     1.0000 0.87250  0.31490  0.08890  Biso   1.000  H
  H110     1.0000 0.62750  0.68510  0.58890  Biso   1.000  H
  H111     1.0000 0.12750  0.81490  0.41110  Biso   1.000  H
  H112     1.0000 0.37250  0.18510  0.91110  Biso   1.000  H
  C97      1.0000 0.94660  0.81370  0.40380  Biso   1.000  C
  C98      1.0000 0.55340  0.18630  0.90380  Biso   1.000  C
  C99      1.0000 0.05340  0.31370  0.09620  Biso   1.000  C
  C100     1.0000 0.44660  0.68630  0.59620  Biso   1.000  C
  C101     1.0000 0.05340  0.18630  0.59620  Biso   1.000  C
  C102     1.0000 0.44660  0.81370  0.09620  Biso   1.000  C
  C103     1.0000 0.94660  0.68630  0.90380  Biso   1.000  C
  C104     1.0000 0.55340  0.31370  0.40380  Biso   1.000  C
  C105     1.0000 0.92040  0.74220  0.46010  Biso   1.000  C
  C106     1.0000 0.57960  0.25780  0.96010  Biso   1.000  C
  C107     1.0000 0.07960  0.24220  0.03990  Biso   1.000  C
  C108     1.0000 0.42040  0.75780  0.53990  Biso   1.000  C
  C109     1.0000 0.07960  0.25780  0.53990  Biso   1.000  C
  C110     1.0000 0.42040  0.74220  0.03990  Biso   1.000  C
  C111     1.0000 0.92040  0.75780  0.96010  Biso   1.000  C
  C112     1.0000 0.57960  0.24220  0.46010  Biso   1.000  C
  H113     1.0000 0.91740  0.68990  0.42810  Biso   1.000  H
  H114     1.0000 0.58260  0.31010  0.92810  Biso   1.000  H
  H115     1.0000 0.08260  0.18990  0.07190  Biso   1.000  H
  H116     1.0000 0.41740  0.81010  0.57190  Biso   1.000  H
  H117     1.0000 0.08260  0.31010  0.57190  Biso   1.000  H
  H118     1.0000 0.41740  0.68990  0.07190  Biso   1.000  H
  H119     1.0000 0.91740  0.81010  0.92810  Biso   1.000  H
  H120     1.0000 0.58260  0.18990  0.42810  Biso   1.000  H
  H121     1.0000 0.86510  0.75480  0.47920  Biso   1.000  H
  H122     1.0000 0.63490  0.24520  0.97920  Biso   1.000  H
  H123     1.0000 0.13490  0.25480  0.02080  Biso   1.000  H
  H124     1.0000 0.36510  0.74520  0.52080  Biso   1.000  H
  H125     1.0000 0.13490  0.24520  0.52080  Biso   1.000  H
  H126     1.0000 0.36510  0.75480  0.02080  Biso   1.000  H
  H127     1.0000 0.86510  0.74520  0.97920  Biso   1.000  H
  H128     1.0000 0.63490  0.25480  0.47920  Biso   1.000  H
  C113     1.0000 0.97340  0.72470  0.53410  Biso   1.000  C
  C114     1.0000 0.52660  0.27530  0.03410  Biso   1.000  C
  C115     1.0000 0.02660  0.22470  0.96590  Biso   1.000  C
  C116     1.0000 0.47340  0.77530  0.46590  Biso   1.000  C
  C117     1.0000 0.02660  0.27530  0.46590  Biso   1.000  C
  C118     1.0000 0.47340  0.72470  0.96590  Biso   1.000  C
  C119     1.0000 0.97340  0.77530  0.03410  Biso   1.000  C
  C120     1.0000 0.52660  0.22470  0.53410  Biso   1.000  C
  H129     1.0000 0.96340  0.76840  0.57530  Biso   1.000  H
  H130     1.0000 0.53660  0.23160  0.07530  Biso   1.000  H
  H131     1.0000 0.03660  0.26840  0.92470  Biso   1.000  H
  H132     1.0000 0.46340  0.73160  0.42470  Biso   1.000  H
  H133     1.0000 0.03660  0.23160  0.42470  Biso   1.000  H
  H134     1.0000 0.46340  0.76840  0.92470  Biso   1.000  H
  H135     1.0000 0.96340  0.73160  0.07530  Biso   1.000  H
  H136     1.0000 0.53660  0.26840  0.57530  Biso   1.000  H
  H137     1.0000 0.03110  0.72770  0.51860  Biso   1.000  H
  H138     1.0000 0.46890  0.27230  0.01860  Biso   1.000  H
  H139     1.0000 0.96890  0.22770  0.98140  Biso   1.000  H
  H140     1.0000 0.53110  0.77230  0.48140  Biso   1.000  H
  H141     1.0000 0.96890  0.27230  0.48140  Biso   1.000  H
  H142     1.0000 0.53110  0.72770  0.98140  Biso   1.000  H
  H143     1.0000 0.03110  0.77230  0.01860  Biso   1.000  H
  H144     1.0000 0.46890  0.22770  0.51860  Biso   1.000  H
  C121     1.0000 0.95550  0.63720  0.57020  Biso   1.000  C
  C122     1.0000 0.54450  0.36280  0.07020  Biso   1.000  C
  C123     1.0000 0.04450  0.13720  0.92980  Biso   1.000  C
  C124     1.0000 0.45550  0.86280  0.42980  Biso   1.000  C
  C125     1.0000 0.04450  0.36280  0.42980  Biso   1.000  C
  C126     1.0000 0.45550  0.63720  0.92980  Biso   1.000  C
  C127     1.0000 0.95550  0.86280  0.07020  Biso   1.000  C
  C128     1.0000 0.54450  0.13720  0.57020  Biso   1.000  C
  H145     1.0000 0.96490  0.59430  0.52820  Biso   1.000  H
  H146     1.0000 0.53510  0.40570  0.02820  Biso   1.000  H
  H147     1.0000 0.03510  0.09430  0.97180  Biso   1.000  H
  H148     1.0000 0.46490  0.90570  0.47180  Biso   1.000  H
  H149     1.0000 0.03510  0.40570  0.47180  Biso   1.000  H
  H150     1.0000 0.46490  0.59430  0.97180  Biso   1.000  H
  H151     1.0000 0.96490  0.90570  0.02820  Biso   1.000  H
  H152     1.0000 0.53510  0.09430  0.52820  Biso   1.000  H
  H153     1.0000 0.89750  0.63480  0.58470  Biso   1.000  H
  H154     1.0000 0.60250  0.36520  0.08470  Biso   1.000  H
  H155     1.0000 0.10250  0.13480  0.91530  Biso   1.000  H
  H156     1.0000 0.39750  0.86520  0.41530  Biso   1.000  H
  H157     1.0000 0.10250  0.36520  0.41530  Biso   1.000  H
  H158     1.0000 0.39750  0.63480  0.91530  Biso   1.000  H
  H159     1.0000 0.89750  0.86520  0.08470  Biso   1.000  H
  H160     1.0000 0.60250  0.13480  0.58470  Biso   1.000  H
  C129     1.0000 0.00600  0.61300  0.64570  Biso   1.000  C
  C130     1.0000 0.49400  0.38700  0.14570  Biso   1.000  C
  C131     1.0000 0.99400  0.11300  0.85430  Biso   1.000  C
  C132     1.0000 0.50600  0.88700  0.35430  Biso   1.000  C
  C133     1.0000 0.99400  0.38700  0.35430  Biso   1.000  C
  C134     1.0000 0.50600  0.61300  0.85430  Biso   1.000  C
  C135     1.0000 0.00600  0.88700  0.14570  Biso   1.000  C
  C136     1.0000 0.49400  0.11300  0.64570  Biso   1.000  C
  H161     1.0000 0.99180  0.65010  0.69120  Biso   1.000  H
  H162     1.0000 0.50820  0.34990  0.19120  Biso   1.000  H
  H163     1.0000 0.00820  0.15010  0.80880  Biso   1.000  H
  H164     1.0000 0.49180  0.84990  0.30880  Biso   1.000  H
  H165     1.0000 0.00820  0.34990  0.30880  Biso   1.000  H
  H166     1.0000 0.49180  0.65010  0.80880  Biso   1.000  H
  H167     1.0000 0.99180  0.84990  0.19120  Biso   1.000  H
  H168     1.0000 0.50820  0.15010  0.69120  Biso   1.000  H
  H169     1.0000 0.06440  0.61960  0.63430  Biso   1.000  H
  H170     1.0000 0.43560  0.38040  0.13430  Biso   1.000  H
  H171     1.0000 0.93560  0.11960  0.86570  Biso   1.000  H
  H172     1.0000 0.56440  0.88040  0.36570  Biso   1.000  H
  H173     1.0000 0.93560  0.38040  0.36570  Biso   1.000  H
  H174     1.0000 0.56440  0.61960  0.86570  Biso   1.000  H
  H175     1.0000 0.06440  0.88040  0.13430  Biso   1.000  H
  H176     1.0000 0.43560  0.11960  0.63430  Biso   1.000  H
  C137     1.0000 0.98700  0.51980  0.66720  Biso   1.000  C
  C138     1.0000 0.51300  0.48020  0.16720  Biso   1.000  C
  C139     1.0000 0.01300  0.01980  0.83280  Biso   1.000  C
  C140     1.0000 0.48700  0.98020  0.33280  Biso   1.000  C
  C141     1.0000 0.01300  0.48020  0.33280  Biso   1.000  C
  C142     1.0000 0.48700  0.51980  0.83280  Biso   1.000  C
  C143     1.0000 0.98700  0.98020  0.16720  Biso   1.000  C
  C144     1.0000 0.51300  0.01980  0.66720  Biso   1.000  C
  H177     1.0000 0.99720  0.48480  0.61910  Biso   1.000  H
  H178     1.0000 0.50280  0.51520  0.11910  Biso   1.000  H
  H179     1.0000 0.00280  0.98480  0.88090  Biso   1.000  H
  H180     1.0000 0.49720  0.01520  0.38090  Biso   1.000  H
  H181     1.0000 0.00280  0.51520  0.38090  Biso   1.000  H
  H182     1.0000 0.49720  0.48480  0.88090  Biso   1.000  H
  H183     1.0000 0.99720  0.01520  0.11910  Biso   1.000  H
  H184     1.0000 0.50280  0.98480  0.61910  Biso   1.000  H
  H185     1.0000 0.92870  0.51530  0.67990  Biso   1.000  H
  H186     1.0000 0.57130  0.48470  0.17990  Biso   1.000  H
  H187     1.0000 0.07130  0.01530  0.82010  Biso   1.000  H
  H188     1.0000 0.42870  0.98470  0.32010  Biso   1.000  H
  H189     1.0000 0.07130  0.48470  0.32010  Biso   1.000  H
  H190     1.0000 0.42870  0.51530  0.82010  Biso   1.000  H
  H191     1.0000 0.92870  0.98470  0.17990  Biso   1.000  H
  H192     1.0000 0.57130  0.01530  0.67990  Biso   1.000  H
