data_image0
_cell_length_a       5.761
_cell_length_b       9.646
_cell_length_c       9.886
_cell_angle_alpha    83.99
_cell_angle_beta     77.81
_cell_angle_gamma    83.81

_symmetry_space_group_name_H-M    "P 1"
_symmetry_int_tables_number       1

loop_
  _symmetry_equiv_pos_as_xyz
  'x, y, z'

loop_
  _atom_site_label
  _atom_site_occupancy
  _atom_site_fract_x
  _atom_site_fract_y
  _atom_site_fract_z
  _atom_site_thermal_displace_type
  _atom_site_B_iso_or_equiv
  _atom_site_type_symbol
  Cu1      1.0000 0.21780  0.53360  0.05920  Biso   1.000  Cu
  Cu2      1.0000 0.78220  0.46640  0.94080  Biso   1.000  Cu
  N1       1.0000 0.48370  0.41210  0.11900  Biso   1.000  N
  N2       1.0000 0.51630  0.58790  0.88100  Biso   1.000  N
  N3       1.0000 0.48380  0.36650  0.23470  Biso   1.000  N
  N4       1.0000 0.51620  0.63350  0.76530  Biso   1.000  N
  N5       1.0000 0.49010  0.32030  0.34530  Biso   1.000  N
  N6       1.0000 0.50990  0.67970  0.65470  Biso   1.000  N
  N7       1.0000 0.95590  0.63060  0.97350  Biso   1.000  N
  N8       1.0000 0.04410  0.36940  0.02650  Biso   1.000  N
  N9       1.0000 0.94370  0.74550  0.91930  Biso   1.000  N
  N10      1.0000 0.05630  0.25450  0.08070  Biso   1.000  N
  N11      1.0000 0.92800  0.85420  0.86650  Biso   1.000  N
  N12      1.0000 0.07200  0.14580  0.13350  Biso   1.000  N
  N13      1.0000 0.21300  0.67920  0.19530  Biso   1.000  N
  N14      1.0000 0.78700  0.32080  0.80470  Biso   1.000  N
  C1       1.0000 0.05490  0.67620  0.31710  Biso   1.000  C
  C2       1.0000 0.94510  0.32380  0.68290  Biso   1.000  C
  C3       1.0000 0.06530  0.77000  0.41320  Biso   1.000  C
  C4       1.0000 0.93470  0.23000  0.58680  Biso   1.000  C
  C5       1.0000 0.23590  0.86220  0.38290  Biso   1.000  C
  C6       1.0000 0.76410  0.13780  0.61710  Biso   1.000  C
  C7       1.0000 0.39950  0.86690  0.25880  Biso   1.000  C
  C8       1.0000 0.60050  0.13310  0.74120  Biso   1.000  C
  C9       1.0000 0.37720  0.77170  0.16740  Biso   1.000  C
  C10      1.0000 0.62280  0.22830  0.83260  Biso   1.000  C
  C11      1.0000 0.87220  0.57290  0.33990  Biso   1.000  C
  C12      1.0000 0.12780  0.42710  0.66010  Biso   1.000  C
  C13      1.0000 0.59050  0.96870  0.21970  Biso   1.000  C
  C14      1.0000 0.40950  0.03130  0.78030  Biso   1.000  C
  H1       1.0000 0.95660  0.76970  0.49740  Biso   1.000  H
  H2       1.0000 0.04340  0.23030  0.50260  Biso   1.000  H
  H3       1.0000 0.24230  0.92400  0.44790  Biso   1.000  H
  H4       1.0000 0.75770  0.07600  0.55210  Biso   1.000  H
  H5       1.0000 0.48230  0.77240  0.08190  Biso   1.000  H
  H6       1.0000 0.51770  0.22760  0.91810  Biso   1.000  H
  H7       1.0000 0.76260  0.58610  0.42630  Biso   1.000  H
  H8       1.0000 0.23740  0.41390  0.57370  Biso   1.000  H
  H9       1.0000 0.94960  0.47970  0.34290  Biso   1.000  H
  H10      1.0000 0.05040  0.52030  0.65710  Biso   1.000  H
  H11      1.0000 0.78700  0.58640  0.26530  Biso   1.000  H
  H12      1.0000 0.21300  0.41360  0.73470  Biso   1.000  H
  H13      1.0000 0.70970  0.93680  0.14320  Biso   1.000  H
  H14      1.0000 0.29030  0.06320  0.85680  Biso   1.000  H
  H15      1.0000 0.66290  0.97410  0.29780  Biso   1.000  H
  H16      1.0000 0.33710  0.02590  0.70220  Biso   1.000  H
  H17      1.0000 0.51990  0.05950  0.19340  Biso   1.000  H
  H18      1.0000 0.48010  0.94050  0.80660  Biso   1.000  H
