data_image0
_cell_length_a       7.238
_cell_length_b       13.431
_cell_length_c       19.309
_cell_angle_alpha    90
_cell_angle_beta     90
_cell_angle_gamma    90

_symmetry_space_group_name_H-M    "P 1"
_symmetry_int_tables_number       1

loop_
  _symmetry_equiv_pos_as_xyz
  'x, y, z'

loop_
  _atom_site_label
  _atom_site_occupancy
  _atom_site_fract_x
  _atom_site_fract_y
  _atom_site_fract_z
  _atom_site_thermal_displace_type
  _atom_site_B_iso_or_equiv
  _atom_site_type_symbol
  Cu1      1.0000 0.94461  0.17692  0.03686  Biso   1.000  Cu
  Cu2      1.0000 0.55539  0.82308  0.53686  Biso   1.000  Cu
  Cu3      1.0000 0.44461  0.32308  0.96314  Biso   1.000  Cu
  Cu4      1.0000 0.05539  0.67692  0.46314  Biso   1.000  Cu
  O1       1.0000 0.88310  0.08840  0.96227  Biso   1.000  O
  O2       1.0000 0.61690  0.91160  0.46227  Biso   1.000  O
  O3       1.0000 0.38310  0.41160  0.03773  Biso   1.000  O
  O4       1.0000 0.11690  0.58840  0.53773  Biso   1.000  O
  N1       1.0000 0.98030  0.06800  0.10261  Biso   1.000  N
  N2       1.0000 0.51970  0.93200  0.60261  Biso   1.000  N
  N3       1.0000 0.48030  0.43200  0.89739  Biso   1.000  N
  N4       1.0000 0.01970  0.56800  0.39739  Biso   1.000  N
  O5       1.0000 0.88310  0.29810  0.98576  Biso   1.000  O
  O6       1.0000 0.61690  0.70190  0.48576  Biso   1.000  O
  O7       1.0000 0.38310  0.20190  0.01424  Biso   1.000  O
  O8       1.0000 0.11690  0.79810  0.51424  Biso   1.000  O
  C1       1.0000 0.94220  0.82820  0.01650  Biso   1.000  C
  C2       1.0000 0.55780  0.17180  0.51650  Biso   1.000  C
  C3       1.0000 0.44220  0.67180  0.98350  Biso   1.000  C
  C4       1.0000 0.05780  0.32820  0.48350  Biso   1.000  C
  H1       1.0000 0.96600  0.79100  0.05730  Biso   1.000  H
  H2       1.0000 0.53400  0.20900  0.55730  Biso   1.000  H
  H3       1.0000 0.46600  0.70900  0.94270  Biso   1.000  H
  H4       1.0000 0.03400  0.29100  0.44270  Biso   1.000  H
  C5       1.0000 0.93160  0.66680  0.95100  Biso   1.000  C
  C6       1.0000 0.56840  0.33320  0.45100  Biso   1.000  C
  C7       1.0000 0.43160  0.83320  0.04900  Biso   1.000  C
  C8       1.0000 0.06840  0.16680  0.54900  Biso   1.000  C
  C9       1.0000 0.89600  0.99240  0.96170  Biso   1.000  C
  C10      1.0000 0.60400  0.00760  0.46170  Biso   1.000  C
  C11      1.0000 0.39600  0.50760  0.03830  Biso   1.000  C
  C12      1.0000 0.10400  0.49240  0.53830  Biso   1.000  C
  C13      1.0000 0.93450  0.93250  0.02140  Biso   1.000  C
  C14      1.0000 0.56550  0.06750  0.52140  Biso   1.000  C
  C15      1.0000 0.43450  0.56750  0.97860  Biso   1.000  C
  C16      1.0000 0.06550  0.43250  0.47860  Biso   1.000  C
  C17      1.0000 0.88010  0.83400  0.89580  Biso   1.000  C
  C18      1.0000 0.61990  0.16600  0.39580  Biso   1.000  C
  C19      1.0000 0.38010  0.66600  0.10420  Biso   1.000  C
  C20      1.0000 0.11990  0.33400  0.60420  Biso   1.000  C
  H5       1.0000 0.86170  0.80180  0.85260  Biso   1.000  H
  H6       1.0000 0.63830  0.19820  0.35260  Biso   1.000  H
  H7       1.0000 0.36170  0.69820  0.14740  Biso   1.000  H
  H8       1.0000 0.13830  0.30180  0.64740  Biso   1.000  H
  C21      1.0000 0.96670  0.45800  0.94800  Biso   1.000  C
  C22      1.0000 0.53330  0.54200  0.44800  Biso   1.000  C
  C23      1.0000 0.46670  0.04200  0.05200  Biso   1.000  C
  C24      1.0000 0.03330  0.95800  0.55200  Biso   1.000  C
  C25      1.0000 0.99440  0.61810  0.89180  Biso   1.000  C
  C26      1.0000 0.50560  0.38190  0.39180  Biso   1.000  C
  C27      1.0000 0.49440  0.88190  0.10820  Biso   1.000  C
  C28      1.0000 0.00560  0.11810  0.60820  Biso   1.000  C
  H9       1.0000 0.02390  0.65580  0.85160  Biso   1.000  H
  H10      1.0000 0.47610  0.34420  0.35160  Biso   1.000  H
  H11      1.0000 0.52390  0.84420  0.14840  Biso   1.000  H
  H12      1.0000 0.97610  0.15580  0.64840  Biso   1.000  H
  C29      1.0000 0.01450  0.51580  0.89070  Biso   1.000  C
  C30      1.0000 0.48550  0.48420  0.39070  Biso   1.000  C
  C31      1.0000 0.51450  0.98420  0.10930  Biso   1.000  C
  C32      1.0000 0.98550  0.01580  0.60930  Biso   1.000  C
  H13      1.0000 0.06150  0.48430  0.85030  Biso   1.000  H
  H14      1.0000 0.43850  0.51570  0.35030  Biso   1.000  H
  H15      1.0000 0.56150  0.01570  0.14970  Biso   1.000  H
  H16      1.0000 0.93850  0.98430  0.64970  Biso   1.000  H
  C33      1.0000 0.00440  0.10570  0.17440  Biso   1.000  C
  C34      1.0000 0.49560  0.89430  0.67440  Biso   1.000  C
  C35      1.0000 0.50440  0.39430  0.82560  Biso   1.000  C
  C36      1.0000 0.99560  0.60570  0.32560  Biso   1.000  C
  H17      1.0000 0.88010  0.12620  0.19190  Biso   1.000  H
  H18      1.0000 0.61990  0.87380  0.69190  Biso   1.000  H
  H19      1.0000 0.38010  0.37380  0.80810  Biso   1.000  H
  H20      1.0000 0.11990  0.62620  0.30810  Biso   1.000  H
  C37      1.0000 0.88740  0.60870  0.00840  Biso   1.000  C
  C38      1.0000 0.61260  0.39130  0.50840  Biso   1.000  C
  C39      1.0000 0.38740  0.89130  0.99160  Biso   1.000  C
  C40      1.0000 0.11260  0.10870  0.49160  Biso   1.000  C
  H21      1.0000 0.84750  0.64000  0.05000  Biso   1.000  H
  H22      1.0000 0.65250  0.36000  0.55000  Biso   1.000  H
  H23      1.0000 0.34750  0.86000  0.95000  Biso   1.000  H
  H24      1.0000 0.15250  0.14000  0.45000  Biso   1.000  H
  C41      1.0000 0.91670  0.77690  0.95470  Biso   1.000  C
  C42      1.0000 0.58330  0.22310  0.45470  Biso   1.000  C
  C43      1.0000 0.41670  0.72310  0.04530  Biso   1.000  C
  C44      1.0000 0.08330  0.27690  0.54530  Biso   1.000  C
  C45      1.0000 0.87030  0.93770  0.89960  Biso   1.000  C
  C46      1.0000 0.62970  0.06230  0.39960  Biso   1.000  C
  C47      1.0000 0.37030  0.56230  0.10040  Biso   1.000  C
  C48      1.0000 0.12970  0.43770  0.60040  Biso   1.000  C
  O9       1.0000 0.11900  0.31080  0.91170  Biso   1.000  O
  O10      1.0000 0.38100  0.68920  0.41170  Biso   1.000  O
  O11      1.0000 0.61900  0.18920  0.08830  Biso   1.000  O
  O12      1.0000 0.88100  0.81080  0.58830  Biso   1.000  O
  N5       1.0000 0.04550  0.26210  0.11410  Biso   1.000  N
  N6       1.0000 0.45450  0.73790  0.61410  Biso   1.000  N
  N7       1.0000 0.54550  0.23790  0.88590  Biso   1.000  N
  N8       1.0000 0.95450  0.76210  0.38590  Biso   1.000  N
  H25      1.0000 0.95430  0.30320  0.12380  Biso   1.000  H
  H26      1.0000 0.54570  0.69680  0.62380  Biso   1.000  H
  H27      1.0000 0.45430  0.19680  0.87620  Biso   1.000  H
  H28      1.0000 0.04570  0.80320  0.37620  Biso   1.000  H
  H29      1.0000 0.11820  0.30190  0.09030  Biso   1.000  H
  H30      1.0000 0.38180  0.69810  0.59030  Biso   1.000  H
  H31      1.0000 0.61820  0.19810  0.90970  Biso   1.000  H
  H32      1.0000 0.88180  0.80190  0.40970  Biso   1.000  H
  C49      1.0000 0.99360  0.34670  0.94730  Biso   1.000  C
  C50      1.0000 0.50640  0.65330  0.44730  Biso   1.000  C
  C51      1.0000 0.49360  0.15330  0.05270  Biso   1.000  C
  C52      1.0000 0.00640  0.84670  0.55270  Biso   1.000  C
  C53      1.0000 0.22260  0.17950  0.29170  Biso   1.000  C
  C54      1.0000 0.27740  0.82050  0.79170  Biso   1.000  C
  C55      1.0000 0.72260  0.32050  0.70830  Biso   1.000  C
  C56      1.0000 0.77740  0.67950  0.20830  Biso   1.000  C
  H33      1.0000 0.22840  0.21210  0.33760  Biso   1.000  H
  H34      1.0000 0.27160  0.78790  0.83760  Biso   1.000  H
  H35      1.0000 0.72840  0.28790  0.66240  Biso   1.000  H
  H36      1.0000 0.77160  0.71210  0.16240  Biso   1.000  H
  H37      1.0000 0.35050  0.16430  0.27690  Biso   1.000  H
  H38      1.0000 0.14950  0.83570  0.77690  Biso   1.000  H
  H39      1.0000 0.85050  0.33570  0.72310  Biso   1.000  H
  H40      1.0000 0.64950  0.66430  0.22310  Biso   1.000  H
  C57      1.0000 0.90100  0.50560  0.00570  Biso   1.000  C
  C58      1.0000 0.59900  0.49440  0.50570  Biso   1.000  C
  C59      1.0000 0.40100  0.99440  0.99430  Biso   1.000  C
  C60      1.0000 0.09900  0.00560  0.49430  Biso   1.000  C
  H41      1.0000 0.86400  0.46730  0.04460  Biso   1.000  H
  H42      1.0000 0.63600  0.53270  0.54460  Biso   1.000  H
  H43      1.0000 0.36400  0.03270  0.95540  Biso   1.000  H
  H44      1.0000 0.13600  0.96730  0.45540  Biso   1.000  H
  C61      1.0000 0.08520  0.03380  0.22610  Biso   1.000  C
  C62      1.0000 0.41480  0.96620  0.72610  Biso   1.000  C
  C63      1.0000 0.58520  0.46620  0.77390  Biso   1.000  C
  C64      1.0000 0.91480  0.53380  0.27390  Biso   1.000  C
  H45      1.0000 0.20570  0.00940  0.20870  Biso   1.000  H
  H46      1.0000 0.29430  0.99060  0.70870  Biso   1.000  H
  H47      1.0000 0.70570  0.49060  0.79130  Biso   1.000  H
  H48      1.0000 0.79430  0.50940  0.29130  Biso   1.000  H
  H49      1.0000 0.00190  0.97580  0.23090  Biso   1.000  H
  H50      1.0000 0.49810  0.02420  0.73090  Biso   1.000  H
  H51      1.0000 0.50190  0.52420  0.76910  Biso   1.000  H
  H52      1.0000 0.99810  0.47580  0.26910  Biso   1.000  H
  C65      1.0000 0.12160  0.19840  0.16870  Biso   1.000  C
  C66      1.0000 0.37840  0.80160  0.66870  Biso   1.000  C
  C67      1.0000 0.62160  0.30160  0.83130  Biso   1.000  C
  C68      1.0000 0.87840  0.69840  0.33130  Biso   1.000  C
  H53      1.0000 0.24890  0.17790  0.15460  Biso   1.000  H
  H54      1.0000 0.25110  0.82210  0.65460  Biso   1.000  H
  H55      1.0000 0.74890  0.32210  0.84540  Biso   1.000  H
  H56      1.0000 0.75110  0.67790  0.34540  Biso   1.000  H
  C69      1.0000 0.11260  0.08300  0.29740  Biso   1.000  C
  C70      1.0000 0.38740  0.91700  0.79740  Biso   1.000  C
  C71      1.0000 0.61260  0.41700  0.70260  Biso   1.000  C
  C72      1.0000 0.88740  0.58300  0.20260  Biso   1.000  C
  H57      1.0000 0.99040  0.09720  0.31820  Biso   1.000  H
  H58      1.0000 0.50960  0.90280  0.81820  Biso   1.000  H
  H59      1.0000 0.49040  0.40280  0.68180  Biso   1.000  H
  H60      1.0000 0.00960  0.59720  0.18180  Biso   1.000  H
  H61      1.0000 0.17860  0.03620  0.32840  Biso   1.000  H
  H62      1.0000 0.32140  0.96380  0.82840  Biso   1.000  H
  H63      1.0000 0.67860  0.46380  0.67160  Biso   1.000  H
  H64      1.0000 0.82140  0.53620  0.17160  Biso   1.000  H
  C73      1.0000 0.13460  0.24940  0.24020  Biso   1.000  C
  C74      1.0000 0.36540  0.75060  0.74020  Biso   1.000  C
  C75      1.0000 0.63460  0.25060  0.75980  Biso   1.000  C
  C76      1.0000 0.86540  0.74940  0.25980  Biso   1.000  C
  H65      1.0000 0.20930  0.31090  0.23640  Biso   1.000  H
  H66      1.0000 0.29070  0.68910  0.73640  Biso   1.000  H
  H67      1.0000 0.70930  0.18910  0.76360  Biso   1.000  H
  H68      1.0000 0.79070  0.81090  0.26360  Biso   1.000  H
  H69      1.0000 0.00940  0.26810  0.25630  Biso   1.000  H
  H70      1.0000 0.49060  0.73190  0.75630  Biso   1.000  H
  H71      1.0000 0.50940  0.23190  0.74370  Biso   1.000  H
  H72      1.0000 0.99060  0.76810  0.24370  Biso   1.000  H
  N9       1.0000 0.84370  0.98730  0.83520  Biso   1.000  N
  N10      1.0000 0.65630  0.01270  0.33520  Biso   1.000  N
  N11      1.0000 0.34370  0.51270  0.16480  Biso   1.000  N
  N12      1.0000 0.15630  0.48730  0.66480  Biso   1.000  N
  O13      1.0000 0.87700  0.94890  0.78110  Biso   1.000  O
  O14      1.0000 0.62300  0.05110  0.28110  Biso   1.000  O
  O15      1.0000 0.37700  0.55110  0.21890  Biso   1.000  O
  O16      1.0000 0.12300  0.44890  0.71890  Biso   1.000  O
  C77      1.0000 0.96940  0.97500  0.08890  Biso   1.000  C
  C78      1.0000 0.53060  0.02500  0.58890  Biso   1.000  C
  C79      1.0000 0.46940  0.52500  0.91110  Biso   1.000  C
  C80      1.0000 0.03060  0.47500  0.41110  Biso   1.000  C
  H73      1.0000 0.98560  0.93000  0.12640  Biso   1.000  H
  H74      1.0000 0.51440  0.07000  0.62640  Biso   1.000  H
  H75      1.0000 0.48560  0.57000  0.87360  Biso   1.000  H
  H76      1.0000 0.01440  0.43000  0.37360  Biso   1.000  H
  O17      1.0000 0.74620  0.06480  0.83700  Biso   1.000  O
  O18      1.0000 0.75380  0.93520  0.33700  Biso   1.000  O
  O19      1.0000 0.24620  0.43520  0.16300  Biso   1.000  O
  O20      1.0000 0.25380  0.56480  0.66300  Biso   1.000  O
  O21      1.0000 0.17450  0.16630  0.81630  Biso   1.000  O
  O22      1.0000 0.32550  0.83370  0.31630  Biso   1.000  O
  O23      1.0000 0.67450  0.33370  0.18370  Biso   1.000  O
  O24      1.0000 0.82550  0.66630  0.68370  Biso   1.000  O
  H77      1.0000 0.14740  0.22750  0.82640  Biso   1.000  H
  H78      1.0000 0.35260  0.77250  0.32640  Biso   1.000  H
  H79      1.0000 0.64740  0.27250  0.17360  Biso   1.000  H
  H80      1.0000 0.85260  0.72750  0.67360  Biso   1.000  H
  H81      1.0000 0.10150  0.13020  0.83970  Biso   1.000  H
  H82      1.0000 0.39850  0.86980  0.33970  Biso   1.000  H
  H83      1.0000 0.60150  0.36980  0.16030  Biso   1.000  H
  H84      1.0000 0.89850  0.63020  0.66030  Biso   1.000  H
