data_image0
_cell_length_a       25.142
_cell_length_b       7.5241
_cell_length_c       19.878
_cell_angle_alpha    90
_cell_angle_beta     108.876
_cell_angle_gamma    90

_symmetry_space_group_name_H-M    "P 1"
_symmetry_int_tables_number       1

loop_
  _symmetry_equiv_pos_as_xyz
  'x, y, z'

loop_
  _atom_site_label
  _atom_site_occupancy
  _atom_site_fract_x
  _atom_site_fract_y
  _atom_site_fract_z
  _atom_site_thermal_displace_type
  _atom_site_B_iso_or_equiv
  _atom_site_type_symbol
  Cu1      1.0000 0.28522  0.89670  0.00646  Biso   1.000  Cu
  Cu2      1.0000 0.71478  0.89670  0.99354  Biso   1.000  Cu
  Cu3      1.0000 0.78522  0.39670  0.00646  Biso   1.000  Cu
  Cu4      1.0000 0.21478  0.39670  0.99354  Biso   1.000  Cu
  Cu5      1.0000 0.78296  0.02030  0.50764  Biso   1.000  Cu
  Cu6      1.0000 0.21704  0.02030  0.49236  Biso   1.000  Cu
  Cu7      1.0000 0.28296  0.52030  0.50764  Biso   1.000  Cu
  Cu8      1.0000 0.71704  0.52030  0.49236  Biso   1.000  Cu
  O1       1.0000 0.30225  0.81670  0.10284  Biso   1.000  O
  O2       1.0000 0.69775  0.81670  0.89716  Biso   1.000  O
  O3       1.0000 0.80225  0.31670  0.10284  Biso   1.000  O
  O4       1.0000 0.19775  0.31670  0.89716  Biso   1.000  O
  O5       1.0000 0.68150  0.84540  0.54020  Biso   1.000  O
  O6       1.0000 0.31850  0.84540  0.45980  Biso   1.000  O
  O7       1.0000 0.18150  0.34540  0.54020  Biso   1.000  O
  O8       1.0000 0.81850  0.34540  0.45980  Biso   1.000  O
  O9       1.0000 0.70290  0.07260  0.48180  Biso   1.000  O
  O10      1.0000 0.29710  0.07260  0.51820  Biso   1.000  O
  O11      1.0000 0.20290  0.57260  0.48180  Biso   1.000  O
  O12      1.0000 0.79710  0.57260  0.51820  Biso   1.000  O
  O13      1.0000 0.80043  0.09410  0.60491  Biso   1.000  O
  O14      1.0000 0.19957  0.09410  0.39509  Biso   1.000  O
  O15      1.0000 0.30043  0.59410  0.60491  Biso   1.000  O
  O16      1.0000 0.69957  0.59410  0.39509  Biso   1.000  O
  O17      1.0000 0.20433  0.85170  0.98102  Biso   1.000  O
  O18      1.0000 0.79567  0.85170  0.01898  Biso   1.000  O
  O19      1.0000 0.70433  0.35170  0.98102  Biso   1.000  O
  O20      1.0000 0.29567  0.35170  0.01898  Biso   1.000  O
  O21      1.0000 0.18644  0.09450  0.03340  Biso   1.000  O
  O22      1.0000 0.81356  0.09450  0.96660  Biso   1.000  O
  O23      1.0000 0.68644  0.59450  0.03340  Biso   1.000  O
  O24      1.0000 0.31356  0.59450  0.96660  Biso   1.000  O
  O25      1.0000 0.74460  0.79070  0.67590  Biso   1.000  O
  O26      1.0000 0.25540  0.79070  0.32410  Biso   1.000  O
  O27      1.0000 0.24460  0.29070  0.67590  Biso   1.000  O
  O28      1.0000 0.75540  0.29070  0.32410  Biso   1.000  O
  O29      1.0000 0.25130  0.61030  0.82520  Biso   1.000  O
  O30      1.0000 0.74870  0.61030  0.17480  Biso   1.000  O
  O31      1.0000 0.75130  0.11030  0.82520  Biso   1.000  O
  O32      1.0000 0.24870  0.11030  0.17480  Biso   1.000  O
  N1       1.0000 0.26991  0.97580  0.90520  Biso   1.000  N
  N2       1.0000 0.73009  0.97580  0.09480  Biso   1.000  N
  N3       1.0000 0.76991  0.47580  0.90520  Biso   1.000  N
  N4       1.0000 0.23009  0.47580  0.09480  Biso   1.000  N
  H1       1.0000 0.24660  0.89860  0.87530  Biso   1.000  H
  H2       1.0000 0.75340  0.89860  0.12470  Biso   1.000  H
  H3       1.0000 0.74660  0.39860  0.87530  Biso   1.000  H
  H4       1.0000 0.25340  0.39860  0.12470  Biso   1.000  H
  H5       1.0000 0.25360  0.08360  0.89860  Biso   1.000  H
  H6       1.0000 0.74640  0.08360  0.10140  Biso   1.000  H
  H7       1.0000 0.75360  0.58360  0.89860  Biso   1.000  H
  H8       1.0000 0.24640  0.58360  0.10140  Biso   1.000  H
  N5       1.0000 0.36133  0.98230  0.01980  Biso   1.000  N
  N6       1.0000 0.63867  0.98230  0.98020  Biso   1.000  N
  N7       1.0000 0.86133  0.48230  0.01980  Biso   1.000  N
  N8       1.0000 0.13867  0.48230  0.98020  Biso   1.000  N
  N9       1.0000 0.76652  0.93380  0.40730  Biso   1.000  N
  N10      1.0000 0.23348  0.93380  0.59270  Biso   1.000  N
  N11      1.0000 0.26652  0.43380  0.40730  Biso   1.000  N
  N12      1.0000 0.73348  0.43380  0.59270  Biso   1.000  N
  H9       1.0000 0.73820  0.85430  0.39680  Biso   1.000  H
  H10      1.0000 0.26180  0.85430  0.60320  Biso   1.000  H
  H11      1.0000 0.23820  0.35430  0.39680  Biso   1.000  H
  H12      1.0000 0.76180  0.35430  0.60320  Biso   1.000  H
  H13      1.0000 0.75580  0.02560  0.37690  Biso   1.000  H
  H14      1.0000 0.24420  0.02560  0.62310  Biso   1.000  H
  H15      1.0000 0.25580  0.52560  0.37690  Biso   1.000  H
  H16      1.0000 0.74420  0.52560  0.62310  Biso   1.000  H
  N13      1.0000 0.86073  0.97150  0.51610  Biso   1.000  N
  N14      1.0000 0.13927  0.97150  0.48390  Biso   1.000  N
  N15      1.0000 0.36073  0.47150  0.51610  Biso   1.000  N
  N16      1.0000 0.63927  0.47150  0.48390  Biso   1.000  N
  C1       1.0000 0.32410  0.98320  0.89120  Biso   1.000  C
  C2       1.0000 0.67590  0.98320  0.10880  Biso   1.000  C
  C3       1.0000 0.82410  0.48320  0.89120  Biso   1.000  C
  C4       1.0000 0.17590  0.48320  0.10880  Biso   1.000  C
  H17      1.0000 0.33630  0.86150  0.88640  Biso   1.000  H
  H18      1.0000 0.66370  0.86150  0.11360  Biso   1.000  H
  H19      1.0000 0.83630  0.36150  0.88640  Biso   1.000  H
  H20      1.0000 0.16370  0.36150  0.11360  Biso   1.000  H
  C5       1.0000 0.32170  0.08790  0.82380  Biso   1.000  C
  C6       1.0000 0.67830  0.08790  0.17620  Biso   1.000  C
  C7       1.0000 0.82170  0.58790  0.82380  Biso   1.000  C
  C8       1.0000 0.17830  0.58790  0.17620  Biso   1.000  C
  H21      1.0000 0.29480  0.03240  0.78270  Biso   1.000  H
  H22      1.0000 0.70520  0.03240  0.21730  Biso   1.000  H
  H23      1.0000 0.79480  0.53240  0.78270  Biso   1.000  H
  H24      1.0000 0.20520  0.53240  0.21730  Biso   1.000  H
  H25      1.0000 0.30900  0.20820  0.82750  Biso   1.000  H
  H26      1.0000 0.69100  0.20820  0.17250  Biso   1.000  H
  H27      1.0000 0.80900  0.70820  0.82750  Biso   1.000  H
  H28      1.0000 0.19100  0.70820  0.17250  Biso   1.000  H
  C9       1.0000 0.37890  0.09300  0.81400  Biso   1.000  C
  C10      1.0000 0.62110  0.09300  0.18600  Biso   1.000  C
  C11      1.0000 0.87890  0.59300  0.81400  Biso   1.000  C
  C12      1.0000 0.12110  0.59300  0.18600  Biso   1.000  C
  H29      1.0000 0.38970  0.97380  0.80500  Biso   1.000  H
  H30      1.0000 0.61030  0.97380  0.19500  Biso   1.000  H
  H31      1.0000 0.88970  0.47380  0.80500  Biso   1.000  H
  H32      1.0000 0.11030  0.47380  0.19500  Biso   1.000  H
  H33      1.0000 0.37710  0.16610  0.77310  Biso   1.000  H
  H34      1.0000 0.62290  0.16610  0.22690  Biso   1.000  H
  H35      1.0000 0.87710  0.66610  0.77310  Biso   1.000  H
  H36      1.0000 0.12290  0.66610  0.22690  Biso   1.000  H
  C13      1.0000 0.42250  0.16770  0.87940  Biso   1.000  C
  C14      1.0000 0.57750  0.16770  0.12060  Biso   1.000  C
  C15      1.0000 0.92250  0.66770  0.87940  Biso   1.000  C
  C16      1.0000 0.07750  0.66770  0.12060  Biso   1.000  C
  H37      1.0000 0.41420  0.29210  0.88410  Biso   1.000  H
  H38      1.0000 0.58580  0.29210  0.11590  Biso   1.000  H
  H39      1.0000 0.91420  0.79210  0.88410  Biso   1.000  H
  H40      1.0000 0.08580  0.79210  0.11590  Biso   1.000  H
  H41      1.0000 0.45910  0.16100  0.87310  Biso   1.000  H
  H42      1.0000 0.54090  0.16100  0.12690  Biso   1.000  H
  H43      1.0000 0.95910  0.66100  0.87310  Biso   1.000  H
  H44      1.0000 0.04090  0.66100  0.12690  Biso   1.000  H
  C17      1.0000 0.42480  0.07050  0.94750  Biso   1.000  C
  C18      1.0000 0.57520  0.07050  0.05250  Biso   1.000  C
  C19      1.0000 0.92480  0.57050  0.94750  Biso   1.000  C
  C20      1.0000 0.07520  0.57050  0.05250  Biso   1.000  C
  H45      1.0000 0.43750  0.94940  0.94580  Biso   1.000  H
  H46      1.0000 0.56250  0.94940  0.05420  Biso   1.000  H
  H47      1.0000 0.93750  0.44940  0.94580  Biso   1.000  H
  H48      1.0000 0.06250  0.44940  0.05420  Biso   1.000  H
  H49      1.0000 0.45130  0.12940  0.98800  Biso   1.000  H
  H50      1.0000 0.54870  0.12940  0.01200  Biso   1.000  H
  H51      1.0000 0.95130  0.62940  0.98800  Biso   1.000  H
  H52      1.0000 0.04870  0.62940  0.01200  Biso   1.000  H
  C21      1.0000 0.36691  0.06930  0.95580  Biso   1.000  C
  C22      1.0000 0.63309  0.06930  0.04420  Biso   1.000  C
  C23      1.0000 0.86691  0.56930  0.95580  Biso   1.000  C
  C24      1.0000 0.13309  0.56930  0.04420  Biso   1.000  C
  H53      1.0000 0.35560  0.19360  0.95700  Biso   1.000  H
  H54      1.0000 0.64440  0.19360  0.04300  Biso   1.000  H
  H55      1.0000 0.85560  0.69360  0.95700  Biso   1.000  H
  H56      1.0000 0.14440  0.69360  0.04300  Biso   1.000  H
  C25      1.0000 0.40100  0.98090  0.07790  Biso   1.000  C
  C26      1.0000 0.59900  0.98090  0.92210  Biso   1.000  C
  C27      1.0000 0.90100  0.48090  0.07790  Biso   1.000  C
  C28      1.0000 0.09900  0.48090  0.92210  Biso   1.000  C
  H57      1.0000 0.43520  0.02790  0.07780  Biso   1.000  H
  H58      1.0000 0.56480  0.02790  0.92220  Biso   1.000  H
  H59      1.0000 0.93520  0.52790  0.07780  Biso   1.000  H
  H60      1.0000 0.06480  0.52790  0.92220  Biso   1.000  H
  C29      1.0000 0.39840  0.91270  0.14480  Biso   1.000  C
  C30      1.0000 0.60160  0.91270  0.85520  Biso   1.000  C
  C31      1.0000 0.89840  0.41270  0.14480  Biso   1.000  C
  C32      1.0000 0.10160  0.41270  0.85520  Biso   1.000  C
  C33      1.0000 0.34970  0.83850  0.15530  Biso   1.000  C
  C34      1.0000 0.65030  0.83850  0.84470  Biso   1.000  C
  C35      1.0000 0.84970  0.33850  0.15530  Biso   1.000  C
  C36      1.0000 0.15030  0.33850  0.84470  Biso   1.000  C
  C37      1.0000 0.35460  0.78570  0.22530  Biso   1.000  C
  C38      1.0000 0.64540  0.78570  0.77470  Biso   1.000  C
  C39      1.0000 0.85460  0.28570  0.22530  Biso   1.000  C
  C40      1.0000 0.14540  0.28570  0.77470  Biso   1.000  C
  H61      1.0000 0.32410  0.73060  0.23330  Biso   1.000  H
  H62      1.0000 0.67590  0.73060  0.76670  Biso   1.000  H
  H63      1.0000 0.82410  0.23060  0.23330  Biso   1.000  H
  H64      1.0000 0.17590  0.23060  0.76670  Biso   1.000  H
  C41      1.0000 0.40250  0.81230  0.28180  Biso   1.000  C
  C42      1.0000 0.59750  0.81230  0.71820  Biso   1.000  C
  C43      1.0000 0.90250  0.31230  0.28180  Biso   1.000  C
  C44      1.0000 0.09750  0.31230  0.71820  Biso   1.000  C
  H65      1.0000 0.40290  0.78040  0.32710  Biso   1.000  H
  H66      1.0000 0.59710  0.78040  0.67290  Biso   1.000  H
  H67      1.0000 0.90290  0.28040  0.32710  Biso   1.000  H
  H68      1.0000 0.09710  0.28040  0.67290  Biso   1.000  H
  C45      1.0000 0.45180  0.88770  0.27300  Biso   1.000  C
  C46      1.0000 0.54820  0.88770  0.72700  Biso   1.000  C
  C47      1.0000 0.95180  0.38770  0.27300  Biso   1.000  C
  C48      1.0000 0.04820  0.38770  0.72700  Biso   1.000  C
  C49      1.0000 0.44720  0.93270  0.20370  Biso   1.000  C
  C50      1.0000 0.55280  0.93270  0.79630  Biso   1.000  C
  C51      1.0000 0.94720  0.43270  0.20370  Biso   1.000  C
  C52      1.0000 0.05280  0.43270  0.79630  Biso   1.000  C
  H69      1.0000 0.47890  0.97970  0.19560  Biso   1.000  H
  H70      1.0000 0.52110  0.97970  0.80440  Biso   1.000  H
  H71      1.0000 0.97890  0.47970  0.19560  Biso   1.000  H
  H72      1.0000 0.02110  0.47970  0.80440  Biso   1.000  H
  C53      1.0000 0.50498  0.91650  0.33250  Biso   1.000  C
  C54      1.0000 0.49502  0.91650  0.66750  Biso   1.000  C
  C55      1.0000 0.00498  0.41650  0.33250  Biso   1.000  C
  C56      1.0000 0.99502  0.41650  0.66750  Biso   1.000  C
  C57      1.0000 0.51490  0.85270  0.40080  Biso   1.000  C
  C58      1.0000 0.48510  0.85270  0.59920  Biso   1.000  C
  C59      1.0000 0.01490  0.35270  0.40080  Biso   1.000  C
  C60      1.0000 0.98510  0.35270  0.59920  Biso   1.000  C
  H73      1.0000 0.48580  0.79620  0.41170  Biso   1.000  H
  H74      1.0000 0.51420  0.79620  0.58830  Biso   1.000  H
  H75      1.0000 0.98580  0.29620  0.41170  Biso   1.000  H
  H76      1.0000 0.01420  0.29620  0.58830  Biso   1.000  H
  C61      1.0000 0.56640  0.86980  0.45350  Biso   1.000  C
  C62      1.0000 0.43360  0.86980  0.54650  Biso   1.000  C
  C63      1.0000 0.06640  0.36980  0.45350  Biso   1.000  C
  C64      1.0000 0.93360  0.36980  0.54650  Biso   1.000  C
  H77      1.0000 0.57140  0.82430  0.49860  Biso   1.000  H
  H78      1.0000 0.42860  0.82430  0.50140  Biso   1.000  H
  H79      1.0000 0.07140  0.32430  0.49860  Biso   1.000  H
  H80      1.0000 0.92860  0.32430  0.50140  Biso   1.000  H
  C65      1.0000 0.61010  0.95360  0.43950  Biso   1.000  C
  C66      1.0000 0.38990  0.95360  0.56050  Biso   1.000  C
  C67      1.0000 0.11010  0.45360  0.43950  Biso   1.000  C
  C68      1.0000 0.88990  0.45360  0.56050  Biso   1.000  C
  C69      1.0000 0.60060  0.03080  0.37380  Biso   1.000  C
  C70      1.0000 0.39940  0.03080  0.62620  Biso   1.000  C
  C71      1.0000 0.10060  0.53080  0.37380  Biso   1.000  C
  C72      1.0000 0.89940  0.53080  0.62620  Biso   1.000  C
  H81      1.0000 0.62890  0.09640  0.36460  Biso   1.000  H
  H82      1.0000 0.37110  0.09640  0.63540  Biso   1.000  H
  H83      1.0000 0.12890  0.59640  0.36460  Biso   1.000  H
  H84      1.0000 0.87110  0.59640  0.63540  Biso   1.000  H
  C73      1.0000 0.54940  0.01070  0.32200  Biso   1.000  C
  C74      1.0000 0.45060  0.01070  0.67800  Biso   1.000  C
  C75      1.0000 0.04940  0.51070  0.32200  Biso   1.000  C
  C76      1.0000 0.95060  0.51070  0.67800  Biso   1.000  C
  H85      1.0000 0.54400  0.06240  0.27780  Biso   1.000  H
  H86      1.0000 0.45600  0.06240  0.72220  Biso   1.000  H
  H87      1.0000 0.04400  0.56240  0.27780  Biso   1.000  H
  H88      1.0000 0.95600  0.56240  0.72220  Biso   1.000  H
  C77      1.0000 0.66870  0.95820  0.49240  Biso   1.000  C
  C78      1.0000 0.33130  0.95820  0.50760  Biso   1.000  C
  C79      1.0000 0.16870  0.45820  0.49240  Biso   1.000  C
  C80      1.0000 0.83130  0.45820  0.50760  Biso   1.000  C
  C81      1.0000 0.81740  0.85010  0.39960  Biso   1.000  C
  C82      1.0000 0.18260  0.85010  0.60040  Biso   1.000  C
  C83      1.0000 0.31740  0.35010  0.39960  Biso   1.000  C
  C84      1.0000 0.68260  0.35010  0.60040  Biso   1.000  C
  H89      1.0000 0.81910  0.72790  0.41720  Biso   1.000  H
  H90      1.0000 0.18090  0.72790  0.58280  Biso   1.000  H
  H91      1.0000 0.31910  0.22790  0.41720  Biso   1.000  H
  H92      1.0000 0.68090  0.22790  0.58280  Biso   1.000  H
  C85      1.0000 0.81710  0.84090  0.32230  Biso   1.000  C
  C86      1.0000 0.18290  0.84090  0.67770  Biso   1.000  C
  C87      1.0000 0.31710  0.34090  0.32230  Biso   1.000  C
  C88      1.0000 0.68290  0.34090  0.67770  Biso   1.000  C
  H93      1.0000 0.78440  0.77570  0.29340  Biso   1.000  H
  H94      1.0000 0.21560  0.77570  0.70660  Biso   1.000  H
  H95      1.0000 0.28440  0.27570  0.29340  Biso   1.000  H
  H96      1.0000 0.71560  0.27570  0.70660  Biso   1.000  H
  H97      1.0000 0.81570  0.95980  0.30290  Biso   1.000  H
  H98      1.0000 0.18430  0.95980  0.69710  Biso   1.000  H
  H99      1.0000 0.31570  0.45980  0.30290  Biso   1.000  H
  H100     1.0000 0.68430  0.45980  0.69710  Biso   1.000  H
  C89      1.0000 0.87100  0.74650  0.32170  Biso   1.000  C
  C90      1.0000 0.12900  0.74650  0.67830  Biso   1.000  C
  C91      1.0000 0.37100  0.24650  0.32170  Biso   1.000  C
  C92      1.0000 0.62900  0.24650  0.67830  Biso   1.000  C
  H101     1.0000 0.87040  0.62470  0.33740  Biso   1.000  H
  H102     1.0000 0.12960  0.62470  0.66260  Biso   1.000  H
  H103     1.0000 0.37040  0.12470  0.33740  Biso   1.000  H
  H104     1.0000 0.62960  0.12470  0.66260  Biso   1.000  H
  H105     1.0000 0.87220  0.74360  0.27340  Biso   1.000  H
  H106     1.0000 0.12780  0.74360  0.72660  Biso   1.000  H
  H107     1.0000 0.37220  0.24360  0.27340  Biso   1.000  H
  H108     1.0000 0.62780  0.24360  0.72660  Biso   1.000  H
  C93      1.0000 0.92270  0.83600  0.36850  Biso   1.000  C
  C94      1.0000 0.07730  0.83600  0.63150  Biso   1.000  C
  C95      1.0000 0.42270  0.33600  0.36850  Biso   1.000  C
  C96      1.0000 0.57730  0.33600  0.63150  Biso   1.000  C
  H109     1.0000 0.92610  0.95200  0.34900  Biso   1.000  H
  H110     1.0000 0.07390  0.95200  0.65100  Biso   1.000  H
  H111     1.0000 0.42610  0.45200  0.34900  Biso   1.000  H
  H112     1.0000 0.57390  0.45200  0.65100  Biso   1.000  H
  H113     1.0000 0.95540  0.76650  0.36920  Biso   1.000  H
  H114     1.0000 0.04460  0.76650  0.63080  Biso   1.000  H
  H115     1.0000 0.45540  0.26650  0.36920  Biso   1.000  H
  H116     1.0000 0.54460  0.26650  0.63080  Biso   1.000  H
  C97      1.0000 0.92190  0.85870  0.44490  Biso   1.000  C
  C98      1.0000 0.07810  0.85870  0.55510  Biso   1.000  C
  C99      1.0000 0.42190  0.35870  0.44490  Biso   1.000  C
  C100     1.0000 0.57810  0.35870  0.55510  Biso   1.000  C
  H117     1.0000 0.92550  0.74330  0.46770  Biso   1.000  H
  H118     1.0000 0.07450  0.74330  0.53230  Biso   1.000  H
  H119     1.0000 0.42550  0.24330  0.46770  Biso   1.000  H
  H120     1.0000 0.57450  0.24330  0.53230  Biso   1.000  H
  H121     1.0000 0.95360  0.93110  0.47170  Biso   1.000  H
  H122     1.0000 0.04640  0.93110  0.52830  Biso   1.000  H
  H123     1.0000 0.45360  0.43110  0.47170  Biso   1.000  H
  H124     1.0000 0.54640  0.43110  0.52830  Biso   1.000  H
  C101     1.0000 0.86819  0.94540  0.44580  Biso   1.000  C
  C102     1.0000 0.13181  0.94540  0.55420  Biso   1.000  C
  C103     1.0000 0.36819  0.44540  0.44580  Biso   1.000  C
  C104     1.0000 0.63181  0.44540  0.55420  Biso   1.000  C
  H125     1.0000 0.86750  0.06390  0.42510  Biso   1.000  H
  H126     1.0000 0.13250  0.06390  0.57490  Biso   1.000  H
  H127     1.0000 0.36750  0.56390  0.42510  Biso   1.000  H
  H128     1.0000 0.63250  0.56390  0.57490  Biso   1.000  H
  C105     1.0000 0.90260  0.97210  0.57490  Biso   1.000  C
  C106     1.0000 0.09740  0.97210  0.42510  Biso   1.000  C
  C107     1.0000 0.40260  0.47210  0.57490  Biso   1.000  C
  C108     1.0000 0.59740  0.47210  0.42510  Biso   1.000  C
  H129     1.0000 0.93790  0.94730  0.57190  Biso   1.000  H
  H130     1.0000 0.06210  0.94730  0.42810  Biso   1.000  H
  H131     1.0000 0.43790  0.44730  0.57190  Biso   1.000  H
  H132     1.0000 0.56210  0.44730  0.42810  Biso   1.000  H
  C109     1.0000 0.89910  0.00770  0.64440  Biso   1.000  C
  C110     1.0000 0.10090  0.00770  0.35560  Biso   1.000  C
  C111     1.0000 0.39910  0.50770  0.64440  Biso   1.000  C
  C112     1.0000 0.60090  0.50770  0.35560  Biso   1.000  C
  C113     1.0000 0.84900  0.06760  0.65530  Biso   1.000  C
  C114     1.0000 0.15100  0.06760  0.34470  Biso   1.000  C
  C115     1.0000 0.34900  0.56760  0.65530  Biso   1.000  C
  C116     1.0000 0.65100  0.56760  0.34470  Biso   1.000  C
  C117     1.0000 0.85270  0.10190  0.72680  Biso   1.000  C
  C118     1.0000 0.14730  0.10190  0.27320  Biso   1.000  C
  C119     1.0000 0.35270  0.60190  0.72680  Biso   1.000  C
  C120     1.0000 0.64730  0.60190  0.27320  Biso   1.000  C
  H133     1.0000 0.82070  0.13820  0.73670  Biso   1.000  H
  H134     1.0000 0.17930  0.13820  0.26330  Biso   1.000  H
  H135     1.0000 0.32070  0.63820  0.73670  Biso   1.000  H
  H136     1.0000 0.67930  0.63820  0.26330  Biso   1.000  H
  C121     1.0000 0.90270  0.08300  0.78240  Biso   1.000  C
  C122     1.0000 0.09730  0.08300  0.21760  Biso   1.000  C
  C123     1.0000 0.40270  0.58300  0.78240  Biso   1.000  C
  C124     1.0000 0.59730  0.58300  0.21760  Biso   1.000  C
  H137     1.0000 0.90350  0.10980  0.82840  Biso   1.000  H
  H138     1.0000 0.09650  0.10980  0.17160  Biso   1.000  H
  H139     1.0000 0.40350  0.60980  0.82840  Biso   1.000  H
  H140     1.0000 0.59650  0.60980  0.17160  Biso   1.000  H
  C125     1.0000 0.95210  0.02450  0.77100  Biso   1.000  C
  C126     1.0000 0.04790  0.02450  0.22900  Biso   1.000  C
  C127     1.0000 0.45210  0.52450  0.77100  Biso   1.000  C
  C128     1.0000 0.54790  0.52450  0.22900  Biso   1.000  C
  C129     1.0000 0.94810  0.99260  0.70160  Biso   1.000  C
  C130     1.0000 0.05190  0.99260  0.29840  Biso   1.000  C
  C131     1.0000 0.44810  0.49260  0.70160  Biso   1.000  C
  C132     1.0000 0.55190  0.49260  0.29840  Biso   1.000  C
  H141     1.0000 0.98060  0.95850  0.69240  Biso   1.000  H
  H142     1.0000 0.01940  0.95850  0.30760  Biso   1.000  H
  H143     1.0000 0.48060  0.45850  0.69240  Biso   1.000  H
  H144     1.0000 0.51940  0.45850  0.30760  Biso   1.000  H
  C133     1.0000 0.00640  0.00330  0.82930  Biso   1.000  C
  C134     1.0000 0.99360  0.00330  0.17070  Biso   1.000  C
  C135     1.0000 0.50640  0.50330  0.82930  Biso   1.000  C
  C136     1.0000 0.49360  0.50330  0.17070  Biso   1.000  C
  C137     1.0000 0.01680  0.07770  0.89700  Biso   1.000  C
  C138     1.0000 0.98320  0.07770  0.10300  Biso   1.000  C
  C139     1.0000 0.51680  0.57770  0.89700  Biso   1.000  C
  C140     1.0000 0.48320  0.57770  0.10300  Biso   1.000  C
  H145     1.0000 0.98800  0.13630  0.90760  Biso   1.000  H
  H146     1.0000 0.01200  0.13630  0.09240  Biso   1.000  H
  H147     1.0000 0.48800  0.63630  0.90760  Biso   1.000  H
  H148     1.0000 0.51200  0.63630  0.09240  Biso   1.000  H
  C141     1.0000 0.06930  0.06570  0.94850  Biso   1.000  C
  C142     1.0000 0.93070  0.06570  0.05150  Biso   1.000  C
  C143     1.0000 0.56930  0.56570  0.94850  Biso   1.000  C
  C144     1.0000 0.43070  0.56570  0.05150  Biso   1.000  C
  H149     1.0000 0.07530  0.12060  0.99230  Biso   1.000  H
  H150     1.0000 0.92470  0.12060  0.00770  Biso   1.000  H
  H151     1.0000 0.57530  0.62060  0.99230  Biso   1.000  H
  H152     1.0000 0.42470  0.62060  0.00770  Biso   1.000  H
  C145     1.0000 0.11330  0.97330  0.93620  Biso   1.000  C
  C146     1.0000 0.88670  0.97330  0.06380  Biso   1.000  C
  C147     1.0000 0.61330  0.47330  0.93620  Biso   1.000  C
  C148     1.0000 0.38670  0.47330  0.06380  Biso   1.000  C
  C149     1.0000 0.10290  0.89210  0.87080  Biso   1.000  C
  C150     1.0000 0.89710  0.89210  0.12920  Biso   1.000  C
  C151     1.0000 0.60290  0.39210  0.87080  Biso   1.000  C
  C152     1.0000 0.39710  0.39210  0.12920  Biso   1.000  C
  H153     1.0000 0.13120  0.82760  0.86130  Biso   1.000  H
  H154     1.0000 0.86880  0.82760  0.13870  Biso   1.000  H
  H155     1.0000 0.63120  0.32760  0.86130  Biso   1.000  H
  H156     1.0000 0.36880  0.32760  0.13870  Biso   1.000  H
  C153     1.0000 0.05000  0.90630  0.81880  Biso   1.000  C
  C154     1.0000 0.95000  0.90630  0.18120  Biso   1.000  C
  C155     1.0000 0.55000  0.40630  0.81880  Biso   1.000  C
  C156     1.0000 0.45000  0.40630  0.18120  Biso   1.000  C
  H157     1.0000 0.04390  0.84870  0.77560  Biso   1.000  H
  H158     1.0000 0.95610  0.84870  0.22440  Biso   1.000  H
  H159     1.0000 0.54390  0.34870  0.77560  Biso   1.000  H
  H160     1.0000 0.45610  0.34870  0.22440  Biso   1.000  H
  C157     1.0000 0.17270  0.97480  0.98850  Biso   1.000  C
  C158     1.0000 0.82730  0.97480  0.01150  Biso   1.000  C
  C159     1.0000 0.67270  0.47480  0.98850  Biso   1.000  C
  C160     1.0000 0.32730  0.47480  0.01150  Biso   1.000  C
