data_image0
_cell_length_a       15.934
_cell_length_b       11.519
_cell_length_c       23.519
_cell_angle_alpha    90
_cell_angle_beta     109.216
_cell_angle_gamma    90

_symmetry_space_group_name_H-M    "P 1"
_symmetry_int_tables_number       1

loop_
  _symmetry_equiv_pos_as_xyz
  'x, y, z'

loop_
  _atom_site_label
  _atom_site_occupancy
  _atom_site_fract_x
  _atom_site_fract_y
  _atom_site_fract_z
  _atom_site_thermal_displace_type
  _atom_site_B_iso_or_equiv
  _atom_site_type_symbol
  Cu1      1.0000 0.71896  0.08894  0.99354  Biso   1.000  Cu
  Cu2      1.0000 0.78104  0.58894  0.50646  Biso   1.000  Cu
  Cu3      1.0000 0.28104  0.91106  0.00646  Biso   1.000  Cu
  Cu4      1.0000 0.21896  0.41106  0.49354  Biso   1.000  Cu
  Cl1      1.0000 0.54970  0.12839  0.95678  Biso   1.000  Cl
  Cl2      1.0000 0.95030  0.62839  0.54322  Biso   1.000  Cl
  Cl3      1.0000 0.45030  0.87161  0.04322  Biso   1.000  Cl
  Cl4      1.0000 0.04970  0.37161  0.45678  Biso   1.000  Cl
  Cl5      1.0000 0.02874  0.19598  0.01010  Biso   1.000  Cl
  Cl6      1.0000 0.47126  0.69598  0.48990  Biso   1.000  Cl
  Cl7      1.0000 0.97126  0.80402  0.98990  Biso   1.000  Cl
  Cl8      1.0000 0.52874  0.30402  0.51010  Biso   1.000  Cl
  N1       1.0000 0.75367  0.25200  0.02321  Biso   1.000  N
  N2       1.0000 0.74633  0.75200  0.47679  Biso   1.000  N
  N3       1.0000 0.24633  0.74800  0.97679  Biso   1.000  N
  N4       1.0000 0.25367  0.24800  0.52321  Biso   1.000  N
  N5       1.0000 0.73624  0.12793  0.91424  Biso   1.000  N
  N6       1.0000 0.76376  0.62793  0.58576  Biso   1.000  N
  N7       1.0000 0.26376  0.87207  0.08576  Biso   1.000  N
  N8       1.0000 0.23624  0.37207  0.41424  Biso   1.000  N
  N9       1.0000 0.77954  0.54697  0.42321  Biso   1.000  N
  N10      1.0000 0.72046  0.04697  0.07679  Biso   1.000  N
  N11      1.0000 0.22046  0.45303  0.57679  Biso   1.000  N
  N12      1.0000 0.27954  0.95303  0.92321  Biso   1.000  N
  N13      1.0000 0.80237  0.42164  0.53264  Biso   1.000  N
  N14      1.0000 0.69763  0.92164  0.96736  Biso   1.000  N
  N15      1.0000 0.19763  0.57836  0.46736  Biso   1.000  N
  N16      1.0000 0.30237  0.07836  0.03264  Biso   1.000  N
  N17      1.0000 0.81558  0.49266  0.34635  Biso   1.000  N
  N18      1.0000 0.68442  0.99266  0.15365  Biso   1.000  N
  N19      1.0000 0.18442  0.50734  0.65365  Biso   1.000  N
  N20      1.0000 0.31558  0.00734  0.84635  Biso   1.000  N
  N21      1.0000 0.74765  0.42216  0.06127  Biso   1.000  N
  N22      1.0000 0.75235  0.92216  0.43873  Biso   1.000  N
  N23      1.0000 0.25235  0.57784  0.93873  Biso   1.000  N
  N24      1.0000 0.24765  0.07784  0.56127  Biso   1.000  N
  N25      1.0000 0.72847  0.52150  0.32365  Biso   1.000  N
  N26      1.0000 0.77153  0.02150  0.17635  Biso   1.000  N
  N27      1.0000 0.27153  0.47850  0.67635  Biso   1.000  N
  N28      1.0000 0.22847  0.97850  0.82365  Biso   1.000  N
  N29      1.0000 0.82969  0.41606  0.05658  Biso   1.000  N
  N30      1.0000 0.67031  0.91606  0.44342  Biso   1.000  N
  N31      1.0000 0.17031  0.58394  0.94342  Biso   1.000  N
  N32      1.0000 0.32969  0.08394  0.55658  Biso   1.000  N
  N33      1.0000 0.70075  0.16640  0.81553  Biso   1.000  N
  N34      1.0000 0.79925  0.66640  0.68447  Biso   1.000  N
  N35      1.0000 0.29925  0.83360  0.18447  Biso   1.000  N
  N36      1.0000 0.20075  0.33360  0.31553  Biso   1.000  N
  N37      1.0000 0.78773  0.18630  0.84469  Biso   1.000  N
  N38      1.0000 0.71227  0.68630  0.65531  Biso   1.000  N
  N39      1.0000 0.21227  0.81370  0.15531  Biso   1.000  N
  N40      1.0000 0.28773  0.31370  0.34469  Biso   1.000  N
  N41      1.0000 0.85573  0.24064  0.55361  Biso   1.000  N
  N42      1.0000 0.64427  0.74064  0.94639  Biso   1.000  N
  N43      1.0000 0.14427  0.75936  0.44639  Biso   1.000  N
  N44      1.0000 0.35573  0.25936  0.05361  Biso   1.000  N
  N45      1.0000 0.77775  0.25258  0.56523  Biso   1.000  N
  N46      1.0000 0.72225  0.75258  0.93477  Biso   1.000  N
  N47      1.0000 0.22225  0.74742  0.43477  Biso   1.000  N
  N48      1.0000 0.27775  0.24742  0.06523  Biso   1.000  N
  C1       1.0000 0.78350  0.56000  0.14654  Biso   1.000  C
  C2       1.0000 0.71650  0.06000  0.35346  Biso   1.000  C
  C3       1.0000 0.21650  0.44000  0.85346  Biso   1.000  C
  C4       1.0000 0.28350  0.94000  0.64654  Biso   1.000  C
  C5       1.0000 0.79099  0.49104  0.19739  Biso   1.000  C
  C6       1.0000 0.70901  0.99104  0.30261  Biso   1.000  C
  C7       1.0000 0.20901  0.50896  0.80261  Biso   1.000  C
  C8       1.0000 0.29099  0.00896  0.69739  Biso   1.000  C
  C9       1.0000 0.85291  0.52260  0.25310  Biso   1.000  C
  C10      1.0000 0.64709  0.02260  0.24690  Biso   1.000  C
  C11      1.0000 0.14709  0.47740  0.74690  Biso   1.000  C
  C12      1.0000 0.35291  0.97740  0.75310  Biso   1.000  C
  C13      1.0000 0.90397  0.62100  0.25826  Biso   1.000  C
  C14      1.0000 0.59603  0.12100  0.24174  Biso   1.000  C
  C15      1.0000 0.09603  0.37900  0.74174  Biso   1.000  C
  C16      1.0000 0.40397  0.87900  0.75826  Biso   1.000  C
  C17      1.0000 0.83536  0.66000  0.15140  Biso   1.000  C
  C18      1.0000 0.66464  0.16000  0.34860  Biso   1.000  C
  C19      1.0000 0.16464  0.34000  0.84860  Biso   1.000  C
  C20      1.0000 0.33536  0.84000  0.65140  Biso   1.000  C
  C21      1.0000 0.89406  0.68890  0.20756  Biso   1.000  C
  C22      1.0000 0.60594  0.18890  0.29244  Biso   1.000  C
  C23      1.0000 0.10594  0.31110  0.79244  Biso   1.000  C
  C24      1.0000 0.39406  0.81110  0.70756  Biso   1.000  C
  H1       1.0000 0.92800  0.75600  0.21150  Biso   1.000  H
  H2       1.0000 0.57200  0.25600  0.28850  Biso   1.000  H
  H3       1.0000 0.07200  0.24400  0.78850  Biso   1.000  H
  H4       1.0000 0.42800  0.74400  0.71150  Biso   1.000  H
  C25      1.0000 0.82850  0.73730  0.09868  Biso   1.000  C
  C26      1.0000 0.67150  0.23730  0.40132  Biso   1.000  C
  C27      1.0000 0.17150  0.26270  0.90132  Biso   1.000  C
  C28      1.0000 0.32850  0.76270  0.59868  Biso   1.000  C
  H5       1.0000 0.87000  0.80020  0.11150  Biso   1.000  H
  H6       1.0000 0.63000  0.30020  0.38850  Biso   1.000  H
  H7       1.0000 0.13000  0.19980  0.88850  Biso   1.000  H
  H8       1.0000 0.37000  0.69980  0.61150  Biso   1.000  H
  H9       1.0000 0.76920  0.76780  0.08280  Biso   1.000  H
  H10      1.0000 0.73080  0.26780  0.41720  Biso   1.000  H
  H11      1.0000 0.23080  0.23220  0.91720  Biso   1.000  H
  H12      1.0000 0.26920  0.73220  0.58280  Biso   1.000  H
  H13      1.0000 0.84180  0.69340  0.06800  Biso   1.000  H
  H14      1.0000 0.65820  0.19340  0.43200  Biso   1.000  H
  H15      1.0000 0.15820  0.30660  0.93200  Biso   1.000  H
  H16      1.0000 0.34180  0.80660  0.56800  Biso   1.000  H
  C29      1.0000 0.73430  0.38560  0.19205  Biso   1.000  C
  C30      1.0000 0.76570  0.88560  0.30795  Biso   1.000  C
  C31      1.0000 0.26570  0.61440  0.80795  Biso   1.000  C
  C32      1.0000 0.23430  0.11440  0.69205  Biso   1.000  C
  H17      1.0000 0.71330  0.37860  0.22340  Biso   1.000  H
  H18      1.0000 0.78670  0.87860  0.27660  Biso   1.000  H
  H19      1.0000 0.28670  0.62140  0.77660  Biso   1.000  H
  H20      1.0000 0.21330  0.12140  0.72340  Biso   1.000  H
  H21      1.0000 0.76180  0.31510  0.19200  Biso   1.000  H
  H22      1.0000 0.73820  0.81510  0.30800  Biso   1.000  H
  H23      1.0000 0.23820  0.68490  0.80800  Biso   1.000  H
  H24      1.0000 0.26180  0.18490  0.69200  Biso   1.000  H
  H25      1.0000 0.68370  0.38150  0.16020  Biso   1.000  H
  H26      1.0000 0.81630  0.88150  0.33980  Biso   1.000  H
  H27      1.0000 0.31630  0.61850  0.83980  Biso   1.000  H
  H28      1.0000 0.18370  0.11850  0.66020  Biso   1.000  H
  C33      1.0000 0.97090  0.65940  0.31818  Biso   1.000  C
  C34      1.0000 0.52910  0.15940  0.18182  Biso   1.000  C
  C35      1.0000 0.02910  0.34060  0.68182  Biso   1.000  C
  C36      1.0000 0.47090  0.84060  0.81818  Biso   1.000  C
  H29      1.0000 0.99900  0.73020  0.31250  Biso   1.000  H
  H30      1.0000 0.50100  0.23020  0.18750  Biso   1.000  H
  H31      1.0000 0.00100  0.26980  0.68750  Biso   1.000  H
  H32      1.0000 0.49900  0.76980  0.81250  Biso   1.000  H
  H33      1.0000 0.01500  0.60020  0.33290  Biso   1.000  H
  H34      1.0000 0.48500  0.10020  0.16710  Biso   1.000  H
  H35      1.0000 0.98500  0.39980  0.66710  Biso   1.000  H
  H36      1.0000 0.51500  0.89980  0.83290  Biso   1.000  H
  H37      1.0000 0.94060  0.67220  0.34680  Biso   1.000  H
  H38      1.0000 0.55940  0.17220  0.15320  Biso   1.000  H
  H39      1.0000 0.05940  0.32780  0.65320  Biso   1.000  H
  H40      1.0000 0.44060  0.82780  0.84680  Biso   1.000  H
  C37      1.0000 0.71961  0.52630  0.08612  Biso   1.000  C
  C38      1.0000 0.78039  0.02630  0.41388  Biso   1.000  C
  C39      1.0000 0.28039  0.47370  0.91388  Biso   1.000  C
  C40      1.0000 0.21961  0.97370  0.58612  Biso   1.000  C
  H41      1.0000 0.66160  0.51240  0.08990  Biso   1.000  H
  H42      1.0000 0.83840  0.01240  0.41010  Biso   1.000  H
  H43      1.0000 0.33840  0.48760  0.91010  Biso   1.000  H
  H44      1.0000 0.16160  0.98760  0.58990  Biso   1.000  H
  H45      1.0000 0.71390  0.59030  0.05830  Biso   1.000  H
  H46      1.0000 0.78610  0.09030  0.44170  Biso   1.000  H
  H47      1.0000 0.28610  0.40970  0.94170  Biso   1.000  H
  H48      1.0000 0.21390  0.90970  0.55830  Biso   1.000  H
  C41      1.0000 0.84433  0.50880  0.40495  Biso   1.000  C
  C42      1.0000 0.65567  0.00880  0.09505  Biso   1.000  C
  C43      1.0000 0.15567  0.49120  0.59505  Biso   1.000  C
  C44      1.0000 0.34433  0.99120  0.90495  Biso   1.000  C
  H49      1.0000 0.90220  0.49520  0.43000  Biso   1.000  H
  H50      1.0000 0.59780  0.99520  0.07000  Biso   1.000  H
  H51      1.0000 0.09780  0.50480  0.57000  Biso   1.000  H
  H52      1.0000 0.40220  0.00480  0.93000  Biso   1.000  H
  C45      1.0000 0.83045  0.31140  0.03324  Biso   1.000  C
  C46      1.0000 0.66955  0.81140  0.46676  Biso   1.000  C
  C47      1.0000 0.16955  0.68860  0.96676  Biso   1.000  C
  C48      1.0000 0.33045  0.18860  0.53324  Biso   1.000  C
  H53      1.0000 0.87920  0.28170  0.02460  Biso   1.000  H
  H54      1.0000 0.62080  0.78170  0.47540  Biso   1.000  H
  H55      1.0000 0.12080  0.71830  0.97540  Biso   1.000  H
  H56      1.0000 0.37920  0.21830  0.52460  Biso   1.000  H
  C49      1.0000 0.70313  0.32640  0.04114  Biso   1.000  C
  C50      1.0000 0.79687  0.82640  0.45886  Biso   1.000  C
  C51      1.0000 0.29687  0.67360  0.95886  Biso   1.000  C
  C52      1.0000 0.20313  0.17360  0.54114  Biso   1.000  C
  H57      1.0000 0.64490  0.31240  0.03960  Biso   1.000  H
  H58      1.0000 0.85510  0.81240  0.46040  Biso   1.000  H
  H59      1.0000 0.35510  0.68760  0.96040  Biso   1.000  H
  H60      1.0000 0.14490  0.18760  0.53960  Biso   1.000  H
  C53      1.0000 0.86357  0.44650  0.30737  Biso   1.000  C
  C54      1.0000 0.63643  0.94650  0.19263  Biso   1.000  C
  C55      1.0000 0.13643  0.55350  0.69263  Biso   1.000  C
  C56      1.0000 0.36357  0.05350  0.80737  Biso   1.000  C
  H61      1.0000 0.84220  0.36890  0.29410  Biso   1.000  H
  H62      1.0000 0.65780  0.86890  0.20590  Biso   1.000  H
  H63      1.0000 0.15780  0.63110  0.70590  Biso   1.000  H
  H64      1.0000 0.34220  0.13110  0.79410  Biso   1.000  H
  H65      1.0000 0.92620  0.44100  0.33060  Biso   1.000  H
  H66      1.0000 0.57380  0.94100  0.16940  Biso   1.000  H
  H67      1.0000 0.07380  0.55900  0.66940  Biso   1.000  H
  H68      1.0000 0.42620  0.05900  0.83060  Biso   1.000  H
  C57      1.0000 0.70978  0.55470  0.37160  Biso   1.000  C
  C58      1.0000 0.79022  0.05470  0.12840  Biso   1.000  C
  C59      1.0000 0.29022  0.44530  0.62840  Biso   1.000  C
  C60      1.0000 0.20978  0.94530  0.87160  Biso   1.000  C
  H69      1.0000 0.65390  0.58090  0.37020  Biso   1.000  H
  H70      1.0000 0.84610  0.08090  0.12980  Biso   1.000  H
  H71      1.0000 0.34610  0.41910  0.62980  Biso   1.000  H
  H72      1.0000 0.15390  0.91910  0.87020  Biso   1.000  H
  C61      1.0000 0.94940  0.01490  0.82979  Biso   1.000  C
  C62      1.0000 0.55060  0.51490  0.67021  Biso   1.000  C
  C63      1.0000 0.05060  0.98510  0.17021  Biso   1.000  C
  C64      1.0000 0.44940  0.48510  0.32979  Biso   1.000  C
  H73      1.0000 0.97880  0.94390  0.82620  Biso   1.000  H
  H74      1.0000 0.52120  0.44390  0.67380  Biso   1.000  H
  H75      1.0000 0.02120  0.05610  0.17380  Biso   1.000  H
  H76      1.0000 0.47880  0.55610  0.32620  Biso   1.000  H
  H77      1.0000 0.91240  0.00200  0.85420  Biso   1.000  H
  H78      1.0000 0.58760  0.50200  0.64580  Biso   1.000  H
  H79      1.0000 0.08760  0.99800  0.14580  Biso   1.000  H
  H80      1.0000 0.41240  0.49800  0.35420  Biso   1.000  H
  H81      1.0000 0.99300  0.07310  0.84830  Biso   1.000  H
  H82      1.0000 0.50700  0.57310  0.65170  Biso   1.000  H
  H83      1.0000 0.00700  0.92690  0.15170  Biso   1.000  H
  H84      1.0000 0.49300  0.42690  0.34830  Biso   1.000  H
  C65      1.0000 0.73540  0.29900  0.69067  Biso   1.000  C
  C66      1.0000 0.76460  0.79900  0.80933  Biso   1.000  C
  C67      1.0000 0.26460  0.70100  0.30933  Biso   1.000  C
  C68      1.0000 0.23540  0.20100  0.19067  Biso   1.000  C
  H85      1.0000 0.70440  0.30920  0.64840  Biso   1.000  H
  H86      1.0000 0.79560  0.80920  0.85160  Biso   1.000  H
  H87      1.0000 0.29560  0.69080  0.35160  Biso   1.000  H
  H88      1.0000 0.20440  0.19080  0.14840  Biso   1.000  H
  H89      1.0000 0.77350  0.36450  0.70570  Biso   1.000  H
  H90      1.0000 0.72650  0.86450  0.79430  Biso   1.000  H
  H91      1.0000 0.22650  0.63550  0.29430  Biso   1.000  H
  H92      1.0000 0.27350  0.13550  0.20570  Biso   1.000  H
  H93      1.0000 0.69320  0.29290  0.71170  Biso   1.000  H
  H94      1.0000 0.80680  0.79290  0.78830  Biso   1.000  H
  H95      1.0000 0.30680  0.70710  0.28830  Biso   1.000  H
  H96      1.0000 0.19320  0.20710  0.21170  Biso   1.000  H
  C69      1.0000 0.83920  0.93880  0.60962  Biso   1.000  C
  C70      1.0000 0.66080  0.43880  0.89038  Biso   1.000  C
  C71      1.0000 0.16080  0.06120  0.39038  Biso   1.000  C
  C72      1.0000 0.33920  0.56120  0.10962  Biso   1.000  C
  H97      1.0000 0.84870  0.97520  0.57710  Biso   1.000  H
  H98      1.0000 0.65130  0.47520  0.92290  Biso   1.000  H
  H99      1.0000 0.15130  0.02480  0.42290  Biso   1.000  H
  H100     1.0000 0.34870  0.52480  0.07710  Biso   1.000  H
  H101     1.0000 0.78450  0.90150  0.59130  Biso   1.000  H
  H102     1.0000 0.71550  0.40150  0.90870  Biso   1.000  H
  H103     1.0000 0.21550  0.09850  0.40870  Biso   1.000  H
  H104     1.0000 0.28450  0.59850  0.09130  Biso   1.000  H
  H105     1.0000 0.87760  0.87860  0.61900  Biso   1.000  H
  H106     1.0000 0.62240  0.37860  0.88100  Biso   1.000  H
  H107     1.0000 0.12240  0.12140  0.38100  Biso   1.000  H
  H108     1.0000 0.37760  0.62140  0.11900  Biso   1.000  H
  C73      1.0000 0.84559  0.23170  0.81201  Biso   1.000  C
  C74      1.0000 0.65441  0.73170  0.68799  Biso   1.000  C
  C75      1.0000 0.15441  0.76830  0.18799  Biso   1.000  C
  C76      1.0000 0.34559  0.26830  0.31201  Biso   1.000  C
  H109     1.0000 0.90620  0.23580  0.83940  Biso   1.000  H
  H110     1.0000 0.59380  0.73580  0.66060  Biso   1.000  H
  H111     1.0000 0.09380  0.76420  0.16060  Biso   1.000  H
  H112     1.0000 0.40620  0.26420  0.33940  Biso   1.000  H
  H113     1.0000 0.82680  0.30980  0.79810  Biso   1.000  H
  H114     1.0000 0.67320  0.80980  0.70190  Biso   1.000  H
  H115     1.0000 0.17320  0.69020  0.20190  Biso   1.000  H
  H116     1.0000 0.32680  0.19020  0.29810  Biso   1.000  H
  C77      1.0000 0.73716  0.15570  0.58773  Biso   1.000  C
  C78      1.0000 0.76284  0.65570  0.91227  Biso   1.000  C
  C79      1.0000 0.26284  0.84430  0.41227  Biso   1.000  C
  C80      1.0000 0.23716  0.34430  0.08773  Biso   1.000  C
  H117     1.0000 0.73110  0.08940  0.56120  Biso   1.000  H
  H118     1.0000 0.76890  0.58940  0.93880  Biso   1.000  H
  H119     1.0000 0.26890  0.91060  0.43880  Biso   1.000  H
  H120     1.0000 0.23110  0.41060  0.06120  Biso   1.000  H
  H121     1.0000 0.67810  0.17820  0.58690  Biso   1.000  H
  H122     1.0000 0.82190  0.67820  0.91310  Biso   1.000  H
  H123     1.0000 0.32190  0.82180  0.41310  Biso   1.000  H
  H124     1.0000 0.17810  0.32180  0.08690  Biso   1.000  H
  C81      1.0000 0.84296  0.15650  0.75851  Biso   1.000  C
  C82      1.0000 0.65704  0.65650  0.74149  Biso   1.000  C
  C83      1.0000 0.15704  0.84350  0.24149  Biso   1.000  C
  C84      1.0000 0.34296  0.34350  0.25851  Biso   1.000  C
  C85      1.0000 0.79029  0.19040  0.70029  Biso   1.000  C
  C86      1.0000 0.70971  0.69040  0.79971  Biso   1.000  C
  C87      1.0000 0.20971  0.80960  0.29971  Biso   1.000  C
  C88      1.0000 0.29029  0.30960  0.20029  Biso   1.000  C
  C89      1.0000 0.79182  0.12060  0.65136  Biso   1.000  C
  C90      1.0000 0.70818  0.62060  0.84864  Biso   1.000  C
  C91      1.0000 0.20818  0.87940  0.34864  Biso   1.000  C
  C92      1.0000 0.29182  0.37940  0.15136  Biso   1.000  C
  C93      1.0000 0.84001  0.01860  0.66047  Biso   1.000  C
  C94      1.0000 0.65999  0.51860  0.83953  Biso   1.000  C
  C95      1.0000 0.15999  0.98140  0.33953  Biso   1.000  C
  C96      1.0000 0.34001  0.48140  0.16047  Biso   1.000  C
  C97      1.0000 0.88940  0.98820  0.71810  Biso   1.000  C
  C98      1.0000 0.61060  0.48820  0.78190  Biso   1.000  C
  C99      1.0000 0.11060  0.01180  0.28190  Biso   1.000  C
  C100     1.0000 0.38940  0.51180  0.21810  Biso   1.000  C
  H125     1.0000 0.92210  0.91980  0.72430  Biso   1.000  H
  H126     1.0000 0.57790  0.41980  0.77570  Biso   1.000  H
  H127     1.0000 0.07790  0.08020  0.27570  Biso   1.000  H
  H128     1.0000 0.42210  0.58020  0.22430  Biso   1.000  H
  C101     1.0000 0.89234  0.05580  0.76748  Biso   1.000  C
  C102     1.0000 0.60766  0.55580  0.73252  Biso   1.000  C
  C103     1.0000 0.10766  0.94420  0.23252  Biso   1.000  C
  C104     1.0000 0.39234  0.44420  0.26748  Biso   1.000  C
  C105     1.0000 0.67177  0.13130  0.85968  Biso   1.000  C
  C106     1.0000 0.82823  0.63130  0.64032  Biso   1.000  C
  C107     1.0000 0.32823  0.86870  0.14032  Biso   1.000  C
  C108     1.0000 0.17177  0.36870  0.35968  Biso   1.000  C
  H129     1.0000 0.61300  0.11100  0.85370  Biso   1.000  H
  H130     1.0000 0.88700  0.61100  0.64630  Biso   1.000  H
  H131     1.0000 0.38700  0.88900  0.14630  Biso   1.000  H
  H132     1.0000 0.11300  0.38900  0.35370  Biso   1.000  H
  C109     1.0000 0.80751  0.16460  0.90245  Biso   1.000  C
  C110     1.0000 0.69249  0.66460  0.59755  Biso   1.000  C
  C111     1.0000 0.19249  0.83540  0.09755  Biso   1.000  C
  C112     1.0000 0.30751  0.33540  0.40245  Biso   1.000  C
  H133     1.0000 0.86360  0.17360  0.93100  Biso   1.000  H
  H134     1.0000 0.63640  0.67360  0.56900  Biso   1.000  H
  H135     1.0000 0.13640  0.82640  0.06900  Biso   1.000  H
  H136     1.0000 0.36360  0.32640  0.43100  Biso   1.000  H
  C113     1.0000 0.86776  0.34590  0.53437  Biso   1.000  C
  C114     1.0000 0.63224  0.84590  0.96563  Biso   1.000  C
  C115     1.0000 0.13224  0.65410  0.46563  Biso   1.000  C
  C116     1.0000 0.36776  0.15410  0.03437  Biso   1.000  C
  H137     1.0000 0.91670  0.36540  0.52310  Biso   1.000  H
  H138     1.0000 0.58330  0.86540  0.97690  Biso   1.000  H
  H139     1.0000 0.08330  0.63460  0.47690  Biso   1.000  H
  H140     1.0000 0.41670  0.13460  0.02310  Biso   1.000  H
  C117     1.0000 0.74692  0.35900  0.55232  Biso   1.000  C
  C118     1.0000 0.75308  0.85900  0.94768  Biso   1.000  C
  C119     1.0000 0.25308  0.64100  0.44768  Biso   1.000  C
  C120     1.0000 0.24692  0.14100  0.05232  Biso   1.000  C
  H141     1.0000 0.69430  0.38650  0.55630  Biso   1.000  H
  H142     1.0000 0.80570  0.88650  0.94370  Biso   1.000  H
  H143     1.0000 0.30570  0.61350  0.44370  Biso   1.000  H
  H144     1.0000 0.19430  0.11350  0.05630  Biso   1.000  H
  C121     1.0000 0.99960  0.65710  0.80020  Biso   1.000  C
  C122     1.0000 0.50040  0.15710  0.69980  Biso   1.000  C
  C123     1.0000 0.00040  0.34290  0.19980  Biso   1.000  C
  C124     1.0000 0.49960  0.84290  0.30020  Biso   1.000  C
  C125     1.0000 0.96030  0.57510  0.82000  Biso   1.000  C
  C126     1.0000 0.53970  0.07510  0.68000  Biso   1.000  C
  C127     1.0000 0.03970  0.42490  0.18000  Biso   1.000  C
  C128     1.0000 0.46030  0.92490  0.32000  Biso   1.000  C
  H145     1.0000 0.97320  0.58400  0.86260  Biso   1.000  H
  H146     1.0000 0.52680  0.08400  0.63740  Biso   1.000  H
  H147     1.0000 0.02680  0.41600  0.13740  Biso   1.000  H
  H148     1.0000 0.47320  0.91600  0.36260  Biso   1.000  H
  H149     1.0000 0.98150  0.50100  0.81190  Biso   1.000  H
  H150     1.0000 0.51850  0.00100  0.68810  Biso   1.000  H
  H151     1.0000 0.01850  0.49900  0.18810  Biso   1.000  H
  H152     1.0000 0.48150  0.99900  0.31190  Biso   1.000  H
  H153     1.0000 0.89730  0.57990  0.80010  Biso   1.000  H
  H154     1.0000 0.60270  0.07990  0.69990  Biso   1.000  H
  H155     1.0000 0.10270  0.42010  0.19990  Biso   1.000  H
  H156     1.0000 0.39730  0.92010  0.30010  Biso   1.000  H
  N49      1.0000 0.03220  0.72570  0.77680  Biso   1.000  N
  N50      1.0000 0.46780  0.22570  0.72320  Biso   1.000  N
  N51      1.0000 0.96780  0.27430  0.22320  Biso   1.000  N
  N52      1.0000 0.53220  0.77430  0.27680  Biso   1.000  N
  O1       1.0000 0.88926  0.03233  0.03366  Biso   1.000  O
  O2       1.0000 0.61074  0.53233  0.46634  Biso   1.000  O
  O3       1.0000 0.11074  0.96767  0.96634  Biso   1.000  O
  O4       1.0000 0.38926  0.46767  0.53366  Biso   1.000  O
  H157     1.0000 0.92690  0.08390  0.03570  Biso   1.000  H
  H158     1.0000 0.57310  0.58390  0.46430  Biso   1.000  H
  H159     1.0000 0.07310  0.91610  0.96430  Biso   1.000  H
  H160     1.0000 0.42690  0.41610  0.53570  Biso   1.000  H
  H161     1.0000 0.90580  0.96570  0.03460  Biso   1.000  H
  H162     1.0000 0.59420  0.46570  0.46540  Biso   1.000  H
  H163     1.0000 0.09420  0.03430  0.96540  Biso   1.000  H
  H164     1.0000 0.40580  0.53430  0.53460  Biso   1.000  H
  O5       1.0000 0.49120  0.58560  0.94314  Biso   1.000  O
  O6       1.0000 0.00880  0.08560  0.55686  Biso   1.000  O
  O7       1.0000 0.50880  0.41440  0.05686  Biso   1.000  O
  O8       1.0000 0.99120  0.91440  0.44314  Biso   1.000  O
  H165     1.0000 0.53720  0.62670  0.94560  Biso   1.000  H
  H166     1.0000 0.96280  0.12670  0.55440  Biso   1.000  H
  H167     1.0000 0.46280  0.37330  0.05440  Biso   1.000  H
  H168     1.0000 0.03720  0.87330  0.44560  Biso   1.000  H
  H169     1.0000 0.50730  0.51770  0.95650  Biso   1.000  H
  H170     1.0000 0.99270  0.01770  0.54350  Biso   1.000  H
  H171     1.0000 0.49270  0.48230  0.04350  Biso   1.000  H
  H172     1.0000 0.00730  0.98230  0.45650  Biso   1.000  H
  O9       1.0000 0.55150  0.64970  0.09820  Biso   1.000  O
  O10      1.0000 0.94850  0.14970  0.40180  Biso   1.000  O
  O11      1.0000 0.44850  0.35030  0.90180  Biso   1.000  O
  O12      1.0000 0.05150  0.85030  0.59820  Biso   1.000  O
  H173     1.0000 0.57210  0.71670  0.09700  Biso   1.000  H
  H174     1.0000 0.92790  0.21670  0.40300  Biso   1.000  H
  H175     1.0000 0.42790  0.28330  0.90300  Biso   1.000  H
  H176     1.0000 0.07210  0.78330  0.59700  Biso   1.000  H
  H177     1.0000 0.49850  0.66140  0.07670  Biso   1.000  H
  H178     1.0000 0.00150  0.16140  0.42330  Biso   1.000  H
  H179     1.0000 0.50150  0.33860  0.92330  Biso   1.000  H
  H180     1.0000 0.99850  0.83860  0.57670  Biso   1.000  H
  O13      1.0000 0.60780  0.64070  0.21550  Biso   1.000  O
  O14      1.0000 0.89220  0.14070  0.28450  Biso   1.000  O
  O15      1.0000 0.39220  0.35930  0.78450  Biso   1.000  O
  O16      1.0000 0.10780  0.85930  0.71550  Biso   1.000  O
  H181     1.0000 0.62500  0.66390  0.25110  Biso   1.000  H
  H182     1.0000 0.87500  0.16390  0.24890  Biso   1.000  H
  H183     1.0000 0.37500  0.33610  0.74890  Biso   1.000  H
  H184     1.0000 0.12500  0.83610  0.75110  Biso   1.000  H
  H185     1.0000 0.62450  0.57150  0.21900  Biso   1.000  H
  H186     1.0000 0.87550  0.07150  0.28100  Biso   1.000  H
  H187     1.0000 0.37550  0.42850  0.78100  Biso   1.000  H
  H188     1.0000 0.12450  0.92850  0.71900  Biso   1.000  H
  O17      1.0000 0.00000  0.50000  0.00000  Biso   1.000  O
  O18      1.0000 0.50000  0.00000  0.50000  Biso   1.000  O
  O19      1.0000 0.92770  0.45010  0.93510  Biso   1.000  O
  O20      1.0000 0.57230  0.95010  0.56490  Biso   1.000  O
  O21      1.0000 0.07230  0.54990  0.06490  Biso   1.000  O
  O22      1.0000 0.42770  0.04990  0.43510  Biso   1.000  O
