data_image0
_cell_length_a       18.319
_cell_length_b       8.4965
_cell_length_c       21.474
_cell_angle_alpha    90
_cell_angle_beta     90
_cell_angle_gamma    90

_symmetry_space_group_name_H-M    "P 1"
_symmetry_int_tables_number       1

loop_
  _symmetry_equiv_pos_as_xyz
  'x, y, z'

loop_
  _atom_site_label
  _atom_site_occupancy
  _atom_site_fract_x
  _atom_site_fract_y
  _atom_site_fract_z
  _atom_site_thermal_displace_type
  _atom_site_B_iso_or_equiv
  _atom_site_type_symbol
  Cu1      1.0000 0.00000  0.50000  0.00000  Biso   1.000  Cu
  Cu2      1.0000 0.50000  0.50000  0.50000  Biso   1.000  Cu
  Cu3      1.0000 0.00000  0.00000  0.50000  Biso   1.000  Cu
  Cu4      1.0000 0.50000  0.00000  0.00000  Biso   1.000  Cu
  Cl1      1.0000 0.91577  0.35335  0.08463  Biso   1.000  Cl
  Cl2      1.0000 0.58423  0.64665  0.58463  Biso   1.000  Cl
  Cl3      1.0000 0.08423  0.85335  0.41537  Biso   1.000  Cl
  Cl4      1.0000 0.41577  0.14665  0.91537  Biso   1.000  Cl
  Cl5      1.0000 0.08423  0.64665  0.91537  Biso   1.000  Cl
  Cl6      1.0000 0.41577  0.35335  0.41537  Biso   1.000  Cl
  Cl7      1.0000 0.91577  0.14665  0.58463  Biso   1.000  Cl
  Cl8      1.0000 0.58423  0.85335  0.08463  Biso   1.000  Cl
  N1       1.0000 0.96378  0.87790  0.11794  Biso   1.000  N
  N2       1.0000 0.53622  0.12210  0.61794  Biso   1.000  N
  N3       1.0000 0.03622  0.37790  0.38206  Biso   1.000  N
  N4       1.0000 0.46378  0.62210  0.88206  Biso   1.000  N
  N5       1.0000 0.03622  0.12210  0.88206  Biso   1.000  N
  N6       1.0000 0.46378  0.87790  0.38206  Biso   1.000  N
  N7       1.0000 0.96378  0.62210  0.61794  Biso   1.000  N
  N8       1.0000 0.53622  0.37790  0.11794  Biso   1.000  N
  N9       1.0000 0.02623  0.93430  0.09232  Biso   1.000  N
  N10      1.0000 0.47377  0.06570  0.59232  Biso   1.000  N
  N11      1.0000 0.97377  0.43430  0.40768  Biso   1.000  N
  N12      1.0000 0.52623  0.56570  0.90768  Biso   1.000  N
  N13      1.0000 0.97377  0.06570  0.90768  Biso   1.000  N
  N14      1.0000 0.52623  0.93430  0.40768  Biso   1.000  N
  N15      1.0000 0.02623  0.56570  0.59232  Biso   1.000  N
  N16      1.0000 0.47377  0.43430  0.09232  Biso   1.000  N
  N17      1.0000 0.99939  0.69730  0.05355  Biso   1.000  N
  N18      1.0000 0.50061  0.30270  0.55355  Biso   1.000  N
  N19      1.0000 0.00061  0.19730  0.44645  Biso   1.000  N
  N20      1.0000 0.49939  0.80270  0.94645  Biso   1.000  N
  N21      1.0000 0.00061  0.30270  0.94645  Biso   1.000  N
  N22      1.0000 0.49939  0.69730  0.44645  Biso   1.000  N
  N23      1.0000 0.99939  0.80270  0.55355  Biso   1.000  N
  N24      1.0000 0.50061  0.19730  0.05355  Biso   1.000  N
  N25      1.0000 0.84125  0.78210  0.39342  Biso   1.000  N
  N26      1.0000 0.65875  0.21790  0.89342  Biso   1.000  N
  N27      1.0000 0.15875  0.28210  0.10658  Biso   1.000  N
  N28      1.0000 0.34125  0.71790  0.60658  Biso   1.000  N
  N29      1.0000 0.15875  0.21790  0.60658  Biso   1.000  N
  N30      1.0000 0.34125  0.78210  0.10658  Biso   1.000  N
  N31      1.0000 0.84125  0.71790  0.89342  Biso   1.000  N
  N32      1.0000 0.65875  0.28210  0.39342  Biso   1.000  N
  N33      1.0000 0.79589  0.89700  0.41510  Biso   1.000  N
  N34      1.0000 0.70411  0.10300  0.91510  Biso   1.000  N
  N35      1.0000 0.20411  0.39700  0.08490  Biso   1.000  N
  N36      1.0000 0.29589  0.60300  0.58490  Biso   1.000  N
  N37      1.0000 0.20411  0.10300  0.58490  Biso   1.000  N
  N38      1.0000 0.29589  0.89700  0.08490  Biso   1.000  N
  N39      1.0000 0.79589  0.60300  0.91510  Biso   1.000  N
  N40      1.0000 0.70411  0.39700  0.41510  Biso   1.000  N
  N41      1.0000 0.90746  0.91970  0.45753  Biso   1.000  N
  N42      1.0000 0.59254  0.08030  0.95753  Biso   1.000  N
  N43      1.0000 0.09254  0.41970  0.04247  Biso   1.000  N
  N44      1.0000 0.40746  0.58030  0.54247  Biso   1.000  N
  N45      1.0000 0.09254  0.08030  0.54247  Biso   1.000  N
  N46      1.0000 0.40746  0.91970  0.04247  Biso   1.000  N
  N47      1.0000 0.90746  0.58030  0.95753  Biso   1.000  N
  N48      1.0000 0.59254  0.41970  0.45753  Biso   1.000  N
  C1       1.0000 0.04498  0.82170  0.05374  Biso   1.000  C
  C2       1.0000 0.45502  0.17830  0.55374  Biso   1.000  C
  C3       1.0000 0.95502  0.32170  0.44626  Biso   1.000  C
  C4       1.0000 0.54498  0.67830  0.94626  Biso   1.000  C
  C5       1.0000 0.95502  0.17830  0.94626  Biso   1.000  C
  C6       1.0000 0.54498  0.82170  0.44626  Biso   1.000  C
  C7       1.0000 0.04498  0.67830  0.55374  Biso   1.000  C
  C8       1.0000 0.45502  0.32170  0.05374  Biso   1.000  C
  H1       1.0000 0.08630  0.82730  0.02860  Biso   1.000  H
  H2       1.0000 0.41370  0.17270  0.52860  Biso   1.000  H
  H3       1.0000 0.91370  0.32730  0.47140  Biso   1.000  H
  H4       1.0000 0.58630  0.67270  0.97140  Biso   1.000  H
  H5       1.0000 0.91370  0.17270  0.97140  Biso   1.000  H
  H6       1.0000 0.58630  0.82730  0.47140  Biso   1.000  H
  H7       1.0000 0.08630  0.67270  0.52860  Biso   1.000  H
  H8       1.0000 0.41370  0.32730  0.02860  Biso   1.000  H
  C9       1.0000 0.94916  0.73690  0.09489  Biso   1.000  C
  C10      1.0000 0.55084  0.26310  0.59489  Biso   1.000  C
  C11      1.0000 0.05084  0.23690  0.40511  Biso   1.000  C
  C12      1.0000 0.44916  0.76310  0.90511  Biso   1.000  C
  C13      1.0000 0.05084  0.26310  0.90511  Biso   1.000  C
  C14      1.0000 0.44916  0.73690  0.40511  Biso   1.000  C
  C15      1.0000 0.94916  0.76310  0.59489  Biso   1.000  C
  C16      1.0000 0.55084  0.23690  0.09489  Biso   1.000  C
  H9       1.0000 0.90950  0.67490  0.10610  Biso   1.000  H
  H10      1.0000 0.59050  0.32510  0.60610  Biso   1.000  H
  H11      1.0000 0.09050  0.17490  0.39390  Biso   1.000  H
  H12      1.0000 0.40950  0.82510  0.89390  Biso   1.000  H
  H13      1.0000 0.09050  0.32510  0.89390  Biso   1.000  H
  H14      1.0000 0.40950  0.67490  0.39390  Biso   1.000  H
  H15      1.0000 0.90950  0.82510  0.60610  Biso   1.000  H
  H16      1.0000 0.59050  0.17490  0.10610  Biso   1.000  H
  C17      1.0000 0.83829  0.97480  0.45375  Biso   1.000  C
  C18      1.0000 0.66171  0.02520  0.95375  Biso   1.000  C
  C19      1.0000 0.16171  0.47480  0.04625  Biso   1.000  C
  C20      1.0000 0.33829  0.52520  0.54625  Biso   1.000  C
  C21      1.0000 0.16171  0.02520  0.54625  Biso   1.000  C
  C22      1.0000 0.33829  0.97480  0.04625  Biso   1.000  C
  C23      1.0000 0.83829  0.52520  0.95375  Biso   1.000  C
  C24      1.0000 0.66171  0.47480  0.45375  Biso   1.000  C
  H17      1.0000 0.82200  0.06080  0.47670  Biso   1.000  H
  H18      1.0000 0.67800  0.93920  0.97670  Biso   1.000  H
  H19      1.0000 0.17800  0.56080  0.02330  Biso   1.000  H
  H20      1.0000 0.32200  0.43920  0.52330  Biso   1.000  H
  H21      1.0000 0.17800  0.93920  0.52330  Biso   1.000  H
  H22      1.0000 0.32200  0.06080  0.02330  Biso   1.000  H
  H23      1.0000 0.82200  0.43920  0.97670  Biso   1.000  H
  H24      1.0000 0.67800  0.56080  0.47670  Biso   1.000  H
  C25      1.0000 0.90666  0.79860  0.41891  Biso   1.000  C
  C26      1.0000 0.59334  0.20140  0.91891  Biso   1.000  C
  C27      1.0000 0.09334  0.29860  0.08109  Biso   1.000  C
  C28      1.0000 0.40666  0.70140  0.58109  Biso   1.000  C
  C29      1.0000 0.09334  0.20140  0.58109  Biso   1.000  C
  C30      1.0000 0.40666  0.79860  0.08109  Biso   1.000  C
  C31      1.0000 0.90666  0.70140  0.91891  Biso   1.000  C
  C32      1.0000 0.59334  0.29860  0.41891  Biso   1.000  C
  H25      1.0000 0.94650  0.73400  0.41080  Biso   1.000  H
  H26      1.0000 0.55350  0.26600  0.91080  Biso   1.000  H
  H27      1.0000 0.05350  0.23400  0.08920  Biso   1.000  H
  H28      1.0000 0.44650  0.76600  0.58920  Biso   1.000  H
  H29      1.0000 0.05350  0.26600  0.58920  Biso   1.000  H
  H30      1.0000 0.44650  0.73400  0.08920  Biso   1.000  H
  H31      1.0000 0.94650  0.76600  0.91080  Biso   1.000  H
  H32      1.0000 0.55350  0.23400  0.41080  Biso   1.000  H
  C33      1.0000 0.85927  0.89770  0.19300  Biso   1.000  C
  C34      1.0000 0.64073  0.10230  0.69300  Biso   1.000  C
  C35      1.0000 0.14073  0.39770  0.30700  Biso   1.000  C
  C36      1.0000 0.35927  0.60230  0.80700  Biso   1.000  C
  C37      1.0000 0.14073  0.10230  0.80700  Biso   1.000  C
  C38      1.0000 0.35927  0.89770  0.30700  Biso   1.000  C
  C39      1.0000 0.85927  0.60230  0.69300  Biso   1.000  C
  C40      1.0000 0.64073  0.39770  0.19300  Biso   1.000  C
  C41      1.0000 0.86912  0.81090  0.24802  Biso   1.000  C
  C42      1.0000 0.63088  0.18910  0.74802  Biso   1.000  C
  C43      1.0000 0.13088  0.31090  0.25198  Biso   1.000  C
  C44      1.0000 0.36912  0.68910  0.75198  Biso   1.000  C
  C45      1.0000 0.13088  0.18910  0.75198  Biso   1.000  C
  C46      1.0000 0.36912  0.81090  0.25198  Biso   1.000  C
  C47      1.0000 0.86912  0.68910  0.74802  Biso   1.000  C
  C48      1.0000 0.63088  0.31090  0.24802  Biso   1.000  C
  C49      1.0000 0.80861  0.75940  0.28214  Biso   1.000  C
  C50      1.0000 0.69139  0.24060  0.78214  Biso   1.000  C
  C51      1.0000 0.19139  0.25940  0.21786  Biso   1.000  C
  C52      1.0000 0.30861  0.74060  0.71786  Biso   1.000  C
  C53      1.0000 0.19139  0.24060  0.71786  Biso   1.000  C
  C54      1.0000 0.30861  0.75940  0.21786  Biso   1.000  C
  C55      1.0000 0.80861  0.74060  0.78214  Biso   1.000  C
  C56      1.0000 0.69139  0.25940  0.28214  Biso   1.000  C
  C57      1.0000 0.73775  0.79060  0.26005  Biso   1.000  C
  C58      1.0000 0.76225  0.20940  0.76005  Biso   1.000  C
  C59      1.0000 0.26225  0.29060  0.23995  Biso   1.000  C
  C60      1.0000 0.23775  0.70940  0.73995  Biso   1.000  C
  C61      1.0000 0.26225  0.20940  0.73995  Biso   1.000  C
  C62      1.0000 0.23775  0.79060  0.23995  Biso   1.000  C
  C63      1.0000 0.73775  0.70940  0.76005  Biso   1.000  C
  C64      1.0000 0.76225  0.29060  0.26005  Biso   1.000  C
  C65      1.0000 0.73051  0.86920  0.20372  Biso   1.000  C
  C66      1.0000 0.76949  0.13080  0.70372  Biso   1.000  C
  C67      1.0000 0.26949  0.36920  0.29628  Biso   1.000  C
  C68      1.0000 0.23051  0.63080  0.79628  Biso   1.000  C
  C69      1.0000 0.26949  0.13080  0.79628  Biso   1.000  C
  C70      1.0000 0.23051  0.86920  0.29628  Biso   1.000  C
  C71      1.0000 0.73051  0.63080  0.70372  Biso   1.000  C
  C72      1.0000 0.76949  0.36920  0.20372  Biso   1.000  C
  H33      1.0000 0.68380  0.88620  0.18820  Biso   1.000  H
  H34      1.0000 0.81620  0.11380  0.68820  Biso   1.000  H
  H35      1.0000 0.31620  0.38620  0.31180  Biso   1.000  H
  H36      1.0000 0.18380  0.61380  0.81180  Biso   1.000  H
  H37      1.0000 0.31620  0.11380  0.81180  Biso   1.000  H
  H38      1.0000 0.18380  0.88620  0.31180  Biso   1.000  H
  H39      1.0000 0.68380  0.61380  0.68820  Biso   1.000  H
  H40      1.0000 0.81620  0.38620  0.18820  Biso   1.000  H
  C73      1.0000 0.78926  0.92330  0.16968  Biso   1.000  C
  C74      1.0000 0.71074  0.07670  0.66968  Biso   1.000  C
  C75      1.0000 0.21074  0.42330  0.33032  Biso   1.000  C
  C76      1.0000 0.28926  0.57670  0.83032  Biso   1.000  C
  C77      1.0000 0.21074  0.07670  0.83032  Biso   1.000  C
  C78      1.0000 0.28926  0.92330  0.33032  Biso   1.000  C
  C79      1.0000 0.78926  0.57670  0.66968  Biso   1.000  C
  C80      1.0000 0.71074  0.42330  0.16968  Biso   1.000  C
  C81      1.0000 0.92410  0.97660  0.16303  Biso   1.000  C
  C82      1.0000 0.57590  0.02340  0.66303  Biso   1.000  C
  C83      1.0000 0.07590  0.47660  0.33697  Biso   1.000  C
  C84      1.0000 0.42410  0.52340  0.83697  Biso   1.000  C
  C85      1.0000 0.07590  0.02340  0.83697  Biso   1.000  C
  C86      1.0000 0.42410  0.97660  0.33697  Biso   1.000  C
  C87      1.0000 0.92410  0.52340  0.66303  Biso   1.000  C
  C88      1.0000 0.57590  0.47660  0.16303  Biso   1.000  C
  H41      1.0000 0.90750  0.07100  0.14200  Biso   1.000  H
  H42      1.0000 0.59250  0.92900  0.64200  Biso   1.000  H
  H43      1.0000 0.09250  0.57100  0.35800  Biso   1.000  H
  H44      1.0000 0.40750  0.42900  0.85800  Biso   1.000  H
  H45      1.0000 0.09250  0.92900  0.85800  Biso   1.000  H
  H46      1.0000 0.40750  0.07100  0.35800  Biso   1.000  H
  H47      1.0000 0.90750  0.42900  0.64200  Biso   1.000  H
  H48      1.0000 0.59250  0.57100  0.14200  Biso   1.000  H
  H49      1.0000 0.95780  0.00880  0.19550  Biso   1.000  H
  H50      1.0000 0.54220  0.99120  0.69550  Biso   1.000  H
  H51      1.0000 0.04220  0.50880  0.30450  Biso   1.000  H
  H52      1.0000 0.45780  0.49120  0.80450  Biso   1.000  H
  H53      1.0000 0.04220  0.99120  0.80450  Biso   1.000  H
  H54      1.0000 0.45780  0.00880  0.30450  Biso   1.000  H
  H55      1.0000 0.95780  0.49120  0.69550  Biso   1.000  H
  H56      1.0000 0.54220  0.50880  0.19550  Biso   1.000  H
  C89      1.0000 0.94598  0.77400  0.26989  Biso   1.000  C
  C90      1.0000 0.55402  0.22600  0.76989  Biso   1.000  C
  C91      1.0000 0.05402  0.27400  0.23011  Biso   1.000  C
  C92      1.0000 0.44598  0.72600  0.73011  Biso   1.000  C
  C93      1.0000 0.05402  0.22600  0.73011  Biso   1.000  C
  C94      1.0000 0.44598  0.77400  0.23011  Biso   1.000  C
  C95      1.0000 0.94598  0.72600  0.76989  Biso   1.000  C
  C96      1.0000 0.55402  0.27400  0.26989  Biso   1.000  C
  H57      1.0000 0.96380  0.85920  0.29500  Biso   1.000  H
  H58      1.0000 0.53620  0.14080  0.79500  Biso   1.000  H
  H59      1.0000 0.03620  0.35920  0.20500  Biso   1.000  H
  H60      1.0000 0.46380  0.64080  0.70500  Biso   1.000  H
  H61      1.0000 0.03620  0.14080  0.70500  Biso   1.000  H
  H62      1.0000 0.46380  0.85920  0.20500  Biso   1.000  H
  H63      1.0000 0.96380  0.64080  0.79500  Biso   1.000  H
  H64      1.0000 0.53620  0.35920  0.29500  Biso   1.000  H
  H65      1.0000 0.97730  0.76040  0.23440  Biso   1.000  H
  H66      1.0000 0.52270  0.23960  0.73440  Biso   1.000  H
  H67      1.0000 0.02270  0.26040  0.26560  Biso   1.000  H
  H68      1.0000 0.47730  0.73960  0.76560  Biso   1.000  H
  H69      1.0000 0.02270  0.23960  0.76560  Biso   1.000  H
  H70      1.0000 0.47730  0.76040  0.26560  Biso   1.000  H
  H71      1.0000 0.97730  0.73960  0.73440  Biso   1.000  H
  H72      1.0000 0.52270  0.26040  0.23440  Biso   1.000  H
  H73      1.0000 0.94550  0.67900  0.29410  Biso   1.000  H
  H74      1.0000 0.55450  0.32100  0.79410  Biso   1.000  H
  H75      1.0000 0.05450  0.17900  0.20590  Biso   1.000  H
  H76      1.0000 0.44550  0.82100  0.70590  Biso   1.000  H
  H77      1.0000 0.05450  0.32100  0.70590  Biso   1.000  H
  H78      1.0000 0.44550  0.67900  0.20590  Biso   1.000  H
  H79      1.0000 0.94550  0.82100  0.79410  Biso   1.000  H
  H80      1.0000 0.55450  0.17900  0.29410  Biso   1.000  H
  C97      1.0000 0.81846  0.67500  0.34331  Biso   1.000  C
  C98      1.0000 0.68154  0.32500  0.84331  Biso   1.000  C
  C99      1.0000 0.18154  0.17500  0.15669  Biso   1.000  C
  C100     1.0000 0.31846  0.82500  0.65669  Biso   1.000  C
  C101     1.0000 0.18154  0.32500  0.65669  Biso   1.000  C
  C102     1.0000 0.31846  0.67500  0.15669  Biso   1.000  C
  C103     1.0000 0.81846  0.82500  0.84331  Biso   1.000  C
  C104     1.0000 0.68154  0.17500  0.34331  Biso   1.000  C
  H81      1.0000 0.77280  0.62500  0.35490  Biso   1.000  H
  H82      1.0000 0.72720  0.37500  0.85490  Biso   1.000  H
  H83      1.0000 0.22720  0.12500  0.14510  Biso   1.000  H
  H84      1.0000 0.27280  0.87500  0.64510  Biso   1.000  H
  H85      1.0000 0.22720  0.37500  0.64510  Biso   1.000  H
  H86      1.0000 0.27280  0.62500  0.14510  Biso   1.000  H
  H87      1.0000 0.77280  0.87500  0.85490  Biso   1.000  H
  H88      1.0000 0.72720  0.12500  0.35490  Biso   1.000  H
  H89      1.0000 0.85490  0.59310  0.33840  Biso   1.000  H
  H90      1.0000 0.64510  0.40690  0.83840  Biso   1.000  H
  H91      1.0000 0.14510  0.09310  0.16160  Biso   1.000  H
  H92      1.0000 0.35490  0.90690  0.66160  Biso   1.000  H
  H93      1.0000 0.14510  0.40690  0.66160  Biso   1.000  H
  H94      1.0000 0.35490  0.59310  0.16160  Biso   1.000  H
  H95      1.0000 0.85490  0.90690  0.83840  Biso   1.000  H
  H96      1.0000 0.64510  0.09310  0.33840  Biso   1.000  H
  C105     1.0000 0.67015  0.73940  0.29477  Biso   1.000  C
  C106     1.0000 0.82985  0.26060  0.79477  Biso   1.000  C
  C107     1.0000 0.32985  0.23940  0.20523  Biso   1.000  C
  C108     1.0000 0.17015  0.76060  0.70523  Biso   1.000  C
  C109     1.0000 0.32985  0.26060  0.70523  Biso   1.000  C
  C110     1.0000 0.17015  0.73940  0.20523  Biso   1.000  C
  C111     1.0000 0.67015  0.76060  0.79477  Biso   1.000  C
  C112     1.0000 0.82985  0.23940  0.29477  Biso   1.000  C
  H97      1.0000 0.62760  0.77420  0.27260  Biso   1.000  H
  H98      1.0000 0.87240  0.22580  0.77260  Biso   1.000  H
  H99      1.0000 0.37240  0.27420  0.22740  Biso   1.000  H
  H100     1.0000 0.12760  0.72580  0.72740  Biso   1.000  H
  H101     1.0000 0.37240  0.22580  0.72740  Biso   1.000  H
  H102     1.0000 0.12760  0.77420  0.22740  Biso   1.000  H
  H103     1.0000 0.62760  0.72580  0.77260  Biso   1.000  H
  H104     1.0000 0.87240  0.27420  0.27260  Biso   1.000  H
  H105     1.0000 0.67040  0.78480  0.33570  Biso   1.000  H
  H106     1.0000 0.82960  0.21520  0.83570  Biso   1.000  H
  H107     1.0000 0.32960  0.28480  0.16430  Biso   1.000  H
  H108     1.0000 0.17040  0.71520  0.66430  Biso   1.000  H
  H109     1.0000 0.32960  0.21520  0.66430  Biso   1.000  H
  H110     1.0000 0.17040  0.78480  0.16430  Biso   1.000  H
  H111     1.0000 0.67040  0.71520  0.83570  Biso   1.000  H
  H112     1.0000 0.82960  0.28480  0.33570  Biso   1.000  H
  H113     1.0000 0.66950  0.62680  0.29810  Biso   1.000  H
  H114     1.0000 0.83050  0.37320  0.79810  Biso   1.000  H
  H115     1.0000 0.33050  0.12680  0.20190  Biso   1.000  H
  H116     1.0000 0.16950  0.87320  0.70190  Biso   1.000  H
  H117     1.0000 0.33050  0.37320  0.70190  Biso   1.000  H
  H118     1.0000 0.16950  0.62680  0.20190  Biso   1.000  H
  H119     1.0000 0.66950  0.87320  0.79810  Biso   1.000  H
  H120     1.0000 0.83050  0.12680  0.29810  Biso   1.000  H
  C113     1.0000 0.77636  0.00740  0.10829  Biso   1.000  C
  C114     1.0000 0.72364  0.99260  0.60829  Biso   1.000  C
  C115     1.0000 0.22364  0.50740  0.39171  Biso   1.000  C
  C116     1.0000 0.27636  0.49260  0.89171  Biso   1.000  C
  C117     1.0000 0.22364  0.99260  0.89171  Biso   1.000  C
  C118     1.0000 0.27636  0.00740  0.39171  Biso   1.000  C
  C119     1.0000 0.77636  0.49260  0.60829  Biso   1.000  C
  C120     1.0000 0.72364  0.50740  0.10829  Biso   1.000  C
  H121     1.0000 0.72530  0.00480  0.09840  Biso   1.000  H
  H122     1.0000 0.77470  0.99520  0.59840  Biso   1.000  H
  H123     1.0000 0.27470  0.50480  0.40160  Biso   1.000  H
  H124     1.0000 0.22530  0.49520  0.90160  Biso   1.000  H
  H125     1.0000 0.27470  0.99520  0.90160  Biso   1.000  H
  H126     1.0000 0.22530  0.00480  0.40160  Biso   1.000  H
  H127     1.0000 0.72530  0.49520  0.59840  Biso   1.000  H
  H128     1.0000 0.77470  0.50480  0.09840  Biso   1.000  H
  H129     1.0000 0.80350  0.95590  0.07590  Biso   1.000  H
  H130     1.0000 0.69650  0.04410  0.57590  Biso   1.000  H
  H131     1.0000 0.19650  0.45590  0.42410  Biso   1.000  H
  H132     1.0000 0.30350  0.54410  0.92410  Biso   1.000  H
  H133     1.0000 0.19650  0.04410  0.92410  Biso   1.000  H
  H134     1.0000 0.30350  0.95590  0.42410  Biso   1.000  H
  H135     1.0000 0.80350  0.54410  0.57590  Biso   1.000  H
  H136     1.0000 0.69650  0.45590  0.07590  Biso   1.000  H
  H137     1.0000 0.79220  0.11480  0.11170  Biso   1.000  H
  H138     1.0000 0.70780  0.88520  0.61170  Biso   1.000  H
  H139     1.0000 0.20780  0.61480  0.38830  Biso   1.000  H
  H140     1.0000 0.29220  0.38520  0.88830  Biso   1.000  H
  H141     1.0000 0.20780  0.88520  0.88830  Biso   1.000  H
  H142     1.0000 0.29220  0.11480  0.38830  Biso   1.000  H
  H143     1.0000 0.79220  0.38520  0.61170  Biso   1.000  H
  H144     1.0000 0.70780  0.61480  0.11170  Biso   1.000  H
