data_image0
_cell_length_a       12.9147
_cell_length_b       9.1615
_cell_length_c       8.2474
_cell_angle_alpha    90
_cell_angle_beta     98.49
_cell_angle_gamma    90

_symmetry_space_group_name_H-M    "P 1"
_symmetry_int_tables_number       1

loop_
  _symmetry_equiv_pos_as_xyz
  'x, y, z'

loop_
  _atom_site_label
  _atom_site_occupancy
  _atom_site_fract_x
  _atom_site_fract_y
  _atom_site_fract_z
  _atom_site_thermal_displace_type
  _atom_site_B_iso_or_equiv
  _atom_site_type_symbol
  Cu1      1.0000 0.41553  0.23749  0.09684  Biso   1.000  Cu
  Cu2      1.0000 0.58447  0.73749  0.40316  Biso   1.000  Cu
  Cu3      1.0000 0.58447  0.76251  0.90316  Biso   1.000  Cu
  Cu4      1.0000 0.41553  0.26251  0.59684  Biso   1.000  Cu
  O1       1.0000 0.36861  0.04320  0.00073  Biso   1.000  O
  O2       1.0000 0.63139  0.54320  0.49927  Biso   1.000  O
  O3       1.0000 0.63139  0.95680  0.99927  Biso   1.000  O
  O4       1.0000 0.36861  0.45680  0.50073  Biso   1.000  O
  O5       1.0000 0.44137  0.83786  0.92487  Biso   1.000  O
  O6       1.0000 0.55863  0.33786  0.57513  Biso   1.000  O
  O7       1.0000 0.55863  0.16214  0.07513  Biso   1.000  O
  O8       1.0000 0.44137  0.66214  0.42487  Biso   1.000  O
  C1       1.0000 0.44531  0.96600  0.97800  Biso   1.000  C
  C2       1.0000 0.55469  0.46600  0.52200  Biso   1.000  C
  C3       1.0000 0.55469  0.03400  0.02200  Biso   1.000  C
  C4       1.0000 0.44531  0.53400  0.47800  Biso   1.000  C
  O9       1.0000 0.48293  0.41989  0.18799  Biso   1.000  O
  O10      1.0000 0.51707  0.91989  0.31201  Biso   1.000  O
  O11      1.0000 0.51707  0.58011  0.81201  Biso   1.000  O
  O12      1.0000 0.48293  0.08011  0.68799  Biso   1.000  O
  O13      1.0000 0.56640  0.62439  0.13727  Biso   1.000  O
  O14      1.0000 0.43360  0.12439  0.36273  Biso   1.000  O
  O15      1.0000 0.43360  0.37561  0.86273  Biso   1.000  O
  O16      1.0000 0.56640  0.87561  0.63727  Biso   1.000  O
  C5       1.0000 0.51471  0.51380  0.09370  Biso   1.000  C
  C6       1.0000 0.48529  0.01380  0.40630  Biso   1.000  C
  C7       1.0000 0.48529  0.48620  0.90630  Biso   1.000  C
  C8       1.0000 0.51471  0.98620  0.59370  Biso   1.000  C
  O17      1.0000 0.11290  0.61580  0.16200  Biso   1.000  O
  O18      1.0000 0.88710  0.11580  0.33800  Biso   1.000  O
  O19      1.0000 0.88710  0.38420  0.83800  Biso   1.000  O
  O20      1.0000 0.11290  0.88420  0.66200  Biso   1.000  O
  N1       1.0000 0.27114  0.29430  0.12820  Biso   1.000  N
  N2       1.0000 0.72886  0.79430  0.37180  Biso   1.000  N
  N3       1.0000 0.72886  0.70570  0.87180  Biso   1.000  N
  N4       1.0000 0.27114  0.20570  0.62820  Biso   1.000  N
  C9       1.0000 0.24074  0.43270  0.12760  Biso   1.000  C
  C10      1.0000 0.75926  0.93270  0.37240  Biso   1.000  C
  C11      1.0000 0.75926  0.56730  0.87240  Biso   1.000  C
  C12      1.0000 0.24074  0.06730  0.62760  Biso   1.000  C
  C13      1.0000 0.14290  0.47460  0.15940  Biso   1.000  C
  C14      1.0000 0.85710  0.97460  0.34060  Biso   1.000  C
  C15      1.0000 0.85710  0.52540  0.84060  Biso   1.000  C
  C16      1.0000 0.14290  0.02540  0.65940  Biso   1.000  C
  C17      1.0000 0.07340  0.36790  0.18980  Biso   1.000  C
  C18      1.0000 0.92660  0.86790  0.31020  Biso   1.000  C
  C19      1.0000 0.92660  0.63210  0.81020  Biso   1.000  C
  C20      1.0000 0.07340  0.13210  0.68980  Biso   1.000  C
  C21      1.0000 0.10590  0.22540  0.19290  Biso   1.000  C
  C22      1.0000 0.89410  0.72540  0.30710  Biso   1.000  C
  C23      1.0000 0.89410  0.77460  0.80710  Biso   1.000  C
  C24      1.0000 0.10590  0.27460  0.69290  Biso   1.000  C
  C25      1.0000 0.20420  0.19140  0.16100  Biso   1.000  C
  C26      1.0000 0.79580  0.69140  0.33900  Biso   1.000  C
  C27      1.0000 0.79580  0.80860  0.83900  Biso   1.000  C
  C28      1.0000 0.20420  0.30860  0.66100  Biso   1.000  C
  H1       1.0000 0.28700  0.50400  0.10500  Biso   1.000  H
  H2       1.0000 0.71300  0.00400  0.39500  Biso   1.000  H
  H3       1.0000 0.71300  0.49600  0.89500  Biso   1.000  H
  H4       1.0000 0.28700  0.99600  0.60500  Biso   1.000  H
  H5       1.0000 0.16000  0.67100  0.15700  Biso   1.000  H
  H6       1.0000 0.84000  0.17100  0.34300  Biso   1.000  H
  H7       1.0000 0.84000  0.32900  0.84300  Biso   1.000  H
  H8       1.0000 0.16000  0.82900  0.65700  Biso   1.000  H
  H9       1.0000 0.00700  0.39400  0.19900  Biso   1.000  H
  H10      1.0000 0.99300  0.89400  0.30100  Biso   1.000  H
  H11      1.0000 0.99300  0.60600  0.80100  Biso   1.000  H
  H12      1.0000 0.00700  0.10600  0.69900  Biso   1.000  H
  H13      1.0000 0.06200  0.14600  0.21200  Biso   1.000  H
  H14      1.0000 0.93800  0.64600  0.28800  Biso   1.000  H
  H15      1.0000 0.93800  0.85400  0.78800  Biso   1.000  H
  H16      1.0000 0.06200  0.35400  0.71200  Biso   1.000  H
  H17      1.0000 0.22700  0.09900  0.16300  Biso   1.000  H
  H18      1.0000 0.77300  0.59900  0.33700  Biso   1.000  H
  H19      1.0000 0.77300  0.90100  0.83700  Biso   1.000  H
  H20      1.0000 0.22700  0.40100  0.66300  Biso   1.000  H
  O21      1.0000 0.72368  0.29520  0.30220  Biso   1.000  O
  O22      1.0000 0.27632  0.79520  0.19780  Biso   1.000  O
  O23      1.0000 0.27632  0.70480  0.69780  Biso   1.000  O
  O24      1.0000 0.72368  0.20480  0.80220  Biso   1.000  O
  H21      1.0000 0.70200  0.35000  0.38600  Biso   1.000  H
  H22      1.0000 0.29800  0.85000  0.11400  Biso   1.000  H
  H23      1.0000 0.29800  0.65000  0.61400  Biso   1.000  H
  H24      1.0000 0.70200  0.15000  0.88600  Biso   1.000  H
  H25      1.0000 0.68200  0.26700  0.22400  Biso   1.000  H
  H26      1.0000 0.31800  0.76700  0.27600  Biso   1.000  H
  H27      1.0000 0.31800  0.73300  0.77600  Biso   1.000  H
  H28      1.0000 0.68200  0.23300  0.72400  Biso   1.000  H
