data_image0
_cell_length_a       6.713
_cell_length_b       11.872
_cell_length_c       11.578
_cell_angle_alpha    90
_cell_angle_beta     90
_cell_angle_gamma    90

_symmetry_space_group_name_H-M    "P 1"
_symmetry_int_tables_number       1

loop_
  _symmetry_equiv_pos_as_xyz
  'x, y, z'

loop_
  _atom_site_label
  _atom_site_occupancy
  _atom_site_fract_x
  _atom_site_fract_y
  _atom_site_fract_z
  _atom_site_thermal_displace_type
  _atom_site_B_iso_or_equiv
  _atom_site_type_symbol
  Cu1      1.0000 0.00000  0.21666  0.49483  Biso   1.000  Cu
  Cu2      1.0000 0.50000  0.21666  0.00517  Biso   1.000  Cu
  Cu3      1.0000 0.50000  0.78334  0.99483  Biso   1.000  Cu
  Cu4      1.0000 0.00000  0.78334  0.50517  Biso   1.000  Cu
  N1       1.0000 0.00000  0.10800  0.69320  Biso   1.000  N
  N2       1.0000 0.50000  0.10800  0.80680  Biso   1.000  N
  N3       1.0000 0.50000  0.89200  0.19320  Biso   1.000  N
  N4       1.0000 0.00000  0.89200  0.30680  Biso   1.000  N
  O1       1.0000 0.00000  0.21390  0.66880  Biso   1.000  O
  O2       1.0000 0.50000  0.21390  0.83120  Biso   1.000  O
  O3       1.0000 0.50000  0.78610  0.16880  Biso   1.000  O
  O4       1.0000 0.00000  0.78610  0.33120  Biso   1.000  O
  O5       1.0000 0.00000  0.04090  0.61040  Biso   1.000  O
  O6       1.0000 0.50000  0.04090  0.88960  Biso   1.000  O
  O7       1.0000 0.50000  0.95910  0.11040  Biso   1.000  O
  O8       1.0000 0.00000  0.95910  0.38960  Biso   1.000  O
  O9       1.0000 0.00000  0.07940  0.79400  Biso   1.000  O
  O10      1.0000 0.50000  0.07940  0.70600  Biso   1.000  O
  O11      1.0000 0.50000  0.92060  0.29400  Biso   1.000  O
  O12      1.0000 0.00000  0.92060  0.20600  Biso   1.000  O
  N5       1.0000 0.00000  0.33280  0.30530  Biso   1.000  N
  N6       1.0000 0.50000  0.33280  0.19470  Biso   1.000  N
  N7       1.0000 0.50000  0.66720  0.80530  Biso   1.000  N
  N8       1.0000 0.00000  0.66720  0.69470  Biso   1.000  N
  O13      1.0000 0.00000  0.22570  0.32430  Biso   1.000  O
  O14      1.0000 0.50000  0.22570  0.17570  Biso   1.000  O
  O15      1.0000 0.50000  0.77430  0.82430  Biso   1.000  O
  O16      1.0000 0.00000  0.77430  0.67570  Biso   1.000  O
  O17      1.0000 0.00000  0.39610  0.39090  Biso   1.000  O
  O18      1.0000 0.50000  0.39610  0.10910  Biso   1.000  O
  O19      1.0000 0.50000  0.60390  0.89090  Biso   1.000  O
  O20      1.0000 0.00000  0.60390  0.60910  Biso   1.000  O
  O21      1.0000 0.00000  0.36630  0.20590  Biso   1.000  O
  O22      1.0000 0.50000  0.36630  0.29410  Biso   1.000  O
  O23      1.0000 0.50000  0.63370  0.70590  Biso   1.000  O
  O24      1.0000 0.00000  0.63370  0.79410  Biso   1.000  O
  N9       1.0000 0.70430  0.21880  0.49488  Biso   1.000  N
  N10      1.0000 0.20430  0.21880  0.00512  Biso   1.000  N
  N11      1.0000 0.20430  0.78120  0.99488  Biso   1.000  N
  N12      1.0000 0.29570  0.21880  0.49488  Biso   1.000  N
  N13      1.0000 0.29570  0.78120  0.50512  Biso   1.000  N
  N14      1.0000 0.79570  0.78120  0.99488  Biso   1.000  N
  N15      1.0000 0.79570  0.21880  0.00512  Biso   1.000  N
  N16      1.0000 0.70430  0.78120  0.50512  Biso   1.000  N
  C1       1.0000 0.60300  0.14020  0.43750  Biso   1.000  C
  C2       1.0000 0.10300  0.14020  0.06250  Biso   1.000  C
  C3       1.0000 0.10300  0.85980  0.93750  Biso   1.000  C
  C4       1.0000 0.39700  0.14020  0.43750  Biso   1.000  C
  C5       1.0000 0.39700  0.85980  0.56250  Biso   1.000  C
  C6       1.0000 0.89700  0.85980  0.93750  Biso   1.000  C
  C7       1.0000 0.89700  0.14020  0.06250  Biso   1.000  C
  C8       1.0000 0.60300  0.85980  0.56250  Biso   1.000  C
  H1       1.0000 0.67300  0.08360  0.39610  Biso   1.000  H
  H2       1.0000 0.17300  0.08360  0.10390  Biso   1.000  H
  H3       1.0000 0.17300  0.91640  0.89610  Biso   1.000  H
  H4       1.0000 0.32700  0.08360  0.39610  Biso   1.000  H
  H5       1.0000 0.32700  0.91640  0.60390  Biso   1.000  H
  H6       1.0000 0.82700  0.91640  0.89610  Biso   1.000  H
  H7       1.0000 0.82700  0.08360  0.10390  Biso   1.000  H
  H8       1.0000 0.67300  0.91640  0.60390  Biso   1.000  H
  C9       1.0000 0.60290  0.29830  0.55030  Biso   1.000  C
  C10      1.0000 0.10290  0.29830  0.94970  Biso   1.000  C
  C11      1.0000 0.10290  0.70170  0.05030  Biso   1.000  C
  C12      1.0000 0.39710  0.29830  0.55030  Biso   1.000  C
  C13      1.0000 0.39710  0.70170  0.44970  Biso   1.000  C
  C14      1.0000 0.89710  0.70170  0.05030  Biso   1.000  C
  C15      1.0000 0.89710  0.29830  0.94970  Biso   1.000  C
  C16      1.0000 0.60290  0.70170  0.44970  Biso   1.000  C
  H9       1.0000 0.67270  0.35580  0.59050  Biso   1.000  H
  H10      1.0000 0.17270  0.35580  0.90950  Biso   1.000  H
  H11      1.0000 0.17270  0.64420  0.09050  Biso   1.000  H
  H12      1.0000 0.32730  0.35580  0.59050  Biso   1.000  H
  H13      1.0000 0.32730  0.64420  0.40950  Biso   1.000  H
  H14      1.0000 0.82730  0.64420  0.09050  Biso   1.000  H
  H15      1.0000 0.82730  0.35580  0.90950  Biso   1.000  H
  H16      1.0000 0.67270  0.64420  0.40950  Biso   1.000  H
  C17      1.0000 0.69430  0.39570  0.61260  Biso   1.000  C
  C18      1.0000 0.19430  0.39570  0.88740  Biso   1.000  C
  C19      1.0000 0.19430  0.60430  0.11260  Biso   1.000  C
  C20      1.0000 0.30570  0.39570  0.61260  Biso   1.000  C
  C21      1.0000 0.30570  0.60430  0.38740  Biso   1.000  C
  C22      1.0000 0.80570  0.60430  0.11260  Biso   1.000  C
  C23      1.0000 0.80570  0.39570  0.88740  Biso   1.000  C
  C24      1.0000 0.69430  0.60430  0.38740  Biso   1.000  C
  H17      1.0000 0.78240  0.36770  0.67370  Biso   1.000  H
  H18      1.0000 0.28240  0.36770  0.82630  Biso   1.000  H
  H19      1.0000 0.28240  0.63230  0.17370  Biso   1.000  H
  H20      1.0000 0.21760  0.36770  0.67370  Biso   1.000  H
  H21      1.0000 0.21760  0.63230  0.32630  Biso   1.000  H
  H22      1.0000 0.71760  0.63230  0.17370  Biso   1.000  H
  H23      1.0000 0.71760  0.36770  0.82630  Biso   1.000  H
  H24      1.0000 0.78240  0.63230  0.32630  Biso   1.000  H
  H25      1.0000 0.58890  0.44200  0.64690  Biso   1.000  H
  H26      1.0000 0.08890  0.44200  0.85310  Biso   1.000  H
  H27      1.0000 0.08890  0.55800  0.14690  Biso   1.000  H
  H28      1.0000 0.41110  0.44200  0.64690  Biso   1.000  H
  H29      1.0000 0.41110  0.55800  0.35310  Biso   1.000  H
  H30      1.0000 0.91110  0.55800  0.14690  Biso   1.000  H
  H31      1.0000 0.91110  0.44200  0.85310  Biso   1.000  H
  H32      1.0000 0.58890  0.55800  0.35310  Biso   1.000  H
  H33      1.0000 0.77160  0.44130  0.55810  Biso   1.000  H
  H34      1.0000 0.27160  0.44130  0.94190  Biso   1.000  H
  H35      1.0000 0.27160  0.55870  0.05810  Biso   1.000  H
  H36      1.0000 0.22840  0.44130  0.55810  Biso   1.000  H
  H37      1.0000 0.22840  0.55870  0.44190  Biso   1.000  H
  H38      1.0000 0.72840  0.55870  0.05810  Biso   1.000  H
  H39      1.0000 0.72840  0.44130  0.94190  Biso   1.000  H
  H40      1.0000 0.77160  0.55870  0.44190  Biso   1.000  H
