data_image0
_cell_length_a       18.5853
_cell_length_b       18.5547
_cell_length_c       26.382
_cell_angle_alpha    90
_cell_angle_beta     90
_cell_angle_gamma    90

_symmetry_space_group_name_H-M    "P 1"
_symmetry_int_tables_number       1

loop_
  _symmetry_equiv_pos_as_xyz
  'x, y, z'

loop_
  _atom_site_label
  _atom_site_occupancy
  _atom_site_fract_x
  _atom_site_fract_y
  _atom_site_fract_z
  _atom_site_thermal_displace_type
  _atom_site_B_iso_or_equiv
  _atom_site_type_symbol
  Cu1      1.0000 0.28410  0.78774  0.19192  Biso   1.000  Cu
  Cu2      1.0000 0.71590  0.21226  0.19192  Biso   1.000  Cu
  Cu3      1.0000 0.28410  0.21226  0.80808  Biso   1.000  Cu
  Cu4      1.0000 0.71590  0.78774  0.80808  Biso   1.000  Cu
  Cu5      1.0000 0.78410  0.28774  0.69192  Biso   1.000  Cu
  Cu6      1.0000 0.21590  0.71226  0.69192  Biso   1.000  Cu
  Cu7      1.0000 0.78410  0.71226  0.30808  Biso   1.000  Cu
  Cu8      1.0000 0.21590  0.28774  0.30808  Biso   1.000  Cu
  Cu9      1.0000 0.71590  0.21226  0.80808  Biso   1.000  Cu
  Cu10     1.0000 0.28410  0.78774  0.80808  Biso   1.000  Cu
  Cu11     1.0000 0.71590  0.78774  0.19192  Biso   1.000  Cu
  Cu12     1.0000 0.28410  0.21226  0.19192  Biso   1.000  Cu
  Cu13     1.0000 0.21590  0.71226  0.30808  Biso   1.000  Cu
  Cu14     1.0000 0.78410  0.28774  0.30808  Biso   1.000  Cu
  Cu15     1.0000 0.21590  0.28774  0.69192  Biso   1.000  Cu
  Cu16     1.0000 0.78410  0.71226  0.69192  Biso   1.000  Cu
  Cu17     1.0000 0.06770  0.50000  0.00000  Biso   1.000  Cu
  Cu18     1.0000 0.93230  0.50000  0.00000  Biso   1.000  Cu
  Cu19     1.0000 0.56770  0.00000  0.50000  Biso   1.000  Cu
  Cu20     1.0000 0.43230  0.00000  0.50000  Biso   1.000  Cu
  C1       1.0000 0.06384  0.66080  0.14505  Biso   1.000  C
  C2       1.0000 0.93616  0.33920  0.14505  Biso   1.000  C
  C3       1.0000 0.06384  0.33920  0.85495  Biso   1.000  C
  C4       1.0000 0.93616  0.66080  0.85495  Biso   1.000  C
  C5       1.0000 0.56384  0.16080  0.64505  Biso   1.000  C
  C6       1.0000 0.43616  0.83920  0.64505  Biso   1.000  C
  C7       1.0000 0.56384  0.83920  0.35495  Biso   1.000  C
  C8       1.0000 0.43616  0.16080  0.35495  Biso   1.000  C
  C9       1.0000 0.93616  0.33920  0.85495  Biso   1.000  C
  C10      1.0000 0.06384  0.66080  0.85495  Biso   1.000  C
  C11      1.0000 0.93616  0.66080  0.14505  Biso   1.000  C
  C12      1.0000 0.06384  0.33920  0.14505  Biso   1.000  C
  C13      1.0000 0.43616  0.83920  0.35495  Biso   1.000  C
  C14      1.0000 0.56384  0.16080  0.35495  Biso   1.000  C
  C15      1.0000 0.43616  0.16080  0.64505  Biso   1.000  C
  C16      1.0000 0.56384  0.83920  0.64505  Biso   1.000  C
  C17      1.0000 0.00000  0.63700  0.12522  Biso   1.000  C
  C18      1.0000 0.00000  0.36300  0.12522  Biso   1.000  C
  C19      1.0000 0.00000  0.36300  0.87478  Biso   1.000  C
  C20      1.0000 0.00000  0.63700  0.87478  Biso   1.000  C
  C21      1.0000 0.50000  0.13700  0.62522  Biso   1.000  C
  C22      1.0000 0.50000  0.86300  0.62522  Biso   1.000  C
  C23      1.0000 0.50000  0.86300  0.37478  Biso   1.000  C
  C24      1.0000 0.50000  0.13700  0.37478  Biso   1.000  C
  C25      1.0000 0.06384  0.70847  0.18471  Biso   1.000  C
  C26      1.0000 0.93616  0.29153  0.18471  Biso   1.000  C
  C27      1.0000 0.06384  0.29153  0.81529  Biso   1.000  C
  C28      1.0000 0.93616  0.70847  0.81529  Biso   1.000  C
  C29      1.0000 0.56384  0.20847  0.68471  Biso   1.000  C
  C30      1.0000 0.43616  0.79153  0.68471  Biso   1.000  C
  C31      1.0000 0.56384  0.79153  0.31529  Biso   1.000  C
  C32      1.0000 0.43616  0.20847  0.31529  Biso   1.000  C
  C33      1.0000 0.93616  0.29153  0.81529  Biso   1.000  C
  C34      1.0000 0.06384  0.70847  0.81529  Biso   1.000  C
  C35      1.0000 0.93616  0.70847  0.18471  Biso   1.000  C
  C36      1.0000 0.06384  0.29153  0.18471  Biso   1.000  C
  C37      1.0000 0.43616  0.79153  0.31529  Biso   1.000  C
  C38      1.0000 0.56384  0.20847  0.31529  Biso   1.000  C
  C39      1.0000 0.43616  0.20847  0.68471  Biso   1.000  C
  C40      1.0000 0.56384  0.79153  0.68471  Biso   1.000  C
  C41      1.0000 0.00000  0.73230  0.20454  Biso   1.000  C
  C42      1.0000 0.00000  0.26770  0.20454  Biso   1.000  C
  C43      1.0000 0.00000  0.26770  0.79546  Biso   1.000  C
  C44      1.0000 0.00000  0.73230  0.79546  Biso   1.000  C
  C45      1.0000 0.50000  0.23230  0.70454  Biso   1.000  C
  C46      1.0000 0.50000  0.76770  0.70454  Biso   1.000  C
  C47      1.0000 0.50000  0.76770  0.29546  Biso   1.000  C
  C48      1.0000 0.50000  0.23230  0.29546  Biso   1.000  C
  C49      1.0000 0.00000  0.58480  0.08180  Biso   1.000  C
  C50      1.0000 0.00000  0.41520  0.08180  Biso   1.000  C
  C51      1.0000 0.00000  0.41520  0.91820  Biso   1.000  C
  C52      1.0000 0.00000  0.58480  0.91820  Biso   1.000  C
  C53      1.0000 0.50000  0.08480  0.58180  Biso   1.000  C
  C54      1.0000 0.50000  0.91520  0.58180  Biso   1.000  C
  C55      1.0000 0.50000  0.91520  0.41820  Biso   1.000  C
  C56      1.0000 0.50000  0.08480  0.41820  Biso   1.000  C
  O1       1.0000 0.05777  0.56320  0.06390  Biso   1.000  O
  O2       1.0000 0.94223  0.43680  0.06390  Biso   1.000  O
  O3       1.0000 0.05777  0.43680  0.93610  Biso   1.000  O
  O4       1.0000 0.94223  0.56320  0.93610  Biso   1.000  O
  O5       1.0000 0.55777  0.06320  0.56390  Biso   1.000  O
  O6       1.0000 0.44223  0.93680  0.56390  Biso   1.000  O
  O7       1.0000 0.55777  0.93680  0.43610  Biso   1.000  O
  O8       1.0000 0.44223  0.06320  0.43610  Biso   1.000  O
  O9       1.0000 0.94223  0.43680  0.93610  Biso   1.000  O
  O10      1.0000 0.05777  0.56320  0.93610  Biso   1.000  O
  O11      1.0000 0.94223  0.56320  0.06390  Biso   1.000  O
  O12      1.0000 0.05777  0.43680  0.06390  Biso   1.000  O
  O13      1.0000 0.44223  0.93680  0.43610  Biso   1.000  O
  O14      1.0000 0.55777  0.06320  0.43610  Biso   1.000  O
  O15      1.0000 0.44223  0.06320  0.56390  Biso   1.000  O
  O16      1.0000 0.55777  0.93680  0.56390  Biso   1.000  O
  C57      1.0000 0.13373  0.73460  0.20642  Biso   1.000  C
  C58      1.0000 0.86627  0.26540  0.20642  Biso   1.000  C
  C59      1.0000 0.13373  0.26540  0.79358  Biso   1.000  C
  C60      1.0000 0.86627  0.73460  0.79358  Biso   1.000  C
  C61      1.0000 0.63373  0.23460  0.70642  Biso   1.000  C
  C62      1.0000 0.36627  0.76540  0.70642  Biso   1.000  C
  C63      1.0000 0.63373  0.76540  0.29358  Biso   1.000  C
  C64      1.0000 0.36627  0.23460  0.29358  Biso   1.000  C
  C65      1.0000 0.86627  0.26540  0.79358  Biso   1.000  C
  C66      1.0000 0.13373  0.73460  0.79358  Biso   1.000  C
  C67      1.0000 0.86627  0.73460  0.20642  Biso   1.000  C
  C68      1.0000 0.13373  0.26540  0.20642  Biso   1.000  C
  C69      1.0000 0.36627  0.76540  0.29358  Biso   1.000  C
  C70      1.0000 0.63373  0.23460  0.29358  Biso   1.000  C
  C71      1.0000 0.36627  0.23460  0.70642  Biso   1.000  C
  C72      1.0000 0.63373  0.76540  0.70642  Biso   1.000  C
  O17      1.0000 0.15670  0.70870  0.24660  Biso   1.000  O
  O18      1.0000 0.84330  0.29130  0.24660  Biso   1.000  O
  O19      1.0000 0.15670  0.29130  0.75340  Biso   1.000  O
  O20      1.0000 0.84330  0.70870  0.75340  Biso   1.000  O
  O21      1.0000 0.65670  0.20870  0.74660  Biso   1.000  O
  O22      1.0000 0.34330  0.79130  0.74660  Biso   1.000  O
  O23      1.0000 0.65670  0.79130  0.25340  Biso   1.000  O
  O24      1.0000 0.34330  0.20870  0.25340  Biso   1.000  O
  O25      1.0000 0.84330  0.29130  0.75340  Biso   1.000  O
  O26      1.0000 0.15670  0.70870  0.75340  Biso   1.000  O
  O27      1.0000 0.84330  0.70870  0.24660  Biso   1.000  O
  O28      1.0000 0.15670  0.29130  0.24660  Biso   1.000  O
  O29      1.0000 0.34330  0.79130  0.25340  Biso   1.000  O
  O30      1.0000 0.65670  0.20870  0.25340  Biso   1.000  O
  O31      1.0000 0.34330  0.20870  0.74660  Biso   1.000  O
  O32      1.0000 0.65670  0.79130  0.74660  Biso   1.000  O
  O33      1.0000 0.16850  0.78200  0.18420  Biso   1.000  O
  O34      1.0000 0.83150  0.21800  0.18420  Biso   1.000  O
  O35      1.0000 0.16850  0.21800  0.81580  Biso   1.000  O
  O36      1.0000 0.83150  0.78200  0.81580  Biso   1.000  O
  O37      1.0000 0.66850  0.28200  0.68420  Biso   1.000  O
  O38      1.0000 0.33150  0.71800  0.68420  Biso   1.000  O
  O39      1.0000 0.66850  0.71800  0.31580  Biso   1.000  O
  O40      1.0000 0.33150  0.28200  0.31580  Biso   1.000  O
  O41      1.0000 0.83150  0.21800  0.81580  Biso   1.000  O
  O42      1.0000 0.16850  0.78200  0.81580  Biso   1.000  O
  O43      1.0000 0.83150  0.78200  0.18420  Biso   1.000  O
  O44      1.0000 0.16850  0.21800  0.18420  Biso   1.000  O
  O45      1.0000 0.33150  0.71800  0.31580  Biso   1.000  O
  O46      1.0000 0.66850  0.28200  0.31580  Biso   1.000  O
  O47      1.0000 0.33150  0.28200  0.68420  Biso   1.000  O
  O48      1.0000 0.66850  0.71800  0.68420  Biso   1.000  O
  O49      1.0000 0.27690  0.69613  0.24180  Biso   1.000  O
  O50      1.0000 0.72310  0.30387  0.24180  Biso   1.000  O
  O51      1.0000 0.27690  0.30387  0.75820  Biso   1.000  O
  O52      1.0000 0.72310  0.69613  0.75820  Biso   1.000  O
  O53      1.0000 0.77690  0.19613  0.74180  Biso   1.000  O
  O54      1.0000 0.22310  0.80387  0.74180  Biso   1.000  O
  O55      1.0000 0.77690  0.80387  0.25820  Biso   1.000  O
  O56      1.0000 0.22310  0.19613  0.25820  Biso   1.000  O
  O57      1.0000 0.72310  0.30387  0.75820  Biso   1.000  O
  O58      1.0000 0.27690  0.69613  0.75820  Biso   1.000  O
  O59      1.0000 0.72310  0.69613  0.24180  Biso   1.000  O
  O60      1.0000 0.27690  0.30387  0.24180  Biso   1.000  O
  O61      1.0000 0.22310  0.80387  0.25820  Biso   1.000  O
  O62      1.0000 0.77690  0.19613  0.25820  Biso   1.000  O
  O63      1.0000 0.22310  0.19613  0.74180  Biso   1.000  O
  O64      1.0000 0.77690  0.80387  0.74180  Biso   1.000  O
