data_image0
_cell_length_a       18.6756
_cell_length_b       18.6311
_cell_length_c       26.296
_cell_angle_alpha    90
_cell_angle_beta     90
_cell_angle_gamma    90

_symmetry_space_group_name_H-M    "P 1"
_symmetry_int_tables_number       1

loop_
  _symmetry_equiv_pos_as_xyz
  'x, y, z'

loop_
  _atom_site_label
  _atom_site_occupancy
  _atom_site_fract_x
  _atom_site_fract_y
  _atom_site_fract_z
  _atom_site_thermal_displace_type
  _atom_site_B_iso_or_equiv
  _atom_site_type_symbol
  Cu1      1.0000 0.07420  0.50000  0.00000  Biso   1.000  Cu
  Cu2      1.0000 0.92580  0.50000  0.00000  Biso   1.000  Cu
  Cu3      1.0000 0.57420  0.00000  0.50000  Biso   1.000  Cu
  Cu4      1.0000 0.42580  0.00000  0.50000  Biso   1.000  Cu
  C1       1.0000 0.06353  0.66054  0.14129  Biso   1.000  C
  C2       1.0000 0.93647  0.33946  0.14129  Biso   1.000  C
  C3       1.0000 0.06353  0.33946  0.85871  Biso   1.000  C
  C4       1.0000 0.93647  0.66054  0.85871  Biso   1.000  C
  C5       1.0000 0.56353  0.16054  0.64129  Biso   1.000  C
  C6       1.0000 0.43647  0.83946  0.64129  Biso   1.000  C
  C7       1.0000 0.56353  0.83946  0.35871  Biso   1.000  C
  C8       1.0000 0.43647  0.16054  0.35871  Biso   1.000  C
  C9       1.0000 0.93647  0.33946  0.85871  Biso   1.000  C
  C10      1.0000 0.06353  0.66054  0.85871  Biso   1.000  C
  C11      1.0000 0.93647  0.66054  0.14129  Biso   1.000  C
  C12      1.0000 0.06353  0.33946  0.14129  Biso   1.000  C
  C13      1.0000 0.43647  0.83946  0.35871  Biso   1.000  C
  C14      1.0000 0.56353  0.16054  0.35871  Biso   1.000  C
  C15      1.0000 0.43647  0.16054  0.64129  Biso   1.000  C
  C16      1.0000 0.56353  0.83946  0.64129  Biso   1.000  C
  C17      1.0000 0.00000  0.64070  0.11938  Biso   1.000  C
  C18      1.0000 0.00000  0.35930  0.11938  Biso   1.000  C
  C19      1.0000 0.00000  0.35930  0.88062  Biso   1.000  C
  C20      1.0000 0.00000  0.64070  0.88062  Biso   1.000  C
  C21      1.0000 0.50000  0.14070  0.61938  Biso   1.000  C
  C22      1.0000 0.50000  0.85930  0.61938  Biso   1.000  C
  C23      1.0000 0.50000  0.85930  0.38062  Biso   1.000  C
  C24      1.0000 0.50000  0.14070  0.38062  Biso   1.000  C
  C25      1.0000 0.06353  0.70032  0.18510  Biso   1.000  C
  C26      1.0000 0.93647  0.29968  0.18510  Biso   1.000  C
  C27      1.0000 0.06353  0.29968  0.81490  Biso   1.000  C
  C28      1.0000 0.93647  0.70032  0.81490  Biso   1.000  C
  C29      1.0000 0.56353  0.20032  0.68510  Biso   1.000  C
  C30      1.0000 0.43647  0.79968  0.68510  Biso   1.000  C
  C31      1.0000 0.56353  0.79968  0.31490  Biso   1.000  C
  C32      1.0000 0.43647  0.20032  0.31490  Biso   1.000  C
  C33      1.0000 0.93647  0.29968  0.81490  Biso   1.000  C
  C34      1.0000 0.06353  0.70032  0.81490  Biso   1.000  C
  C35      1.0000 0.93647  0.70032  0.18510  Biso   1.000  C
  C36      1.0000 0.06353  0.29968  0.18510  Biso   1.000  C
  C37      1.0000 0.43647  0.79968  0.31490  Biso   1.000  C
  C38      1.0000 0.56353  0.20032  0.31490  Biso   1.000  C
  C39      1.0000 0.43647  0.20032  0.68510  Biso   1.000  C
  C40      1.0000 0.56353  0.79968  0.68510  Biso   1.000  C
  C41      1.0000 0.00000  0.72020  0.20701  Biso   1.000  C
  C42      1.0000 0.00000  0.27980  0.20701  Biso   1.000  C
  C43      1.0000 0.00000  0.27980  0.79299  Biso   1.000  C
  C44      1.0000 0.00000  0.72020  0.79299  Biso   1.000  C
  C45      1.0000 0.50000  0.22020  0.70701  Biso   1.000  C
  C46      1.0000 0.50000  0.77980  0.70701  Biso   1.000  C
  C47      1.0000 0.50000  0.77980  0.29299  Biso   1.000  C
  C48      1.0000 0.50000  0.22020  0.29299  Biso   1.000  C
  C49      1.0000 0.00000  0.59710  0.07140  Biso   1.000  C
  C50      1.0000 0.00000  0.40290  0.07140  Biso   1.000  C
  C51      1.0000 0.00000  0.40290  0.92860  Biso   1.000  C
  C52      1.0000 0.00000  0.59710  0.92860  Biso   1.000  C
  C53      1.0000 0.50000  0.09710  0.57140  Biso   1.000  C
  C54      1.0000 0.50000  0.90290  0.57140  Biso   1.000  C
  C55      1.0000 0.50000  0.90290  0.42860  Biso   1.000  C
  C56      1.0000 0.50000  0.09710  0.42860  Biso   1.000  C
  C57      1.0000 0.13308  0.72210  0.20909  Biso   1.000  C
  C58      1.0000 0.86692  0.27790  0.20909  Biso   1.000  C
  C59      1.0000 0.13308  0.27790  0.79091  Biso   1.000  C
  C60      1.0000 0.86692  0.72210  0.79091  Biso   1.000  C
  C61      1.0000 0.63308  0.22210  0.70909  Biso   1.000  C
  C62      1.0000 0.36692  0.77790  0.70909  Biso   1.000  C
  C63      1.0000 0.63308  0.77790  0.29091  Biso   1.000  C
  C64      1.0000 0.36692  0.22210  0.29091  Biso   1.000  C
  C65      1.0000 0.86692  0.27790  0.79091  Biso   1.000  C
  C66      1.0000 0.13308  0.72210  0.79091  Biso   1.000  C
  C67      1.0000 0.86692  0.72210  0.20909  Biso   1.000  C
  C68      1.0000 0.13308  0.27790  0.20909  Biso   1.000  C
  C69      1.0000 0.36692  0.77790  0.29091  Biso   1.000  C
  C70      1.0000 0.63308  0.22210  0.29091  Biso   1.000  C
  C71      1.0000 0.36692  0.22210  0.70909  Biso   1.000  C
  C72      1.0000 0.63308  0.77790  0.70909  Biso   1.000  C
  O1       1.0000 0.05750  0.57910  0.05160  Biso   1.000  O
  O2       1.0000 0.94250  0.42090  0.05160  Biso   1.000  O
  O3       1.0000 0.05750  0.42090  0.94840  Biso   1.000  O
  O4       1.0000 0.94250  0.57910  0.94840  Biso   1.000  O
  O5       1.0000 0.55750  0.07910  0.55160  Biso   1.000  O
  O6       1.0000 0.44250  0.92090  0.55160  Biso   1.000  O
  O7       1.0000 0.55750  0.92090  0.44840  Biso   1.000  O
  O8       1.0000 0.44250  0.07910  0.44840  Biso   1.000  O
  O9       1.0000 0.94250  0.42090  0.94840  Biso   1.000  O
  O10      1.0000 0.05750  0.57910  0.94840  Biso   1.000  O
  O11      1.0000 0.94250  0.57910  0.05160  Biso   1.000  O
  O12      1.0000 0.05750  0.42090  0.05160  Biso   1.000  O
  O13      1.0000 0.44250  0.92090  0.44840  Biso   1.000  O
  O14      1.0000 0.55750  0.07910  0.44840  Biso   1.000  O
  O15      1.0000 0.44250  0.07910  0.55160  Biso   1.000  O
  O16      1.0000 0.55750  0.92090  0.55160  Biso   1.000  O
  O17      1.0000 0.13308  0.75810  0.24880  Biso   1.000  O
  O18      1.0000 0.86692  0.24190  0.24880  Biso   1.000  O
  O19      1.0000 0.13308  0.24190  0.75120  Biso   1.000  O
  O20      1.0000 0.86692  0.75810  0.75120  Biso   1.000  O
  O21      1.0000 0.63308  0.25810  0.74880  Biso   1.000  O
  O22      1.0000 0.36692  0.74190  0.74880  Biso   1.000  O
  O23      1.0000 0.63308  0.74190  0.25120  Biso   1.000  O
  O24      1.0000 0.36692  0.25810  0.25120  Biso   1.000  O
  O25      1.0000 0.86692  0.24190  0.75120  Biso   1.000  O
  O26      1.0000 0.13308  0.75810  0.75120  Biso   1.000  O
  O27      1.0000 0.86692  0.75810  0.24880  Biso   1.000  O
  O28      1.0000 0.13308  0.24190  0.24880  Biso   1.000  O
  O29      1.0000 0.36692  0.74190  0.25120  Biso   1.000  O
  O30      1.0000 0.63308  0.25810  0.25120  Biso   1.000  O
  O31      1.0000 0.36692  0.25810  0.74880  Biso   1.000  O
  O32      1.0000 0.63308  0.74190  0.74880  Biso   1.000  O
  O33      1.0000 0.19058  0.70410  0.18926  Biso   1.000  O
  O34      1.0000 0.80942  0.29590  0.18926  Biso   1.000  O
  O35      1.0000 0.19058  0.29590  0.81074  Biso   1.000  O
  O36      1.0000 0.80942  0.70410  0.81074  Biso   1.000  O
  O37      1.0000 0.69058  0.20410  0.68926  Biso   1.000  O
  O38      1.0000 0.30942  0.79590  0.68926  Biso   1.000  O
  O39      1.0000 0.69058  0.79590  0.31074  Biso   1.000  O
  O40      1.0000 0.30942  0.20410  0.31074  Biso   1.000  O
  O41      1.0000 0.80942  0.29590  0.81074  Biso   1.000  O
  O42      1.0000 0.19058  0.70410  0.81074  Biso   1.000  O
  O43      1.0000 0.80942  0.70410  0.18926  Biso   1.000  O
  O44      1.0000 0.19058  0.29590  0.18926  Biso   1.000  O
  O45      1.0000 0.30942  0.79590  0.31074  Biso   1.000  O
  O46      1.0000 0.69058  0.20410  0.31074  Biso   1.000  O
  O47      1.0000 0.30942  0.20410  0.68926  Biso   1.000  O
  O48      1.0000 0.69058  0.79590  0.68926  Biso   1.000  O
  O49      1.0000 0.20000  0.50000  0.00000  Biso   1.000  O
  O50      1.0000 0.80000  0.50000  0.00000  Biso   1.000  O
  O51      1.0000 0.70000  0.00000  0.50000  Biso   1.000  O
  O52      1.0000 0.30000  0.00000  0.50000  Biso   1.000  O
  Cu5      1.0000 0.20900  0.79100  0.29100  Biso   1.000  Cu
  Cu6      1.0000 0.79100  0.20900  0.29100  Biso   1.000  Cu
  Cu7      1.0000 0.20900  0.20900  0.70900  Biso   1.000  Cu
  Cu8      1.0000 0.79100  0.79100  0.70900  Biso   1.000  Cu
  Cu9      1.0000 0.70900  0.29100  0.79100  Biso   1.000  Cu
  Cu10     1.0000 0.29100  0.70900  0.79100  Biso   1.000  Cu
  Cu11     1.0000 0.70900  0.70900  0.20900  Biso   1.000  Cu
  Cu12     1.0000 0.29100  0.29100  0.20900  Biso   1.000  Cu
  Cu13     1.0000 0.79100  0.20900  0.70900  Biso   1.000  Cu
  Cu14     1.0000 0.20900  0.79100  0.70900  Biso   1.000  Cu
  Cu15     1.0000 0.79100  0.79100  0.29100  Biso   1.000  Cu
  Cu16     1.0000 0.20900  0.20900  0.29100  Biso   1.000  Cu
  Cu17     1.0000 0.29100  0.70900  0.20900  Biso   1.000  Cu
  Cu18     1.0000 0.70900  0.29100  0.20900  Biso   1.000  Cu
  Cu19     1.0000 0.29100  0.29100  0.79100  Biso   1.000  Cu
  Cu20     1.0000 0.70900  0.70900  0.79100  Biso   1.000  Cu
  O53      1.0000 0.16100  0.84100  0.35300  Biso   1.000  O
  O54      1.0000 0.83900  0.15900  0.35300  Biso   1.000  O
  O55      1.0000 0.16100  0.15900  0.64700  Biso   1.000  O
  O56      1.0000 0.83900  0.84100  0.64700  Biso   1.000  O
  O57      1.0000 0.66100  0.34100  0.85300  Biso   1.000  O
  O58      1.0000 0.33900  0.65900  0.85300  Biso   1.000  O
  O59      1.0000 0.66100  0.65900  0.14700  Biso   1.000  O
  O60      1.0000 0.33900  0.34100  0.14700  Biso   1.000  O
  O61      1.0000 0.83900  0.15900  0.64700  Biso   1.000  O
  O62      1.0000 0.16100  0.84100  0.64700  Biso   1.000  O
  O63      1.0000 0.83900  0.84100  0.35300  Biso   1.000  O
  O64      1.0000 0.16100  0.15900  0.35300  Biso   1.000  O
  O65      1.0000 0.33900  0.65900  0.14700  Biso   1.000  O
  O66      1.0000 0.66100  0.34100  0.14700  Biso   1.000  O
  O67      1.0000 0.33900  0.34100  0.85300  Biso   1.000  O
  O68      1.0000 0.66100  0.65900  0.85300  Biso   1.000  O
  O69      1.0000 0.22500  0.85300  0.23000  Biso   1.000  O
  O70      1.0000 0.77500  0.14700  0.23000  Biso   1.000  O
  O71      1.0000 0.22500  0.14700  0.77000  Biso   1.000  O
  O72      1.0000 0.77500  0.85300  0.77000  Biso   1.000  O
  O73      1.0000 0.72500  0.35300  0.73000  Biso   1.000  O
  O74      1.0000 0.27500  0.64700  0.73000  Biso   1.000  O
  O75      1.0000 0.72500  0.64700  0.27000  Biso   1.000  O
  O76      1.0000 0.27500  0.35300  0.27000  Biso   1.000  O
  O77      1.0000 0.77500  0.14700  0.77000  Biso   1.000  O
  O78      1.0000 0.22500  0.85300  0.77000  Biso   1.000  O
  O79      1.0000 0.77500  0.85300  0.23000  Biso   1.000  O
  O80      1.0000 0.22500  0.14700  0.23000  Biso   1.000  O
  O81      1.0000 0.27500  0.64700  0.27000  Biso   1.000  O
  O82      1.0000 0.72500  0.35300  0.27000  Biso   1.000  O
  O83      1.0000 0.27500  0.35300  0.73000  Biso   1.000  O
  O84      1.0000 0.72500  0.64700  0.73000  Biso   1.000  O
  O85      1.0000 0.21100  0.70800  0.33400  Biso   1.000  O
  O86      1.0000 0.78900  0.29200  0.33400  Biso   1.000  O
  O87      1.0000 0.21100  0.29200  0.66600  Biso   1.000  O
  O88      1.0000 0.78900  0.70800  0.66600  Biso   1.000  O
  O89      1.0000 0.71100  0.20800  0.83400  Biso   1.000  O
  O90      1.0000 0.28900  0.79200  0.83400  Biso   1.000  O
  O91      1.0000 0.71100  0.79200  0.16600  Biso   1.000  O
  O92      1.0000 0.28900  0.20800  0.16600  Biso   1.000  O
  O93      1.0000 0.78900  0.29200  0.66600  Biso   1.000  O
  O94      1.0000 0.21100  0.70800  0.66600  Biso   1.000  O
  O95      1.0000 0.78900  0.70800  0.33400  Biso   1.000  O
  O96      1.0000 0.21100  0.29200  0.33400  Biso   1.000  O
  O97      1.0000 0.28900  0.79200  0.16600  Biso   1.000  O
  O98      1.0000 0.71100  0.20800  0.16600  Biso   1.000  O
  O99      1.0000 0.28900  0.20800  0.83400  Biso   1.000  O
  O100     1.0000 0.71100  0.79200  0.83400  Biso   1.000  O
  O101     1.0000 0.12060  0.90200  0.56000  Biso   1.000  O
  O102     1.0000 0.87940  0.09800  0.56000  Biso   1.000  O
  O103     1.0000 0.12060  0.09800  0.44000  Biso   1.000  O
  O104     1.0000 0.87940  0.90200  0.44000  Biso   1.000  O
  O105     1.0000 0.62060  0.40200  0.06000  Biso   1.000  O
  O106     1.0000 0.37940  0.59800  0.06000  Biso   1.000  O
  O107     1.0000 0.62060  0.59800  0.94000  Biso   1.000  O
  O108     1.0000 0.37940  0.40200  0.94000  Biso   1.000  O
  O109     1.0000 0.87940  0.09800  0.44000  Biso   1.000  O
  O110     1.0000 0.12060  0.90200  0.44000  Biso   1.000  O
  O111     1.0000 0.87940  0.90200  0.56000  Biso   1.000  O
  O112     1.0000 0.12060  0.09800  0.56000  Biso   1.000  O
  O113     1.0000 0.37940  0.59800  0.94000  Biso   1.000  O
  O114     1.0000 0.62060  0.40200  0.94000  Biso   1.000  O
  O115     1.0000 0.37940  0.40200  0.06000  Biso   1.000  O
  O116     1.0000 0.62060  0.59800  0.06000  Biso   1.000  O
  O117     1.0000 0.41300  0.41900  0.63200  Biso   1.000  O
  O118     1.0000 0.58700  0.58100  0.63200  Biso   1.000  O
  O119     1.0000 0.41300  0.58100  0.36800  Biso   1.000  O
  O120     1.0000 0.58700  0.41900  0.36800  Biso   1.000  O
  O121     1.0000 0.91300  0.91900  0.13200  Biso   1.000  O
  O122     1.0000 0.08700  0.08100  0.13200  Biso   1.000  O
  O123     1.0000 0.91300  0.08100  0.86800  Biso   1.000  O
  O124     1.0000 0.08700  0.91900  0.86800  Biso   1.000  O
  O125     1.0000 0.58700  0.58100  0.36800  Biso   1.000  O
  O126     1.0000 0.41300  0.41900  0.36800  Biso   1.000  O
  O127     1.0000 0.58700  0.41900  0.63200  Biso   1.000  O
  O128     1.0000 0.41300  0.58100  0.63200  Biso   1.000  O
  O129     1.0000 0.08700  0.08100  0.86800  Biso   1.000  O
  O130     1.0000 0.91300  0.91900  0.86800  Biso   1.000  O
  O131     1.0000 0.08700  0.91900  0.13200  Biso   1.000  O
  O132     1.0000 0.91300  0.08100  0.13200  Biso   1.000  O
  O133     1.0000 0.40750  0.87300  0.08800  Biso   1.000  O
  O134     1.0000 0.59250  0.12700  0.08800  Biso   1.000  O
  O135     1.0000 0.40750  0.12700  0.91200  Biso   1.000  O
  O136     1.0000 0.59250  0.87300  0.91200  Biso   1.000  O
  O137     1.0000 0.90750  0.37300  0.58800  Biso   1.000  O
  O138     1.0000 0.09250  0.62700  0.58800  Biso   1.000  O
  O139     1.0000 0.90750  0.62700  0.41200  Biso   1.000  O
  O140     1.0000 0.09250  0.37300  0.41200  Biso   1.000  O
  O141     1.0000 0.59250  0.12700  0.91200  Biso   1.000  O
  O142     1.0000 0.40750  0.87300  0.91200  Biso   1.000  O
  O143     1.0000 0.59250  0.87300  0.08800  Biso   1.000  O
  O144     1.0000 0.40750  0.12700  0.08800  Biso   1.000  O
  O145     1.0000 0.09250  0.62700  0.41200  Biso   1.000  O
  O146     1.0000 0.90750  0.37300  0.41200  Biso   1.000  O
  O147     1.0000 0.09250  0.37300  0.58800  Biso   1.000  O
  O148     1.0000 0.90750  0.62700  0.58800  Biso   1.000  O
  O149     1.0000 0.50000  0.00000  0.00000  Biso   1.000  O
  O150     1.0000 0.00000  0.50000  0.50000  Biso   1.000  O
  C73      1.0000 0.18990  0.47740  0.51722  Biso   1.000  C
  C74      1.0000 0.81010  0.52260  0.51722  Biso   1.000  C
  C75      1.0000 0.18990  0.52260  0.48278  Biso   1.000  C
  C76      1.0000 0.81010  0.47740  0.48278  Biso   1.000  C
  C77      1.0000 0.68990  0.97740  0.01722  Biso   1.000  C
  C78      1.0000 0.31010  0.02260  0.01722  Biso   1.000  C
  C79      1.0000 0.68990  0.02260  0.98278  Biso   1.000  C
  C80      1.0000 0.31010  0.97740  0.98278  Biso   1.000  C
  C81      1.0000 0.81010  0.52260  0.48278  Biso   1.000  C
  C82      1.0000 0.18990  0.47740  0.48278  Biso   1.000  C
  C83      1.0000 0.81010  0.47740  0.51722  Biso   1.000  C
  C84      1.0000 0.18990  0.52260  0.51722  Biso   1.000  C
  C85      1.0000 0.31010  0.02260  0.98278  Biso   1.000  C
  C86      1.0000 0.68990  0.97740  0.98278  Biso   1.000  C
  C87      1.0000 0.31010  0.97740  0.01722  Biso   1.000  C
  C88      1.0000 0.68990  0.02260  0.01722  Biso   1.000  C
  C89      1.0000 0.24060  0.43480  0.53974  Biso   1.000  C
  C90      1.0000 0.75940  0.56520  0.53974  Biso   1.000  C
  C91      1.0000 0.24060  0.56520  0.46026  Biso   1.000  C
  C92      1.0000 0.75940  0.43480  0.46026  Biso   1.000  C
  C93      1.0000 0.74060  0.93480  0.03974  Biso   1.000  C
  C94      1.0000 0.25940  0.06520  0.03974  Biso   1.000  C
  C95      1.0000 0.74060  0.06520  0.96026  Biso   1.000  C
  C96      1.0000 0.25940  0.93480  0.96026  Biso   1.000  C
  C97      1.0000 0.75940  0.56520  0.46026  Biso   1.000  C
  C98      1.0000 0.24060  0.43480  0.46026  Biso   1.000  C
  C99      1.0000 0.75940  0.43480  0.53974  Biso   1.000  C
  C100     1.0000 0.24060  0.56520  0.53974  Biso   1.000  C
  C101     1.0000 0.25940  0.06520  0.96026  Biso   1.000  C
  C102     1.0000 0.74060  0.93480  0.96026  Biso   1.000  C
  C103     1.0000 0.25940  0.93480  0.03974  Biso   1.000  C
  C104     1.0000 0.74060  0.06520  0.03974  Biso   1.000  C
  C105     1.0000 0.25140  0.36620  0.52258  Biso   1.000  C
  C106     1.0000 0.74860  0.63380  0.52258  Biso   1.000  C
  C107     1.0000 0.25140  0.63380  0.47742  Biso   1.000  C
  C108     1.0000 0.74860  0.36620  0.47742  Biso   1.000  C
  C109     1.0000 0.75140  0.86620  0.02258  Biso   1.000  C
  C110     1.0000 0.24860  0.13380  0.02258  Biso   1.000  C
  C111     1.0000 0.75140  0.13380  0.97742  Biso   1.000  C
  C112     1.0000 0.24860  0.86620  0.97742  Biso   1.000  C
  C113     1.0000 0.74860  0.63380  0.47742  Biso   1.000  C
  C114     1.0000 0.25140  0.36620  0.47742  Biso   1.000  C
  C115     1.0000 0.74860  0.36620  0.52258  Biso   1.000  C
  C116     1.0000 0.25140  0.63380  0.52258  Biso   1.000  C
  C117     1.0000 0.24860  0.13380  0.97742  Biso   1.000  C
  C118     1.0000 0.75140  0.86620  0.97742  Biso   1.000  C
  C119     1.0000 0.24860  0.86620  0.02258  Biso   1.000  C
  C120     1.0000 0.75140  0.13380  0.02258  Biso   1.000  C
  C121     1.0000 0.28420  0.46320  0.58319  Biso   1.000  C
  C122     1.0000 0.71580  0.53680  0.58319  Biso   1.000  C
  C123     1.0000 0.28420  0.53680  0.41681  Biso   1.000  C
  C124     1.0000 0.71580  0.46320  0.41681  Biso   1.000  C
  C125     1.0000 0.78420  0.96320  0.08319  Biso   1.000  C
  C126     1.0000 0.21580  0.03680  0.08319  Biso   1.000  C
  C127     1.0000 0.78420  0.03680  0.91681  Biso   1.000  C
  C128     1.0000 0.21580  0.96320  0.91681  Biso   1.000  C
  C129     1.0000 0.71580  0.53680  0.41681  Biso   1.000  C
  C130     1.0000 0.28420  0.46320  0.41681  Biso   1.000  C
  C131     1.0000 0.71580  0.46320  0.58319  Biso   1.000  C
  C132     1.0000 0.28420  0.53680  0.58319  Biso   1.000  C
  C133     1.0000 0.21580  0.03680  0.91681  Biso   1.000  C
  C134     1.0000 0.78420  0.96320  0.91681  Biso   1.000  C
  C135     1.0000 0.21580  0.96320  0.08319  Biso   1.000  C
  C136     1.0000 0.78420  0.03680  0.08319  Biso   1.000  C
  C137     1.0000 0.33010  0.42460  0.60358  Biso   1.000  C
  C138     1.0000 0.66990  0.57540  0.60358  Biso   1.000  C
  C139     1.0000 0.33010  0.57540  0.39642  Biso   1.000  C
  C140     1.0000 0.66990  0.42460  0.39642  Biso   1.000  C
  C141     1.0000 0.83010  0.92460  0.10358  Biso   1.000  C
  C142     1.0000 0.16990  0.07540  0.10358  Biso   1.000  C
  C143     1.0000 0.83010  0.07540  0.89642  Biso   1.000  C
  C144     1.0000 0.16990  0.92460  0.89642  Biso   1.000  C
  C145     1.0000 0.66990  0.57540  0.39642  Biso   1.000  C
  C146     1.0000 0.33010  0.42460  0.39642  Biso   1.000  C
  C147     1.0000 0.66990  0.42460  0.60358  Biso   1.000  C
  C148     1.0000 0.33010  0.57540  0.60358  Biso   1.000  C
  C149     1.0000 0.16990  0.07540  0.89642  Biso   1.000  C
  C150     1.0000 0.83010  0.92460  0.89642  Biso   1.000  C
  C151     1.0000 0.16990  0.92460  0.10358  Biso   1.000  C
  C152     1.0000 0.83010  0.07540  0.10358  Biso   1.000  C
  C153     1.0000 0.27440  0.52530  0.59870  Biso   1.000  C
  C154     1.0000 0.72560  0.47470  0.59870  Biso   1.000  C
  C155     1.0000 0.27440  0.47470  0.40130  Biso   1.000  C
  C156     1.0000 0.72560  0.52530  0.40130  Biso   1.000  C
  C157     1.0000 0.77440  0.02530  0.09870  Biso   1.000  C
  C158     1.0000 0.22560  0.97470  0.09870  Biso   1.000  C
  C159     1.0000 0.77440  0.97470  0.90130  Biso   1.000  C
  C160     1.0000 0.22560  0.02530  0.90130  Biso   1.000  C
  C161     1.0000 0.72560  0.47470  0.40130  Biso   1.000  C
  C162     1.0000 0.27440  0.52530  0.40130  Biso   1.000  C
  C163     1.0000 0.72560  0.52530  0.59870  Biso   1.000  C
  C164     1.0000 0.27440  0.47470  0.59870  Biso   1.000  C
  C165     1.0000 0.22560  0.97470  0.90130  Biso   1.000  C
  C166     1.0000 0.77440  0.02530  0.90130  Biso   1.000  C
  C167     1.0000 0.22560  0.02530  0.09870  Biso   1.000  C
  C168     1.0000 0.77440  0.97470  0.09870  Biso   1.000  C
  C169     1.0000 0.16090  0.38290  0.46038  Biso   1.000  C
  C170     1.0000 0.83910  0.61710  0.46038  Biso   1.000  C
  C171     1.0000 0.16090  0.61710  0.53962  Biso   1.000  C
  C172     1.0000 0.83910  0.38290  0.53962  Biso   1.000  C
  C173     1.0000 0.66090  0.88290  0.96038  Biso   1.000  C
  C174     1.0000 0.33910  0.11710  0.96038  Biso   1.000  C
  C175     1.0000 0.66090  0.11710  0.03962  Biso   1.000  C
  C176     1.0000 0.33910  0.88290  0.03962  Biso   1.000  C
  C177     1.0000 0.83910  0.61710  0.53962  Biso   1.000  C
  C178     1.0000 0.16090  0.38290  0.53962  Biso   1.000  C
  C179     1.0000 0.83910  0.38290  0.46038  Biso   1.000  C
  C180     1.0000 0.16090  0.61710  0.46038  Biso   1.000  C
  C181     1.0000 0.33910  0.11710  0.03962  Biso   1.000  C
  C182     1.0000 0.66090  0.88290  0.03962  Biso   1.000  C
  C183     1.0000 0.33910  0.88290  0.96038  Biso   1.000  C
  C184     1.0000 0.66090  0.11710  0.96038  Biso   1.000  C
  C185     1.0000 0.15010  0.45150  0.47754  Biso   1.000  C
  C186     1.0000 0.84990  0.54850  0.47754  Biso   1.000  C
  C187     1.0000 0.15010  0.54850  0.52246  Biso   1.000  C
  C188     1.0000 0.84990  0.45150  0.52246  Biso   1.000  C
  C189     1.0000 0.65010  0.95150  0.97754  Biso   1.000  C
  C190     1.0000 0.34990  0.04850  0.97754  Biso   1.000  C
  C191     1.0000 0.65010  0.04850  0.02246  Biso   1.000  C
  C192     1.0000 0.34990  0.95150  0.02246  Biso   1.000  C
  C193     1.0000 0.84990  0.54850  0.52246  Biso   1.000  C
  C194     1.0000 0.15010  0.45150  0.52246  Biso   1.000  C
  C195     1.0000 0.84990  0.45150  0.47754  Biso   1.000  C
  C196     1.0000 0.15010  0.54850  0.47754  Biso   1.000  C
  C197     1.0000 0.34990  0.04850  0.02246  Biso   1.000  C
  C198     1.0000 0.65010  0.95150  0.02246  Biso   1.000  C
  C199     1.0000 0.34990  0.95150  0.97754  Biso   1.000  C
  C200     1.0000 0.65010  0.04850  0.97754  Biso   1.000  C
  C201     1.0000 0.21150  0.34030  0.48290  Biso   1.000  C
  C202     1.0000 0.78850  0.65970  0.48290  Biso   1.000  C
  C203     1.0000 0.21150  0.65970  0.51710  Biso   1.000  C
  C204     1.0000 0.78850  0.34030  0.51710  Biso   1.000  C
  C205     1.0000 0.71150  0.84030  0.98290  Biso   1.000  C
  C206     1.0000 0.28850  0.15970  0.98290  Biso   1.000  C
  C207     1.0000 0.71150  0.15970  0.01710  Biso   1.000  C
  C208     1.0000 0.28850  0.84030  0.01710  Biso   1.000  C
  C209     1.0000 0.78850  0.65970  0.51710  Biso   1.000  C
  C210     1.0000 0.21150  0.34030  0.51710  Biso   1.000  C
  C211     1.0000 0.78850  0.34030  0.48290  Biso   1.000  C
  C212     1.0000 0.21150  0.65970  0.48290  Biso   1.000  C
  C213     1.0000 0.28850  0.15970  0.01710  Biso   1.000  C
  C214     1.0000 0.71150  0.84030  0.01710  Biso   1.000  C
  C215     1.0000 0.28850  0.84030  0.98290  Biso   1.000  C
  C216     1.0000 0.71150  0.15970  0.98290  Biso   1.000  C
  C217     1.0000 0.09460  0.49820  0.45290  Biso   1.000  C
  C218     1.0000 0.90540  0.50180  0.45290  Biso   1.000  C
  C219     1.0000 0.09460  0.50180  0.54710  Biso   1.000  C
  C220     1.0000 0.90540  0.49820  0.54710  Biso   1.000  C
  C221     1.0000 0.59460  0.99820  0.95290  Biso   1.000  C
  C222     1.0000 0.40540  0.00180  0.95290  Biso   1.000  C
  C223     1.0000 0.59460  0.00180  0.04710  Biso   1.000  C
  C224     1.0000 0.40540  0.99820  0.04710  Biso   1.000  C
  C225     1.0000 0.90540  0.50180  0.54710  Biso   1.000  C
  C226     1.0000 0.09460  0.49820  0.54710  Biso   1.000  C
  C227     1.0000 0.90540  0.49820  0.45290  Biso   1.000  C
  C228     1.0000 0.09460  0.50180  0.45290  Biso   1.000  C
  C229     1.0000 0.40540  0.00180  0.04710  Biso   1.000  C
  C230     1.0000 0.59460  0.99820  0.04710  Biso   1.000  C
  C231     1.0000 0.40540  0.99820  0.95290  Biso   1.000  C
  C232     1.0000 0.59460  0.00180  0.95290  Biso   1.000  C
  C233     1.0000 0.22340  0.26520  0.46410  Biso   1.000  C
  C234     1.0000 0.77660  0.73480  0.46410  Biso   1.000  C
  C235     1.0000 0.22340  0.73480  0.53590  Biso   1.000  C
  C236     1.0000 0.77660  0.26520  0.53590  Biso   1.000  C
  C237     1.0000 0.72340  0.76520  0.96410  Biso   1.000  C
  C238     1.0000 0.27660  0.23480  0.96410  Biso   1.000  C
  C239     1.0000 0.72340  0.23480  0.03590  Biso   1.000  C
  C240     1.0000 0.27660  0.76520  0.03590  Biso   1.000  C
  C241     1.0000 0.77660  0.73480  0.53590  Biso   1.000  C
  C242     1.0000 0.22340  0.26520  0.53590  Biso   1.000  C
  C243     1.0000 0.77660  0.26520  0.46410  Biso   1.000  C
  C244     1.0000 0.22340  0.73480  0.46410  Biso   1.000  C
  C245     1.0000 0.27660  0.23480  0.03590  Biso   1.000  C
  C246     1.0000 0.72340  0.76520  0.03590  Biso   1.000  C
  C247     1.0000 0.27660  0.76520  0.96410  Biso   1.000  C
  C248     1.0000 0.72340  0.23480  0.96410  Biso   1.000  C
  C249     1.0000 0.08480  0.56020  0.46840  Biso   1.000  C
  C250     1.0000 0.91520  0.43980  0.46840  Biso   1.000  C
  C251     1.0000 0.08480  0.43980  0.53160  Biso   1.000  C
  C252     1.0000 0.91520  0.56020  0.53160  Biso   1.000  C
  C253     1.0000 0.58480  0.06020  0.96840  Biso   1.000  C
  C254     1.0000 0.41520  0.93980  0.96840  Biso   1.000  C
  C255     1.0000 0.58480  0.93980  0.03160  Biso   1.000  C
  C256     1.0000 0.41520  0.06020  0.03160  Biso   1.000  C
  C257     1.0000 0.91520  0.43980  0.53160  Biso   1.000  C
  C258     1.0000 0.08480  0.56020  0.53160  Biso   1.000  C
  C259     1.0000 0.91520  0.56020  0.46840  Biso   1.000  C
  C260     1.0000 0.08480  0.43980  0.46840  Biso   1.000  C
  C261     1.0000 0.41520  0.93980  0.03160  Biso   1.000  C
  C262     1.0000 0.58480  0.06020  0.03160  Biso   1.000  C
  C263     1.0000 0.41520  0.06020  0.96840  Biso   1.000  C
  C264     1.0000 0.58480  0.93980  0.96840  Biso   1.000  C
  C265     1.0000 0.26920  0.22660  0.48450  Biso   1.000  C
  C266     1.0000 0.73080  0.77340  0.48450  Biso   1.000  C
  C267     1.0000 0.26920  0.77340  0.51550  Biso   1.000  C
  C268     1.0000 0.73080  0.22660  0.51550  Biso   1.000  C
  C269     1.0000 0.76920  0.72660  0.98450  Biso   1.000  C
  C270     1.0000 0.23080  0.27340  0.98450  Biso   1.000  C
  C271     1.0000 0.76920  0.27340  0.01550  Biso   1.000  C
  C272     1.0000 0.23080  0.72660  0.01550  Biso   1.000  C
  C273     1.0000 0.73080  0.77340  0.51550  Biso   1.000  C
  C274     1.0000 0.26920  0.22660  0.51550  Biso   1.000  C
  C275     1.0000 0.73080  0.22660  0.48450  Biso   1.000  C
  C276     1.0000 0.26920  0.77340  0.48450  Biso   1.000  C
  C277     1.0000 0.23080  0.27340  0.01550  Biso   1.000  C
  C278     1.0000 0.76920  0.72660  0.01550  Biso   1.000  C
  C279     1.0000 0.23080  0.72660  0.98450  Biso   1.000  C
  C280     1.0000 0.76920  0.27340  0.98450  Biso   1.000  C
  C281     1.0000 0.05850  0.47470  0.41700  Biso   1.000  C
  C282     1.0000 0.94150  0.52530  0.41700  Biso   1.000  C
  C283     1.0000 0.05850  0.52530  0.58300  Biso   1.000  C
  C284     1.0000 0.94150  0.47470  0.58300  Biso   1.000  C
  C285     1.0000 0.55850  0.97470  0.91700  Biso   1.000  C
  C286     1.0000 0.44150  0.02530  0.91700  Biso   1.000  C
  C287     1.0000 0.55850  0.02530  0.08300  Biso   1.000  C
  C288     1.0000 0.44150  0.97470  0.08300  Biso   1.000  C
  C289     1.0000 0.94150  0.52530  0.58300  Biso   1.000  C
  C290     1.0000 0.05850  0.47470  0.58300  Biso   1.000  C
  C291     1.0000 0.94150  0.47470  0.41700  Biso   1.000  C
  C292     1.0000 0.05850  0.52530  0.41700  Biso   1.000  C
  C293     1.0000 0.44150  0.02530  0.08300  Biso   1.000  C
  C294     1.0000 0.55850  0.97470  0.08300  Biso   1.000  C
  C295     1.0000 0.44150  0.97470  0.91700  Biso   1.000  C
  C296     1.0000 0.55850  0.02530  0.91700  Biso   1.000  C
  C297     1.0000 0.18730  0.24170  0.42820  Biso   1.000  C
  C298     1.0000 0.81270  0.75830  0.42820  Biso   1.000  C
  C299     1.0000 0.18730  0.75830  0.57180  Biso   1.000  C
  C300     1.0000 0.81270  0.24170  0.57180  Biso   1.000  C
  C301     1.0000 0.68730  0.74170  0.92820  Biso   1.000  C
  C302     1.0000 0.31270  0.25830  0.92820  Biso   1.000  C
  C303     1.0000 0.68730  0.25830  0.07180  Biso   1.000  C
  C304     1.0000 0.31270  0.74170  0.07180  Biso   1.000  C
  C305     1.0000 0.81270  0.75830  0.57180  Biso   1.000  C
  C306     1.0000 0.18730  0.24170  0.57180  Biso   1.000  C
  C307     1.0000 0.81270  0.24170  0.42820  Biso   1.000  C
  C308     1.0000 0.18730  0.75830  0.42820  Biso   1.000  C
  C309     1.0000 0.31270  0.25830  0.07180  Biso   1.000  C
  C310     1.0000 0.68730  0.74170  0.07180  Biso   1.000  C
  C311     1.0000 0.31270  0.74170  0.92820  Biso   1.000  C
  C312     1.0000 0.68730  0.25830  0.92820  Biso   1.000  C
