data_image0
_cell_length_a       9.619
_cell_length_b       13.797
_cell_length_c       7.049
_cell_angle_alpha    90
_cell_angle_beta     92.13
_cell_angle_gamma    90

_symmetry_space_group_name_H-M    "P 1"
_symmetry_int_tables_number       1

loop_
  _symmetry_equiv_pos_as_xyz
  'x, y, z'

loop_
  _atom_site_label
  _atom_site_occupancy
  _atom_site_fract_x
  _atom_site_fract_y
  _atom_site_fract_z
  _atom_site_thermal_displace_type
  _atom_site_B_iso_or_equiv
  _atom_site_type_symbol
  Cu1      1.0000 0.00000  0.50000  0.00000  Biso   1.000  Cu
  Cu2      1.0000 0.00000  0.00000  0.50000  Biso   1.000  Cu
  N1       1.0000 0.18430  0.56277  0.00210  Biso   1.000  N
  N2       1.0000 0.81570  0.06277  0.49790  Biso   1.000  N
  N3       1.0000 0.81570  0.43723  0.99790  Biso   1.000  N
  N4       1.0000 0.18430  0.93723  0.50210  Biso   1.000  N
  C1       1.0000 0.25280  0.61270  0.13390  Biso   1.000  C
  C2       1.0000 0.74720  0.11270  0.36610  Biso   1.000  C
  C3       1.0000 0.74720  0.38730  0.86610  Biso   1.000  C
  C4       1.0000 0.25280  0.88730  0.63390  Biso   1.000  C
  N5       1.0000 0.37910  0.63460  0.07310  Biso   1.000  N
  N6       1.0000 0.62090  0.13460  0.42690  Biso   1.000  N
  N7       1.0000 0.62090  0.36540  0.92690  Biso   1.000  N
  N8       1.0000 0.37910  0.86540  0.57310  Biso   1.000  N
  H1       1.0000 0.44210  0.66680  0.13560  Biso   1.000  H
  H2       1.0000 0.55790  0.16680  0.36440  Biso   1.000  H
  H3       1.0000 0.55790  0.33320  0.86440  Biso   1.000  H
  H4       1.0000 0.44210  0.83320  0.63560  Biso   1.000  H
  C5       1.0000 0.39100  0.59810  0.89910  Biso   1.000  C
  C6       1.0000 0.60900  0.09810  0.60090  Biso   1.000  C
  C7       1.0000 0.60900  0.40190  0.10090  Biso   1.000  C
  C8       1.0000 0.39100  0.90190  0.39910  Biso   1.000  C
  H5       1.0000 0.46830  0.60250  0.82410  Biso   1.000  H
  H6       1.0000 0.53170  0.10250  0.67590  Biso   1.000  H
  H7       1.0000 0.53170  0.39750  0.17590  Biso   1.000  H
  H8       1.0000 0.46830  0.89750  0.32410  Biso   1.000  H
  C9       1.0000 0.27190  0.55440  0.85380  Biso   1.000  C
  C10      1.0000 0.72810  0.05440  0.64620  Biso   1.000  C
  C11      1.0000 0.72810  0.44560  0.14620  Biso   1.000  C
  C12      1.0000 0.27190  0.94560  0.35380  Biso   1.000  C
  H9       1.0000 0.25090  0.52300  0.73960  Biso   1.000  H
  H10      1.0000 0.74910  0.02300  0.76040  Biso   1.000  H
  H11      1.0000 0.74910  0.47700  0.26040  Biso   1.000  H
  H12      1.0000 0.25090  0.97700  0.23960  Biso   1.000  H
  C13      1.0000 0.20420  0.64410  0.31810  Biso   1.000  C
  C14      1.0000 0.79580  0.14410  0.18190  Biso   1.000  C
  C15      1.0000 0.79580  0.35590  0.68190  Biso   1.000  C
  C16      1.0000 0.20420  0.85590  0.81810  Biso   1.000  C
  H13      1.0000 0.27630  0.64490  0.40350  Biso   1.000  H
  H14      1.0000 0.72370  0.14490  0.09650  Biso   1.000  H
  H15      1.0000 0.72370  0.35510  0.59650  Biso   1.000  H
  H16      1.0000 0.27630  0.85510  0.90350  Biso   1.000  H
  H17      1.0000 0.13860  0.60260  0.35710  Biso   1.000  H
  H18      1.0000 0.86140  0.10260  0.14290  Biso   1.000  H
  H19      1.0000 0.86140  0.39740  0.64290  Biso   1.000  H
  H20      1.0000 0.13860  0.89740  0.85710  Biso   1.000  H
  H21      1.0000 0.16760  0.70410  0.30720  Biso   1.000  H
  H22      1.0000 0.83240  0.20410  0.19280  Biso   1.000  H
  H23      1.0000 0.83240  0.29590  0.69280  Biso   1.000  H
  H24      1.0000 0.16760  0.79590  0.80720  Biso   1.000  H
  N9       1.0000 0.91030  0.62285  0.09060  Biso   1.000  N
  N10      1.0000 0.08970  0.12285  0.40940  Biso   1.000  N
  N11      1.0000 0.08970  0.37715  0.90940  Biso   1.000  N
  N12      1.0000 0.91030  0.87715  0.59060  Biso   1.000  N
  N13      1.0000 0.95620  0.56660  0.68250  Biso   1.000  N
  N14      1.0000 0.04380  0.06660  0.81750  Biso   1.000  N
  N15      1.0000 0.04380  0.43340  0.31750  Biso   1.000  N
  N16      1.0000 0.95620  0.93340  0.18250  Biso   1.000  N
  N17      1.0000 0.57590  0.81470  0.89560  Biso   1.000  N
  N18      1.0000 0.42410  0.31470  0.60440  Biso   1.000  N
  N19      1.0000 0.42410  0.18530  0.10440  Biso   1.000  N
  N20      1.0000 0.57590  0.68530  0.39560  Biso   1.000  N
  C17      1.0000 0.86690  0.69910  0.07360  Biso   1.000  C
  C18      1.0000 0.13310  0.19910  0.42640  Biso   1.000  C
  C19      1.0000 0.13310  0.30090  0.92640  Biso   1.000  C
  C20      1.0000 0.86690  0.80090  0.57360  Biso   1.000  C
  C21      1.0000 0.81350  0.79195  0.05550  Biso   1.000  C
  C22      1.0000 0.18650  0.29195  0.44450  Biso   1.000  C
  C23      1.0000 0.18650  0.20805  0.94450  Biso   1.000  C
  C24      1.0000 0.81350  0.70805  0.55550  Biso   1.000  C
  C25      1.0000 0.89040  0.87040  0.12350  Biso   1.000  C
  C26      1.0000 0.10960  0.37040  0.37650  Biso   1.000  C
  C27      1.0000 0.10960  0.12960  0.87650  Biso   1.000  C
  C28      1.0000 0.89040  0.62960  0.62350  Biso   1.000  C
  C29      1.0000 0.68170  0.80510  0.96780  Biso   1.000  C
  C30      1.0000 0.31830  0.30510  0.53220  Biso   1.000  C
  C31      1.0000 0.31830  0.19490  0.03220  Biso   1.000  C
  C32      1.0000 0.68170  0.69490  0.46780  Biso   1.000  C
