data_image0
_cell_length_a       8.046
_cell_length_b       12.123
_cell_length_c       14.544
_cell_angle_alpha    92.952
_cell_angle_beta     91.454
_cell_angle_gamma    106.268

_symmetry_space_group_name_H-M    "P 1"
_symmetry_int_tables_number       1

loop_
  _symmetry_equiv_pos_as_xyz
  'x, y, z'

loop_
  _atom_site_label
  _atom_site_occupancy
  _atom_site_fract_x
  _atom_site_fract_y
  _atom_site_fract_z
  _atom_site_thermal_displace_type
  _atom_site_B_iso_or_equiv
  _atom_site_type_symbol
  Cu1      1.0000 0.68880  0.96930  0.23650  Biso   1.000  Cu
  Cu2      1.0000 0.31120  0.03070  0.76350  Biso   1.000  Cu
  Cu3      1.0000 0.53980  0.71900  0.23930  Biso   1.000  Cu
  Cu4      1.0000 0.46020  0.28100  0.76070  Biso   1.000  Cu
  Cu5      1.0000 0.51940  0.24350  0.25470  Biso   1.000  Cu
  Cu6      1.0000 0.48060  0.75650  0.74530  Biso   1.000  Cu
  Cu7      1.0000 0.65880  0.46940  0.24940  Biso   1.000  Cu
  Cu8      1.0000 0.34120  0.53060  0.75060  Biso   1.000  Cu
  Cl1      1.0000 0.62560  0.62010  0.34670  Biso   1.000  Cl
  Cl2      1.0000 0.37440  0.37990  0.65330  Biso   1.000  Cl
  Cl3      1.0000 0.40600  0.36550  0.17340  Biso   1.000  Cl
  Cl4      1.0000 0.59400  0.63450  0.82660  Biso   1.000  Cl
  Cl5      1.0000 0.64020  0.13470  0.16750  Biso   1.000  Cl
  Cl6      1.0000 0.35980  0.86530  0.83250  Biso   1.000  Cl
  Cl7      1.0000 0.42980  0.86350  0.28630  Biso   1.000  Cl
  Cl8      1.0000 0.57020  0.13650  0.71370  Biso   1.000  Cl
  N1       1.0000 0.86380  0.93010  0.14730  Biso   1.000  N
  N2       1.0000 0.13620  0.06990  0.85270  Biso   1.000  N
  C1       1.0000 0.03200  0.97620  0.17430  Biso   1.000  C
  C2       1.0000 0.96800  0.02380  0.82570  Biso   1.000  C
  C3       1.0000 0.07900  0.05800  0.25590  Biso   1.000  C
  C4       1.0000 0.92100  0.94200  0.74410  Biso   1.000  C
  H1       1.0000 0.09517  0.13673  0.23568  Biso   1.000  H
  H2       1.0000 0.90483  0.86327  0.76432  Biso   1.000  H
  H3       1.0000 0.19228  0.05428  0.28232  Biso   1.000  H
  H4       1.0000 0.80772  0.94572  0.71768  Biso   1.000  H
  S1       1.0000 0.92350  0.03290  0.34610  Biso   1.000  S
  S2       1.0000 0.07650  0.96710  0.65390  Biso   1.000  S
  C5       1.0000 0.95600  0.90100  0.38800  Biso   1.000  C
  C6       1.0000 0.04400  0.09900  0.61200  Biso   1.000  C
  H5       1.0000 0.94595  0.84434  0.33560  Biso   1.000  H
  H6       1.0000 0.05405  0.15566  0.66440  Biso   1.000  H
  H7       1.0000 0.86844  0.86948  0.43216  Biso   1.000  H
  H8       1.0000 0.13156  0.13052  0.56784  Biso   1.000  H
  H9       1.0000 0.07190  0.91763  0.41751  Biso   1.000  H
  H10      1.0000 0.92810  0.08237  0.58249  Biso   1.000  H
  C7       1.0000 0.16300  0.95460  0.12020  Biso   1.000  C
  C8       1.0000 0.83700  0.04540  0.87980  Biso   1.000  C
  H11      1.0000 0.28099  0.98689  0.13986  Biso   1.000  H
  H12      1.0000 0.71901  0.01311  0.86014  Biso   1.000  H
  C9       1.0000 0.12200  0.88500  0.03600  Biso   1.000  C
  C10      1.0000 0.87800  0.11500  0.96400  Biso   1.000  C
  H13      1.0000 0.20988  0.87146  0.99924  Biso   1.000  H
  H14      1.0000 0.79012  0.12854  0.00076  Biso   1.000  H
  C11      1.0000 0.94400  0.83800  0.01030  Biso   1.000  C
  C12      1.0000 0.05600  0.16200  0.98970  Biso   1.000  C
  H15      1.0000 0.90846  0.78846  0.95625  Biso   1.000  H
  H16      1.0000 0.09154  0.21154  0.04375  Biso   1.000  H
  C13      1.0000 0.82100  0.86730  0.06950  Biso   1.000  C
  C14      1.0000 0.17900  0.13270  0.93050  Biso   1.000  C
  C15      1.0000 0.63300  0.81590  0.04250  Biso   1.000  C
  C16      1.0000 0.36700  0.18410  0.95750  Biso   1.000  C
  H17      1.0000 0.61727  0.80909  0.97448  Biso   1.000  H
  H18      1.0000 0.38273  0.19091  0.02552  Biso   1.000  H
  H19      1.0000 0.56479  0.86602  0.06740  Biso   1.000  H
  H20      1.0000 0.43521  0.13398  0.93260  Biso   1.000  H
  S3       1.0000 0.56000  0.67370  0.08860  Biso   1.000  S
  S4       1.0000 0.44000  0.32630  0.91140  Biso   1.000  S
  C17      1.0000 0.34800  0.62500  0.03670  Biso   1.000  C
  C18      1.0000 0.65200  0.37500  0.96330  Biso   1.000  C
  H21      1.0000 0.35486  0.62358  0.96953  Biso   1.000  H
  H22      1.0000 0.64514  0.37642  0.03047  Biso   1.000  H
  H23      1.0000 0.28021  0.67670  0.05689  Biso   1.000  H
  H24      1.0000 0.71979  0.32330  0.94311  Biso   1.000  H
  H25      1.0000 0.29146  0.54689  0.05515  Biso   1.000  H
  H26      1.0000 0.70854  0.45311  0.94485  Biso   1.000  H
  N3       1.0000 0.81400  0.39410  0.33490  Biso   1.000  N
  N4       1.0000 0.18600  0.60590  0.66510  Biso   1.000  N
  C19      1.0000 0.78400  0.36700  0.42530  Biso   1.000  C
  C20      1.0000 0.21600  0.63300  0.57470  Biso   1.000  C
  C21      1.0000 0.60800  0.36060  0.45670  Biso   1.000  C
  C22      1.0000 0.39200  0.63940  0.54330  Biso   1.000  C
  H27      1.0000 0.57888  0.43181  0.44189  Biso   1.000  H
  H28      1.0000 0.42112  0.56819  0.55811  Biso   1.000  H
  H29      1.0000 0.60788  0.35600  0.52450  Biso   1.000  H
  H30      1.0000 0.39212  0.64400  0.47550  Biso   1.000  H
  S5       1.0000 0.44430  0.23600  0.40290  Biso   1.000  S
  S6       1.0000 0.55570  0.76400  0.59710  Biso   1.000  S
  C23      1.0000 0.50800  0.12300  0.45200  Biso   1.000  C
  C24      1.0000 0.49200  0.87700  0.54800  Biso   1.000  C
  H31      1.0000 0.63000  0.13125  0.43986  Biso   1.000  H
  H32      1.0000 0.37000  0.86875  0.56014  Biso   1.000  H
  H33      1.0000 0.43642  0.04904  0.42391  Biso   1.000  H
  H34      1.0000 0.56358  0.95096  0.57609  Biso   1.000  H
  H35      1.0000 0.49253  0.12613  0.51828  Biso   1.000  H
  H36      1.0000 0.50747  0.87387  0.48172  Biso   1.000  H
  C25      1.0000 0.91200  0.34600  0.48220  Biso   1.000  C
  C26      1.0000 0.08800  0.65400  0.51780  Biso   1.000  C
  H37      1.0000 0.88660  0.32335  0.54311  Biso   1.000  H
  H38      1.0000 0.11340  0.67665  0.45689  Biso   1.000  H
  C27      1.0000 0.07500  0.35700  0.45020  Biso   1.000  C
  C28      1.0000 0.92500  0.64300  0.54980  Biso   1.000  C
  H39      1.0000 0.16593  0.34965  0.49007  Biso   1.000  H
  H40      1.0000 0.83407  0.65035  0.50993  Biso   1.000  H
  C29      1.0000 0.10500  0.38100  0.35700  Biso   1.000  C
  C30      1.0000 0.89500  0.61900  0.64300  Biso   1.000  C
  H41      1.0000 0.21374  0.38464  0.33176  Biso   1.000  H
  H42      1.0000 0.78626  0.61536  0.66824  Biso   1.000  H
  C31      1.0000 0.97000  0.39700  0.30350  Biso   1.000  C
  C32      1.0000 0.03000  0.60300  0.69650  Biso   1.000  C
  C33      1.0000 0.99400  0.42000  0.20000  Biso   1.000  C
  C34      1.0000 0.00600  0.58000  0.80000  Biso   1.000  C
  H43      1.0000 0.94126  0.34663  0.16321  Biso   1.000  H
  H44      1.0000 0.05874  0.65337  0.83679  Biso   1.000  H
  H45      1.0000 0.11931  0.44347  0.18868  Biso   1.000  H
  H46      1.0000 0.88069  0.55653  0.81132  Biso   1.000  H
  S7       1.0000 0.89990  0.52710  0.16130  Biso   1.000  S
  S8       1.0000 0.10010  0.47290  0.83870  Biso   1.000  S
  C35      1.0000 0.02800  0.65600  0.22300  Biso   1.000  C
  C36      1.0000 0.97200  0.34400  0.77700  Biso   1.000  C
  H47      1.0000 0.98609  0.65950  0.28566  Biso   1.000  H
  H48      1.0000 0.01391  0.34050  0.71434  Biso   1.000  H
  H49      1.0000 0.01782  0.72306  0.19124  Biso   1.000  H
  H50      1.0000 0.98218  0.27694  0.80876  Biso   1.000  H
  H51      1.0000 0.14931  0.65519  0.22641  Biso   1.000  H
  H52      1.0000 0.85069  0.34481  0.77359  Biso   1.000  H
