data_image0
_cell_length_a       12.219
_cell_length_b       16.559
_cell_length_c       11.285
_cell_angle_alpha    90
_cell_angle_beta     97.31
_cell_angle_gamma    90

_symmetry_space_group_name_H-M    "P 1"
_symmetry_int_tables_number       1

loop_
  _symmetry_equiv_pos_as_xyz
  'x, y, z'

loop_
  _atom_site_label
  _atom_site_occupancy
  _atom_site_fract_x
  _atom_site_fract_y
  _atom_site_fract_z
  _atom_site_thermal_displace_type
  _atom_site_B_iso_or_equiv
  _atom_site_type_symbol
  Cl1      1.0000 0.50000  0.46870  0.25000  Biso   1.000  Cl
  Cl2      1.0000 0.50000  0.53130  0.75000  Biso   1.000  Cl
  O1       1.0000 0.43030  0.51840  0.16890  Biso   1.000  O
  O2       1.0000 0.56970  0.51840  0.33110  Biso   1.000  O
  O3       1.0000 0.56970  0.48160  0.83110  Biso   1.000  O
  O4       1.0000 0.43030  0.48160  0.66890  Biso   1.000  O
  O5       1.0000 0.56690  0.41900  0.18570  Biso   1.000  O
  O6       1.0000 0.43310  0.41900  0.31430  Biso   1.000  O
  O7       1.0000 0.43310  0.58100  0.81430  Biso   1.000  O
  O8       1.0000 0.56690  0.58100  0.68570  Biso   1.000  O
  Cl3      1.0000 0.00000  0.45540  0.75000  Biso   1.000  Cl
  Cl4      1.0000 0.00000  0.54460  0.25000  Biso   1.000  Cl
  O9       1.0000 0.02280  0.39650  0.66060  Biso   1.000  O
  O10      1.0000 0.97720  0.39650  0.83940  Biso   1.000  O
  O11      1.0000 0.97720  0.60350  0.33940  Biso   1.000  O
  O12      1.0000 0.02280  0.60350  0.16060  Biso   1.000  O
  O13      1.0000 0.90830  0.49030  0.70660  Biso   1.000  O
  O14      1.0000 0.09170  0.49030  0.79340  Biso   1.000  O
  O15      1.0000 0.09170  0.50970  0.29340  Biso   1.000  O
  O16      1.0000 0.90830  0.50970  0.20660  Biso   1.000  O
  O17      1.0000 0.71390  0.97970  0.10850  Biso   1.000  O
  O18      1.0000 0.28610  0.97970  0.39150  Biso   1.000  O
  O19      1.0000 0.28610  0.02030  0.89150  Biso   1.000  O
  O20      1.0000 0.71390  0.02030  0.60850  Biso   1.000  O
  H1       1.0000 0.72250  0.97680  0.19390  Biso   1.000  H
  H2       1.0000 0.27750  0.97680  0.30610  Biso   1.000  H
  H3       1.0000 0.27750  0.02320  0.80610  Biso   1.000  H
  H4       1.0000 0.72250  0.02320  0.69390  Biso   1.000  H
  H5       1.0000 0.71750  0.01850  0.07760  Biso   1.000  H
  H6       1.0000 0.28250  0.01850  0.42240  Biso   1.000  H
  H7       1.0000 0.28250  0.98150  0.92240  Biso   1.000  H
  H8       1.0000 0.71750  0.98150  0.57760  Biso   1.000  H
  O21      1.0000 0.93460  0.98160  0.15020  Biso   1.000  O
  O22      1.0000 0.06540  0.98160  0.34980  Biso   1.000  O
  O23      1.0000 0.06540  0.01840  0.84980  Biso   1.000  O
  O24      1.0000 0.93460  0.01840  0.65020  Biso   1.000  O
  H9       1.0000 0.86450  0.98130  0.14060  Biso   1.000  H
  H10      1.0000 0.13550  0.98130  0.35940  Biso   1.000  H
  H11      1.0000 0.13550  0.01870  0.85940  Biso   1.000  H
  H12      1.0000 0.86450  0.01870  0.64060  Biso   1.000  H
  O25      1.0000 0.13490  0.07370  0.12130  Biso   1.000  O
  O26      1.0000 0.86510  0.07370  0.37870  Biso   1.000  O
  O27      1.0000 0.86510  0.92630  0.87870  Biso   1.000  O
  O28      1.0000 0.13490  0.92630  0.62130  Biso   1.000  O
  H13      1.0000 0.19310  0.04740  0.14600  Biso   1.000  H
  H14      1.0000 0.80690  0.04740  0.35400  Biso   1.000  H
  H15      1.0000 0.80690  0.95260  0.85400  Biso   1.000  H
  H16      1.0000 0.19310  0.95260  0.64600  Biso   1.000  H
  H17      1.0000 0.14930  0.11980  0.09420  Biso   1.000  H
  H18      1.0000 0.85070  0.11980  0.40580  Biso   1.000  H
  H19      1.0000 0.85070  0.88020  0.90580  Biso   1.000  H
  H20      1.0000 0.14930  0.88020  0.59420  Biso   1.000  H
  O29      1.0000 0.10970  0.18940  0.79580  Biso   1.000  O
  O30      1.0000 0.89030  0.18940  0.70420  Biso   1.000  O
  O31      1.0000 0.89030  0.81060  0.20420  Biso   1.000  O
  O32      1.0000 0.10970  0.81060  0.29580  Biso   1.000  O
  O33      1.0000 0.12130  0.21230  0.99310  Biso   1.000  O
  O34      1.0000 0.87870  0.21230  0.50690  Biso   1.000  O
  O35      1.0000 0.87870  0.78770  0.00690  Biso   1.000  O
  O36      1.0000 0.12130  0.78770  0.49310  Biso   1.000  O
  C1       1.0000 0.14610  0.22490  0.89140  Biso   1.000  C
  C2       1.0000 0.85390  0.22490  0.60860  Biso   1.000  C
  C3       1.0000 0.85390  0.77510  0.10860  Biso   1.000  C
  C4       1.0000 0.14610  0.77510  0.39140  Biso   1.000  C
  C5       1.0000 0.22560  0.29160  0.86700  Biso   1.000  C
  C6       1.0000 0.77440  0.29160  0.63300  Biso   1.000  C
  C7       1.0000 0.77440  0.70840  0.13300  Biso   1.000  C
  C8       1.0000 0.22560  0.70840  0.36700  Biso   1.000  C
  H21      1.0000 0.27930  0.26850  0.82180  Biso   1.000  H
  H22      1.0000 0.72070  0.26850  0.67820  Biso   1.000  H
  H23      1.0000 0.72070  0.73150  0.17820  Biso   1.000  H
  H24      1.0000 0.27930  0.73150  0.32180  Biso   1.000  H
  H25      1.0000 0.18490  0.33110  0.81720  Biso   1.000  H
  H26      1.0000 0.81510  0.33110  0.68280  Biso   1.000  H
  H27      1.0000 0.81510  0.66890  0.18280  Biso   1.000  H
  H28      1.0000 0.18490  0.66890  0.31720  Biso   1.000  H
  N1       1.0000 0.28720  0.33520  0.97220  Biso   1.000  N
  N2       1.0000 0.71280  0.33520  0.52780  Biso   1.000  N
  N3       1.0000 0.71280  0.66480  0.02780  Biso   1.000  N
  N4       1.0000 0.28720  0.66480  0.47220  Biso   1.000  N
  C9       1.0000 0.20870  0.37890  0.04360  Biso   1.000  C
  C10      1.0000 0.79130  0.37890  0.45640  Biso   1.000  C
  C11      1.0000 0.79130  0.62110  0.95640  Biso   1.000  C
  C12      1.0000 0.20870  0.62110  0.54360  Biso   1.000  C
  H29      1.0000 0.24980  0.40540  0.11080  Biso   1.000  H
  H30      1.0000 0.75020  0.40540  0.38920  Biso   1.000  H
  H31      1.0000 0.75020  0.59460  0.88920  Biso   1.000  H
  H32      1.0000 0.24980  0.59460  0.61080  Biso   1.000  H
  H33      1.0000 0.15830  0.34100  0.07150  Biso   1.000  H
  H34      1.0000 0.84170  0.34100  0.42850  Biso   1.000  H
  H35      1.0000 0.84170  0.65900  0.92850  Biso   1.000  H
  H36      1.0000 0.15830  0.65900  0.57150  Biso   1.000  H
  H37      1.0000 0.16820  0.41840  0.99350  Biso   1.000  H
  H38      1.0000 0.83180  0.41840  0.50650  Biso   1.000  H
  H39      1.0000 0.83180  0.58160  0.00650  Biso   1.000  H
  H40      1.0000 0.16820  0.58160  0.49350  Biso   1.000  H
  C13      1.0000 0.35880  0.39710  0.92170  Biso   1.000  C
  C14      1.0000 0.64120  0.39710  0.57830  Biso   1.000  C
  C15      1.0000 0.64120  0.60290  0.07830  Biso   1.000  C
  C16      1.0000 0.35880  0.60290  0.42170  Biso   1.000  C
  H41      1.0000 0.40930  0.37010  0.87640  Biso   1.000  H
  H42      1.0000 0.59070  0.37010  0.62360  Biso   1.000  H
  H43      1.0000 0.59070  0.62990  0.12360  Biso   1.000  H
  H44      1.0000 0.40930  0.62990  0.37640  Biso   1.000  H
  H45      1.0000 0.39950  0.42760  0.98490  Biso   1.000  H
  H46      1.0000 0.60050  0.42760  0.51510  Biso   1.000  H
  H47      1.0000 0.60050  0.57240  0.01510  Biso   1.000  H
  H48      1.0000 0.39950  0.57240  0.48490  Biso   1.000  H
  H49      1.0000 0.31270  0.43290  0.87030  Biso   1.000  H
  H50      1.0000 0.68730  0.43290  0.62970  Biso   1.000  H
  H51      1.0000 0.68730  0.56710  0.12970  Biso   1.000  H
  H52      1.0000 0.31270  0.56710  0.37030  Biso   1.000  H
  C17      1.0000 0.35650  0.27850  0.05080  Biso   1.000  C
  C18      1.0000 0.64350  0.27850  0.44920  Biso   1.000  C
  C19      1.0000 0.64350  0.72150  0.94920  Biso   1.000  C
  C20      1.0000 0.35650  0.72150  0.55080  Biso   1.000  C
  H53      1.0000 0.40510  0.25160  0.00320  Biso   1.000  H
  H54      1.0000 0.59490  0.25160  0.49680  Biso   1.000  H
  H55      1.0000 0.59490  0.74840  0.99680  Biso   1.000  H
  H56      1.0000 0.40510  0.74840  0.50320  Biso   1.000  H
  H57      1.0000 0.31100  0.23930  0.08370  Biso   1.000  H
  H58      1.0000 0.68900  0.23930  0.41630  Biso   1.000  H
  H59      1.0000 0.68900  0.76070  0.91630  Biso   1.000  H
  H60      1.0000 0.31100  0.76070  0.58370  Biso   1.000  H
  H61      1.0000 0.39920  0.30730  0.11450  Biso   1.000  H
  H62      1.0000 0.60080  0.30730  0.38550  Biso   1.000  H
  H63      1.0000 0.60080  0.69270  0.88550  Biso   1.000  H
  H64      1.0000 0.39920  0.69270  0.61450  Biso   1.000  H
  O37      1.0000 0.92220  0.15700  0.14450  Biso   1.000  O
  O38      1.0000 0.07780  0.15700  0.35550  Biso   1.000  O
  O39      1.0000 0.07780  0.84300  0.85550  Biso   1.000  O
  O40      1.0000 0.92220  0.84300  0.64450  Biso   1.000  O
  O41      1.0000 0.91330  0.09980  0.96260  Biso   1.000  O
  O42      1.0000 0.08670  0.09980  0.53740  Biso   1.000  O
  O43      1.0000 0.08670  0.90020  0.03740  Biso   1.000  O
  O44      1.0000 0.91330  0.90020  0.46260  Biso   1.000  O
  C21      1.0000 0.89380  0.15430  0.03360  Biso   1.000  C
  C22      1.0000 0.10620  0.15430  0.46640  Biso   1.000  C
  C23      1.0000 0.10620  0.84570  0.96640  Biso   1.000  C
  C24      1.0000 0.89380  0.84570  0.53360  Biso   1.000  C
  C25      1.0000 0.83230  0.22480  0.96990  Biso   1.000  C
  C26      1.0000 0.16770  0.22480  0.53010  Biso   1.000  C
  C27      1.0000 0.16770  0.77520  0.03010  Biso   1.000  C
  C28      1.0000 0.83230  0.77520  0.46990  Biso   1.000  C
  H65      1.0000 0.77350  0.20380  0.91390  Biso   1.000  H
  H66      1.0000 0.22650  0.20380  0.58610  Biso   1.000  H
  H67      1.0000 0.22650  0.79620  0.08610  Biso   1.000  H
  H68      1.0000 0.77350  0.79620  0.41390  Biso   1.000  H
  H69      1.0000 0.88270  0.25190  0.92470  Biso   1.000  H
  H70      1.0000 0.11730  0.25190  0.57530  Biso   1.000  H
  H71      1.0000 0.11730  0.74810  0.07530  Biso   1.000  H
  H72      1.0000 0.88270  0.74810  0.42470  Biso   1.000  H
  N5       1.0000 0.78420  0.28770  0.04320  Biso   1.000  N
  N6       1.0000 0.21580  0.28770  0.45680  Biso   1.000  N
  N7       1.0000 0.21580  0.71230  0.95680  Biso   1.000  N
  N8       1.0000 0.78420  0.71230  0.54320  Biso   1.000  N
  C29      1.0000 0.72430  0.34840  0.96110  Biso   1.000  C
  C30      1.0000 0.27570  0.34840  0.53890  Biso   1.000  C
  C31      1.0000 0.27570  0.65160  0.03890  Biso   1.000  C
  C32      1.0000 0.72430  0.65160  0.46110  Biso   1.000  C
  H73      1.0000 0.77470  0.37460  0.91480  Biso   1.000  H
  H74      1.0000 0.22530  0.37460  0.58520  Biso   1.000  H
  H75      1.0000 0.22530  0.62540  0.08520  Biso   1.000  H
  H76      1.0000 0.77470  0.62540  0.41480  Biso   1.000  H
  H77      1.0000 0.66850  0.32080  0.90860  Biso   1.000  H
  H78      1.0000 0.33150  0.32080  0.59140  Biso   1.000  H
  H79      1.0000 0.33150  0.67920  0.09140  Biso   1.000  H
  H80      1.0000 0.66850  0.67920  0.40860  Biso   1.000  H
  H81      1.0000 0.69010  0.38810  0.00640  Biso   1.000  H
  H82      1.0000 0.30990  0.38810  0.49360  Biso   1.000  H
  H83      1.0000 0.30990  0.61190  0.99360  Biso   1.000  H
  H84      1.0000 0.69010  0.61190  0.50640  Biso   1.000  H
  C33      1.0000 0.87000  0.33080  0.12390  Biso   1.000  C
  C34      1.0000 0.13000  0.33080  0.37610  Biso   1.000  C
  C35      1.0000 0.13000  0.66920  0.87610  Biso   1.000  C
  C36      1.0000 0.87000  0.66920  0.62390  Biso   1.000  C
  H85      1.0000 0.92190  0.35680  0.07930  Biso   1.000  H
  H86      1.0000 0.07810  0.35680  0.42070  Biso   1.000  H
  H87      1.0000 0.07810  0.64320  0.92070  Biso   1.000  H
  H88      1.0000 0.92190  0.64320  0.57930  Biso   1.000  H
  H89      1.0000 0.83450  0.37060  0.16770  Biso   1.000  H
  H90      1.0000 0.16550  0.37060  0.33230  Biso   1.000  H
  H91      1.0000 0.16550  0.62940  0.83230  Biso   1.000  H
  H92      1.0000 0.83450  0.62940  0.66770  Biso   1.000  H
  H93      1.0000 0.90810  0.29280  0.17870  Biso   1.000  H
  H94      1.0000 0.09190  0.29280  0.32130  Biso   1.000  H
  H95      1.0000 0.09190  0.70720  0.82130  Biso   1.000  H
  H96      1.0000 0.90810  0.70720  0.67870  Biso   1.000  H
  C37      1.0000 0.70420  0.24810  0.11580  Biso   1.000  C
  C38      1.0000 0.29580  0.24810  0.38420  Biso   1.000  C
  C39      1.0000 0.29580  0.75190  0.88420  Biso   1.000  C
  C40      1.0000 0.70420  0.75190  0.61580  Biso   1.000  C
  H97      1.0000 0.74270  0.20980  0.16970  Biso   1.000  H
  H98      1.0000 0.25730  0.20980  0.33030  Biso   1.000  H
  H99      1.0000 0.25730  0.79020  0.83030  Biso   1.000  H
  H100     1.0000 0.74270  0.79020  0.66970  Biso   1.000  H
  H101     1.0000 0.67010  0.28810  0.16060  Biso   1.000  H
  H102     1.0000 0.32990  0.28810  0.33940  Biso   1.000  H
  H103     1.0000 0.32990  0.71190  0.83940  Biso   1.000  H
  H104     1.0000 0.67010  0.71190  0.66060  Biso   1.000  H
  H105     1.0000 0.64850  0.22080  0.06280  Biso   1.000  H
  H106     1.0000 0.35150  0.22080  0.43720  Biso   1.000  H
  H107     1.0000 0.35150  0.77920  0.93720  Biso   1.000  H
  H108     1.0000 0.64850  0.77920  0.56280  Biso   1.000  H
  Cu1      1.0000 0.00000  0.07334  0.25000  Biso   1.000  Cu
  Cu2      1.0000 0.00000  0.92666  0.75000  Biso   1.000  Cu
  Cu3      1.0000 0.00000  0.00000  0.00000  Biso   1.000  Cu
  Cu4      1.0000 0.00000  0.00000  0.50000  Biso   1.000  Cu
  Cu5      1.0000 0.00000  0.89185  0.25000  Biso   1.000  Cu
  Cu6      1.0000 0.00000  0.10815  0.75000  Biso   1.000  Cu
  Cl5      1.0000 0.50000  0.18400  0.75000  Biso   1.000  Cl
  Cl6      1.0000 0.50000  0.81600  0.25000  Biso   1.000  Cl
  O45      1.0000 0.50000  0.27060  0.75000  Biso   1.000  O
  O46      1.0000 0.50000  0.72940  0.25000  Biso   1.000  O
  O47      1.0000 0.60700  0.16320  0.79100  Biso   1.000  O
  O48      1.0000 0.39300  0.16320  0.70900  Biso   1.000  O
  O49      1.0000 0.39300  0.83680  0.20900  Biso   1.000  O
  O50      1.0000 0.60700  0.83680  0.29100  Biso   1.000  O
  O51      1.0000 0.47650  0.16990  0.63390  Biso   1.000  O
  O52      1.0000 0.52350  0.16990  0.86610  Biso   1.000  O
  O53      1.0000 0.52350  0.83010  0.36610  Biso   1.000  O
  O54      1.0000 0.47650  0.83010  0.13390  Biso   1.000  O
  O55      1.0000 0.42390  0.14910  0.81350  Biso   1.000  O
  O56      1.0000 0.57610  0.14910  0.68650  Biso   1.000  O
  O57      1.0000 0.57610  0.85090  0.18650  Biso   1.000  O
  O58      1.0000 0.42390  0.85090  0.31350  Biso   1.000  O
  Cl7      1.0000 0.50000  0.11070  0.25000  Biso   1.000  Cl
  Cl8      1.0000 0.50000  0.88930  0.75000  Biso   1.000  Cl
  O59      1.0000 0.47760  0.19380  0.22500  Biso   1.000  O
  O60      1.0000 0.52240  0.19380  0.27500  Biso   1.000  O
  O61      1.0000 0.52240  0.80620  0.77500  Biso   1.000  O
  O62      1.0000 0.47760  0.80620  0.72500  Biso   1.000  O
  O63      1.0000 0.46030  0.08820  0.36060  Biso   1.000  O
  O64      1.0000 0.53970  0.08820  0.13940  Biso   1.000  O
  O65      1.0000 0.53970  0.91180  0.63940  Biso   1.000  O
  O66      1.0000 0.46030  0.91180  0.86060  Biso   1.000  O
  O67      1.0000 0.61900  0.09800  0.26560  Biso   1.000  O
  O68      1.0000 0.38100  0.09800  0.23440  Biso   1.000  O
  O69      1.0000 0.38100  0.90200  0.73440  Biso   1.000  O
  O70      1.0000 0.61900  0.90200  0.76560  Biso   1.000  O
  O71      1.0000 0.44870  0.06060  0.15490  Biso   1.000  O
  O72      1.0000 0.55130  0.06060  0.34510  Biso   1.000  O
  O73      1.0000 0.55130  0.93940  0.84510  Biso   1.000  O
  O74      1.0000 0.44870  0.93940  0.65490  Biso   1.000  O
