data_image0
_cell_length_a       9.0054
_cell_length_b       6.1591
_cell_length_c       17.402
_cell_angle_alpha    90
_cell_angle_beta     100.392
_cell_angle_gamma    90

_symmetry_space_group_name_H-M    "P 1"
_symmetry_int_tables_number       1

loop_
  _symmetry_equiv_pos_as_xyz
  'x, y, z'

loop_
  _atom_site_label
  _atom_site_occupancy
  _atom_site_fract_x
  _atom_site_fract_y
  _atom_site_fract_z
  _atom_site_thermal_displace_type
  _atom_site_B_iso_or_equiv
  _atom_site_type_symbol
  Cu1      1.0000 0.97022  0.83104  0.17043  Biso   1.000  Cu
  Cu2      1.0000 0.02978  0.33104  0.32957  Biso   1.000  Cu
  Cu3      1.0000 0.02978  0.16896  0.82957  Biso   1.000  Cu
  Cu4      1.0000 0.97022  0.66896  0.67043  Biso   1.000  Cu
  Cu5      1.0000 0.00000  0.00000  0.00000  Biso   1.000  Cu
  Cu6      1.0000 0.00000  0.50000  0.50000  Biso   1.000  Cu
  O1       1.0000 0.19150  0.82350  0.16982  Biso   1.000  O
  O2       1.0000 0.80850  0.32350  0.33018  Biso   1.000  O
  O3       1.0000 0.80850  0.17650  0.83018  Biso   1.000  O
  O4       1.0000 0.19150  0.67650  0.66982  Biso   1.000  O
  O5       1.0000 0.20780  0.95260  0.05020  Biso   1.000  O
  O6       1.0000 0.79220  0.45260  0.44980  Biso   1.000  O
  O7       1.0000 0.79220  0.04740  0.94980  Biso   1.000  O
  O8       1.0000 0.20780  0.54740  0.55020  Biso   1.000  O
  N1       1.0000 0.74420  0.85740  0.16480  Biso   1.000  N
  N2       1.0000 0.25580  0.35740  0.33520  Biso   1.000  N
  N3       1.0000 0.25580  0.14260  0.83520  Biso   1.000  N
  N4       1.0000 0.74420  0.64260  0.66480  Biso   1.000  N
  N5       1.0000 0.93500  0.74820  0.05770  Biso   1.000  N
  N6       1.0000 0.06500  0.24820  0.44230  Biso   1.000  N
  N7       1.0000 0.06500  0.25180  0.94230  Biso   1.000  N
  N8       1.0000 0.93500  0.75180  0.55770  Biso   1.000  N
  N9       1.0000 0.82400  0.64400  0.02770  Biso   1.000  N
  N10      1.0000 0.17600  0.14400  0.47230  Biso   1.000  N
  N11      1.0000 0.17600  0.35600  0.97230  Biso   1.000  N
  N12      1.0000 0.82400  0.85600  0.52770  Biso   1.000  N
  N13      1.0000 0.72110  0.54340  0.99990  Biso   1.000  N
  N14      1.0000 0.27890  0.04340  0.50010  Biso   1.000  N
  N15      1.0000 0.27890  0.45660  0.00010  Biso   1.000  N
  N16      1.0000 0.72110  0.95660  0.49990  Biso   1.000  N
  N17      1.0000 0.98540  0.47180  0.22260  Biso   1.000  N
  N18      1.0000 0.01460  0.97180  0.27740  Biso   1.000  N
  N19      1.0000 0.01460  0.52820  0.77740  Biso   1.000  N
  N20      1.0000 0.98540  0.02820  0.72260  Biso   1.000  N
  N21      1.0000 0.99460  0.35310  0.17040  Biso   1.000  N
  N22      1.0000 0.00540  0.85310  0.32960  Biso   1.000  N
  N23      1.0000 0.00540  0.64690  0.82960  Biso   1.000  N
  N24      1.0000 0.99460  0.14690  0.67040  Biso   1.000  N
  N25      1.0000 0.99980  0.23870  0.11930  Biso   1.000  N
  N26      1.0000 0.00020  0.73870  0.38070  Biso   1.000  N
  N27      1.0000 0.00020  0.76130  0.88070  Biso   1.000  N
  N28      1.0000 0.99980  0.26130  0.61930  Biso   1.000  N
  C1       1.0000 0.66260  0.71330  0.19620  Biso   1.000  C
  C2       1.0000 0.33740  0.21330  0.30380  Biso   1.000  C
  C3       1.0000 0.33740  0.28670  0.80380  Biso   1.000  C
  C4       1.0000 0.66260  0.78670  0.69620  Biso   1.000  C
  H1       1.0000 0.71200  0.59900  0.22300  Biso   1.000  H
  H2       1.0000 0.28800  0.09900  0.27700  Biso   1.000  H
  H3       1.0000 0.28800  0.40100  0.77700  Biso   1.000  H
  H4       1.0000 0.71200  0.90100  0.72300  Biso   1.000  H
  C5       1.0000 0.50640  0.71820  0.18380  Biso   1.000  C
  C6       1.0000 0.49360  0.21820  0.31620  Biso   1.000  C
  C7       1.0000 0.49360  0.28180  0.81620  Biso   1.000  C
  C8       1.0000 0.50640  0.78180  0.68380  Biso   1.000  C
  H5       1.0000 0.45800  0.59200  0.20900  Biso   1.000  H
  H6       1.0000 0.54200  0.09200  0.29100  Biso   1.000  H
  H7       1.0000 0.54200  0.40800  0.79100  Biso   1.000  H
  H8       1.0000 0.45800  0.90800  0.70900  Biso   1.000  H
  C9       1.0000 0.43200  0.87490  0.13550  Biso   1.000  C
  C10      1.0000 0.56800  0.37490  0.36450  Biso   1.000  C
  C11      1.0000 0.56800  0.12510  0.86450  Biso   1.000  C
  C12      1.0000 0.43200  0.62510  0.63550  Biso   1.000  C
  C13      1.0000 0.51430  0.02670  0.10450  Biso   1.000  C
  C14      1.0000 0.48570  0.52670  0.39550  Biso   1.000  C
  C15      1.0000 0.48570  0.97330  0.89550  Biso   1.000  C
  C16      1.0000 0.51430  0.47330  0.60450  Biso   1.000  C
  H9       1.0000 0.48100  0.14300  0.08000  Biso   1.000  H
  H10      1.0000 0.51900  0.64300  0.42000  Biso   1.000  H
  H11      1.0000 0.51900  0.85700  0.92000  Biso   1.000  H
  H12      1.0000 0.48100  0.35700  0.58000  Biso   1.000  H
  C17      1.0000 0.66940  0.01630  0.12000  Biso   1.000  C
  C18      1.0000 0.33060  0.51630  0.38000  Biso   1.000  C
  C19      1.0000 0.33060  0.98370  0.88000  Biso   1.000  C
  C20      1.0000 0.66940  0.48370  0.62000  Biso   1.000  C
  H13      1.0000 0.72000  0.13000  0.09600  Biso   1.000  H
  H14      1.0000 0.28000  0.63000  0.40400  Biso   1.000  H
  H15      1.0000 0.28000  0.87000  0.90400  Biso   1.000  H
  H16      1.0000 0.72000  0.37000  0.59600  Biso   1.000  H
  C21      1.0000 0.26020  0.88050  0.11700  Biso   1.000  C
  C22      1.0000 0.73980  0.38050  0.38300  Biso   1.000  C
  C23      1.0000 0.73980  0.11950  0.88300  Biso   1.000  C
  C24      1.0000 0.26020  0.61950  0.61700  Biso   1.000  C
