data_image0
_cell_length_a       12.485
_cell_length_b       12.624
_cell_length_c       15.718
_cell_angle_alpha    90
_cell_angle_beta     90.42
_cell_angle_gamma    90

_symmetry_space_group_name_H-M    "P 1"
_symmetry_int_tables_number       1

loop_
  _symmetry_equiv_pos_as_xyz
  'x, y, z'

loop_
  _atom_site_label
  _atom_site_occupancy
  _atom_site_fract_x
  _atom_site_fract_y
  _atom_site_fract_z
  _atom_site_thermal_displace_type
  _atom_site_B_iso_or_equiv
  _atom_site_type_symbol
  Cu1      1.0000 0.82410  0.35960  0.28760  Biso   1.000  Cu
  Cu2      1.0000 0.67590  0.85960  0.21240  Biso   1.000  Cu
  Cu3      1.0000 0.17590  0.64040  0.71240  Biso   1.000  Cu
  Cu4      1.0000 0.32410  0.14040  0.78760  Biso   1.000  Cu
  O1       1.0000 0.87010  0.21770  0.30930  Biso   1.000  O
  O2       1.0000 0.62990  0.71770  0.19070  Biso   1.000  O
  O3       1.0000 0.12990  0.78230  0.69070  Biso   1.000  O
  O4       1.0000 0.37010  0.28230  0.80930  Biso   1.000  O
  O5       1.0000 0.97340  0.38850  0.25080  Biso   1.000  O
  O6       1.0000 0.52660  0.88850  0.24920  Biso   1.000  O
  O7       1.0000 0.02660  0.61150  0.74920  Biso   1.000  O
  O8       1.0000 0.47340  0.11150  0.75080  Biso   1.000  O
  O9       1.0000 0.97670  0.40470  0.38750  Biso   1.000  O
  O10      1.0000 0.52330  0.90470  0.11250  Biso   1.000  O
  O11      1.0000 0.02330  0.59530  0.61250  Biso   1.000  O
  O12      1.0000 0.47670  0.09530  0.88750  Biso   1.000  O
  O13      1.0000 0.12280  0.41700  0.31650  Biso   1.000  O
  O14      1.0000 0.37720  0.91700  0.18350  Biso   1.000  O
  O15      1.0000 0.87720  0.58300  0.68350  Biso   1.000  O
  O16      1.0000 0.62280  0.08300  0.81650  Biso   1.000  O
  O17      1.0000 0.69690  0.34810  0.35910  Biso   1.000  O
  O18      1.0000 0.80310  0.84810  0.14090  Biso   1.000  O
  O19      1.0000 0.30310  0.65190  0.64090  Biso   1.000  O
  O20      1.0000 0.19690  0.15190  0.85910  Biso   1.000  O
  O21      1.0000 0.52410  0.34280  0.34630  Biso   1.000  O
  O22      1.0000 0.97590  0.84280  0.15370  Biso   1.000  O
  O23      1.0000 0.47590  0.65720  0.65370  Biso   1.000  O
  O24      1.0000 0.02410  0.15720  0.84630  Biso   1.000  O
  O25      1.0000 0.62390  0.28860  0.24510  Biso   1.000  O
  O26      1.0000 0.87610  0.78860  0.25490  Biso   1.000  O
  O27      1.0000 0.37610  0.71140  0.75490  Biso   1.000  O
  O28      1.0000 0.12390  0.21140  0.74510  Biso   1.000  O
  N1       1.0000 0.79610  0.20730  0.49570  Biso   1.000  N
  N2       1.0000 0.70390  0.70730  0.00430  Biso   1.000  N
  N3       1.0000 0.20390  0.79270  0.50430  Biso   1.000  N
  N4       1.0000 0.29610  0.29270  0.99570  Biso   1.000  N
  H1       1.0000 0.78100  0.23800  0.46800  Biso   1.000  H
  H2       1.0000 0.71900  0.73800  0.03200  Biso   1.000  H
  H3       1.0000 0.21900  0.76200  0.53200  Biso   1.000  H
  H4       1.0000 0.28100  0.26200  0.96800  Biso   1.000  H
  N5       1.0000 0.73070  0.98020  0.27860  Biso   1.000  N
  N6       1.0000 0.76930  0.48020  0.22140  Biso   1.000  N
  N7       1.0000 0.26930  0.01980  0.72140  Biso   1.000  N
  N8       1.0000 0.23070  0.51980  0.77860  Biso   1.000  N
  N9       1.0000 0.78300  0.07200  0.25070  Biso   1.000  N
  N10      1.0000 0.71700  0.57200  0.24930  Biso   1.000  N
  N11      1.0000 0.21700  0.92800  0.74930  Biso   1.000  N
  N12      1.0000 0.28300  0.42800  0.75070  Biso   1.000  N
  N13      1.0000 0.02610  0.40380  0.31990  Biso   1.000  N
  N14      1.0000 0.47390  0.90380  0.18010  Biso   1.000  N
  N15      1.0000 0.97390  0.59620  0.68010  Biso   1.000  N
  N16      1.0000 0.52610  0.09620  0.81990  Biso   1.000  N
  N17      1.0000 0.61130  0.32620  0.31580  Biso   1.000  N
  N18      1.0000 0.88870  0.82620  0.18420  Biso   1.000  N
  N19      1.0000 0.38870  0.67380  0.68420  Biso   1.000  N
  N20      1.0000 0.11130  0.17380  0.81580  Biso   1.000  N
  N21      1.0000 0.55760  0.13240  0.48760  Biso   1.000  N
  N22      1.0000 0.94240  0.63240  0.01240  Biso   1.000  N
  N23      1.0000 0.44240  0.86760  0.51240  Biso   1.000  N
  N24      1.0000 0.05760  0.36760  0.98760  Biso   1.000  N
  C1       1.0000 0.80720  0.10870  0.47770  Biso   1.000  C
  C2       1.0000 0.69280  0.60870  0.02230  Biso   1.000  C
  C3       1.0000 0.19280  0.89130  0.52230  Biso   1.000  C
  C4       1.0000 0.30720  0.39130  0.97770  Biso   1.000  C
  C5       1.0000 0.83770  0.03700  0.54710  Biso   1.000  C
  C6       1.0000 0.66230  0.53700  0.95290  Biso   1.000  C
  C7       1.0000 0.16230  0.96300  0.45290  Biso   1.000  C
  C8       1.0000 0.33770  0.46300  0.04710  Biso   1.000  C
  C9       1.0000 0.88540  0.93820  0.53010  Biso   1.000  C
  C10      1.0000 0.61460  0.43820  0.96990  Biso   1.000  C
  C11      1.0000 0.11460  0.06180  0.46990  Biso   1.000  C
  C12      1.0000 0.38540  0.56180  0.03010  Biso   1.000  C
  H5       1.0000 0.89900  0.91800  0.47400  Biso   1.000  H
  H6       1.0000 0.60100  0.41800  0.02600  Biso   1.000  H
  H7       1.0000 0.10100  0.08200  0.52600  Biso   1.000  H
  H8       1.0000 0.39900  0.58200  0.97400  Biso   1.000  H
  C13      1.0000 0.91280  0.87150  0.59590  Biso   1.000  C
  C14      1.0000 0.58720  0.37150  0.90410  Biso   1.000  C
  C15      1.0000 0.08720  0.12850  0.40410  Biso   1.000  C
  C16      1.0000 0.41280  0.62850  0.09590  Biso   1.000  C
  H9       1.0000 0.94300  0.80500  0.58500  Biso   1.000  H
  H10      1.0000 0.55700  0.30500  0.91500  Biso   1.000  H
  H11      1.0000 0.05700  0.19500  0.41500  Biso   1.000  H
  H12      1.0000 0.44300  0.69500  0.08500  Biso   1.000  H
  C17      1.0000 0.89590  0.90310  0.67780  Biso   1.000  C
  C18      1.0000 0.60410  0.40310  0.82220  Biso   1.000  C
  C19      1.0000 0.10410  0.09690  0.32220  Biso   1.000  C
  C20      1.0000 0.39590  0.59690  0.17780  Biso   1.000  C
  H13      1.0000 0.91500  0.85800  0.72200  Biso   1.000  H
  H14      1.0000 0.58500  0.35800  0.77800  Biso   1.000  H
  H15      1.0000 0.08500  0.14200  0.27800  Biso   1.000  H
  H16      1.0000 0.41500  0.64200  0.22200  Biso   1.000  H
  C21      1.0000 0.85130  0.99970  0.69600  Biso   1.000  C
  C22      1.0000 0.64870  0.49970  0.80400  Biso   1.000  C
  C23      1.0000 0.14870  0.00030  0.30400  Biso   1.000  C
  C24      1.0000 0.35130  0.50030  0.19600  Biso   1.000  C
  H17      1.0000 0.84100  0.01900  0.75200  Biso   1.000  H
  H18      1.0000 0.65900  0.51900  0.74800  Biso   1.000  H
  H19      1.0000 0.15900  0.98100  0.24800  Biso   1.000  H
  H20      1.0000 0.34100  0.48100  0.25200  Biso   1.000  H
  C25      1.0000 0.82200  0.06880  0.63040  Biso   1.000  C
  C26      1.0000 0.67800  0.56880  0.86960  Biso   1.000  C
  C27      1.0000 0.17800  0.93120  0.36960  Biso   1.000  C
  C28      1.0000 0.32200  0.43120  0.13040  Biso   1.000  C
  C29      1.0000 0.77340  0.17550  0.64570  Biso   1.000  C
  C30      1.0000 0.72660  0.67550  0.85430  Biso   1.000  C
  C31      1.0000 0.22660  0.82450  0.35430  Biso   1.000  C
  C32      1.0000 0.27340  0.32450  0.14570  Biso   1.000  C
  H21      1.0000 0.79300  0.20000  0.70200  Biso   1.000  H
  H22      1.0000 0.70700  0.70000  0.79800  Biso   1.000  H
  H23      1.0000 0.20700  0.80000  0.29800  Biso   1.000  H
  H24      1.0000 0.29300  0.30000  0.20200  Biso   1.000  H
  H25      1.0000 0.69600  0.17000  0.64300  Biso   1.000  H
  H26      1.0000 0.80400  0.67000  0.85700  Biso   1.000  H
  H27      1.0000 0.30400  0.83000  0.35700  Biso   1.000  H
  H28      1.0000 0.19600  0.33000  0.14300  Biso   1.000  H
  C33      1.0000 0.81030  0.25650  0.58080  Biso   1.000  C
  C34      1.0000 0.68970  0.75650  0.91920  Biso   1.000  C
  C35      1.0000 0.18970  0.74350  0.41920  Biso   1.000  C
  C36      1.0000 0.31030  0.24350  0.08080  Biso   1.000  C
  C37      1.0000 0.92690  0.28690  0.59200  Biso   1.000  C
  C38      1.0000 0.57310  0.78690  0.90800  Biso   1.000  C
  C39      1.0000 0.07310  0.71310  0.40800  Biso   1.000  C
  C40      1.0000 0.42690  0.21310  0.09200  Biso   1.000  C
  H29      1.0000 0.97100  0.22400  0.59100  Biso   1.000  H
  H30      1.0000 0.52900  0.72400  0.90900  Biso   1.000  H
  H31      1.0000 0.02900  0.77600  0.40900  Biso   1.000  H
  H32      1.0000 0.47100  0.27600  0.09100  Biso   1.000  H
  H33      1.0000 0.93700  0.32200  0.64600  Biso   1.000  H
  H34      1.0000 0.56300  0.82200  0.85400  Biso   1.000  H
  H35      1.0000 0.06300  0.67800  0.35400  Biso   1.000  H
  H36      1.0000 0.43700  0.17800  0.14600  Biso   1.000  H
  H37      1.0000 0.94800  0.33400  0.54700  Biso   1.000  H
  H38      1.0000 0.55200  0.83400  0.95300  Biso   1.000  H
  H39      1.0000 0.05200  0.66600  0.45300  Biso   1.000  H
  H40      1.0000 0.44800  0.16600  0.04700  Biso   1.000  H
  C41      1.0000 0.73910  0.35410  0.58250  Biso   1.000  C
  C42      1.0000 0.76090  0.85410  0.91750  Biso   1.000  C
  C43      1.0000 0.26090  0.64590  0.41750  Biso   1.000  C
  C44      1.0000 0.23910  0.14590  0.08250  Biso   1.000  C
  H41      1.0000 0.66600  0.33300  0.57500  Biso   1.000  H
  H42      1.0000 0.83400  0.83300  0.92500  Biso   1.000  H
  H43      1.0000 0.33400  0.66700  0.42500  Biso   1.000  H
  H44      1.0000 0.16600  0.16700  0.07500  Biso   1.000  H
  H45      1.0000 0.75900  0.40100  0.53700  Biso   1.000  H
  H46      1.0000 0.74100  0.90100  0.96300  Biso   1.000  H
  H47      1.0000 0.24100  0.59900  0.46300  Biso   1.000  H
  H48      1.0000 0.25900  0.09900  0.03700  Biso   1.000  H
  H49      1.0000 0.74800  0.39000  0.63600  Biso   1.000  H
  H50      1.0000 0.75200  0.89000  0.86400  Biso   1.000  H
  H51      1.0000 0.25200  0.61000  0.36400  Biso   1.000  H
  H52      1.0000 0.24800  0.11000  0.13600  Biso   1.000  H
  C45      1.0000 0.78950  0.07300  0.39070  Biso   1.000  C
  C46      1.0000 0.71050  0.57300  0.10930  Biso   1.000  C
  C47      1.0000 0.21050  0.92700  0.60930  Biso   1.000  C
  C48      1.0000 0.28950  0.42700  0.89070  Biso   1.000  C
  C49      1.0000 0.81770  0.13180  0.31830  Biso   1.000  C
  C50      1.0000 0.68230  0.63180  0.18170  Biso   1.000  C
  C51      1.0000 0.18230  0.86820  0.68170  Biso   1.000  C
  C52      1.0000 0.31770  0.36820  0.81830  Biso   1.000  C
  C53      1.0000 0.73760  0.98140  0.36260  Biso   1.000  C
  C54      1.0000 0.76240  0.48140  0.13740  Biso   1.000  C
  C55      1.0000 0.26240  0.01860  0.63740  Biso   1.000  C
  C56      1.0000 0.23760  0.51860  0.86260  Biso   1.000  C
  C57      1.0000 0.68680  0.89210  0.40980  Biso   1.000  C
  C58      1.0000 0.81320  0.39210  0.09020  Biso   1.000  C
  C59      1.0000 0.31320  0.10790  0.59020  Biso   1.000  C
  C60      1.0000 0.18680  0.60790  0.90980  Biso   1.000  C
  H53      1.0000 0.65900  0.84100  0.37000  Biso   1.000  H
  H54      1.0000 0.84100  0.34100  0.13000  Biso   1.000  H
  H55      1.0000 0.34100  0.15900  0.63000  Biso   1.000  H
  H56      1.0000 0.15900  0.65900  0.87000  Biso   1.000  H
  H57      1.0000 0.63000  0.91900  0.44400  Biso   1.000  H
  H58      1.0000 0.87000  0.41900  0.05600  Biso   1.000  H
  H59      1.0000 0.37000  0.08100  0.55600  Biso   1.000  H
  H60      1.0000 0.13000  0.58100  0.94400  Biso   1.000  H
  H61      1.0000 0.73900  0.85800  0.44600  Biso   1.000  H
  H62      1.0000 0.76100  0.35800  0.05400  Biso   1.000  H
  H63      1.0000 0.26100  0.14200  0.55400  Biso   1.000  H
  H64      1.0000 0.23900  0.64200  0.94600  Biso   1.000  H
  C61      1.0000 0.79170  0.09340  0.16190  Biso   1.000  C
  C62      1.0000 0.70830  0.59340  0.33810  Biso   1.000  C
  C63      1.0000 0.20830  0.90660  0.83810  Biso   1.000  C
  C64      1.0000 0.29170  0.40660  0.66190  Biso   1.000  C
  C65      1.0000 0.70020  0.10090  0.11240  Biso   1.000  C
  C66      1.0000 0.79980  0.60090  0.38760  Biso   1.000  C
  C67      1.0000 0.29980  0.89910  0.88760  Biso   1.000  C
  C68      1.0000 0.20020  0.39910  0.61240  Biso   1.000  C
  H65      1.0000 0.63300  0.09500  0.13700  Biso   1.000  H
  H66      1.0000 0.86700  0.59500  0.36300  Biso   1.000  H
  H67      1.0000 0.36700  0.90500  0.86300  Biso   1.000  H
  H68      1.0000 0.13300  0.40500  0.63700  Biso   1.000  H
  C69      1.0000 0.71020  0.11700  0.02540  Biso   1.000  C
  C70      1.0000 0.78980  0.61700  0.47460  Biso   1.000  C
  C71      1.0000 0.28980  0.88300  0.97460  Biso   1.000  C
  C72      1.0000 0.21020  0.38300  0.52540  Biso   1.000  C
  H69      1.0000 0.64900  0.11900  0.99100  Biso   1.000  H
  H70      1.0000 0.85100  0.61900  0.50900  Biso   1.000  H
  H71      1.0000 0.35100  0.88100  0.00900  Biso   1.000  H
  H72      1.0000 0.14900  0.38100  0.49100  Biso   1.000  H
  C73      1.0000 0.80850  0.12940  0.98970  Biso   1.000  C
  C74      1.0000 0.69150  0.62940  0.51030  Biso   1.000  C
  C75      1.0000 0.19150  0.87060  0.01030  Biso   1.000  C
  C76      1.0000 0.30850  0.37060  0.48970  Biso   1.000  C
  H73      1.0000 0.81500  0.14200  0.93200  Biso   1.000  H
  H74      1.0000 0.68500  0.64200  0.56800  Biso   1.000  H
  H75      1.0000 0.18500  0.85800  0.06800  Biso   1.000  H
  H76      1.0000 0.31500  0.35800  0.43200  Biso   1.000  H
  C77      1.0000 0.89850  0.12330  0.03970  Biso   1.000  C
  C78      1.0000 0.60150  0.62330  0.46030  Biso   1.000  C
  C79      1.0000 0.10150  0.87670  0.96030  Biso   1.000  C
  C80      1.0000 0.39850  0.37670  0.53970  Biso   1.000  C
  H77      1.0000 0.96500  0.13100  0.01500  Biso   1.000  H
  H78      1.0000 0.53500  0.63100  0.48500  Biso   1.000  H
  H79      1.0000 0.03500  0.86900  0.98500  Biso   1.000  H
  H80      1.0000 0.46500  0.36900  0.51500  Biso   1.000  H
  C81      1.0000 0.89250  0.10620  0.12570  Biso   1.000  C
  C82      1.0000 0.60750  0.60620  0.37430  Biso   1.000  C
  C83      1.0000 0.10750  0.89380  0.87430  Biso   1.000  C
  C84      1.0000 0.39250  0.39380  0.62570  Biso   1.000  C
  H81      1.0000 0.95400  0.10300  0.15900  Biso   1.000  H
  H82      1.0000 0.54600  0.60300  0.34100  Biso   1.000  H
  H83      1.0000 0.04600  0.89700  0.84100  Biso   1.000  H
  H84      1.0000 0.45400  0.39700  0.65900  Biso   1.000  H
  C85      1.0000 0.50510  0.11850  0.42980  Biso   1.000  C
  C86      1.0000 0.99490  0.61850  0.07020  Biso   1.000  C
  C87      1.0000 0.49490  0.88150  0.57020  Biso   1.000  C
  C88      1.0000 0.00510  0.38150  0.92980  Biso   1.000  C
  C89      1.0000 0.43500  0.10000  0.35960  Biso   1.000  C
  C90      1.0000 0.06500  0.60000  0.14040  Biso   1.000  C
  C91      1.0000 0.56500  0.90000  0.64040  Biso   1.000  C
  C92      1.0000 0.93500  0.40000  0.85960  Biso   1.000  C
  H85      1.0000 0.39800  0.16000  0.35100  Biso   1.000  H
  H86      1.0000 0.10200  0.66000  0.14900  Biso   1.000  H
  H87      1.0000 0.60200  0.84000  0.64900  Biso   1.000  H
  H88      1.0000 0.89800  0.34000  0.85100  Biso   1.000  H
  H89      1.0000 0.38300  0.04800  0.38000  Biso   1.000  H
  H90      1.0000 0.11700  0.54800  0.12000  Biso   1.000  H
  H91      1.0000 0.61700  0.95200  0.62000  Biso   1.000  H
  H92      1.0000 0.88300  0.45200  0.88000  Biso   1.000  H
  H93      1.0000 0.46400  0.10800  0.29600  Biso   1.000  H
  H94      1.0000 0.03600  0.60800  0.20400  Biso   1.000  H
  H95      1.0000 0.53600  0.89200  0.70400  Biso   1.000  H
  H96      1.0000 0.96400  0.39200  0.79600  Biso   1.000  H
