data_image0
_cell_length_a       6.693
_cell_length_b       10.696
_cell_length_c       10.769
_cell_angle_alpha    114.11
_cell_angle_beta     94.05
_cell_angle_gamma    100.5

_symmetry_space_group_name_H-M    "P 1"
_symmetry_int_tables_number       1

loop_
  _symmetry_equiv_pos_as_xyz
  'x, y, z'

loop_
  _atom_site_label
  _atom_site_occupancy
  _atom_site_fract_x
  _atom_site_fract_y
  _atom_site_fract_z
  _atom_site_thermal_displace_type
  _atom_site_B_iso_or_equiv
  _atom_site_type_symbol
  Cu1      1.0000 0.13120  0.36276  0.31065  Biso   1.000  Cu
  Cu2      1.0000 0.86880  0.63724  0.68935  Biso   1.000  Cu
  P1       1.0000 0.27590  0.54440  0.64664  Biso   1.000  P
  P2       1.0000 0.72410  0.45560  0.35336  Biso   1.000  P
  P3       1.0000 0.95056  0.87997  0.61921  Biso   1.000  P
  P4       1.0000 0.04944  0.12003  0.38079  Biso   1.000  P
  O1       1.0000 0.25409  0.53358  0.50243  Biso   1.000  O
  O2       1.0000 0.74591  0.46642  0.49757  Biso   1.000  O
  O3       1.0000 0.09110  0.55563  0.72062  Biso   1.000  O
  O4       1.0000 0.90890  0.44437  0.27938  Biso   1.000  O
  O5       1.0000 0.36762  0.42181  0.65554  Biso   1.000  O
  O6       1.0000 0.63238  0.57819  0.34446  Biso   1.000  O
  H1       1.0000 0.27760  0.34580  0.61810  Biso   1.000  H
  H2       1.0000 0.72240  0.65420  0.38190  Biso   1.000  H
  O7       1.0000 0.06354  0.79053  0.66198  Biso   1.000  O
  O8       1.0000 0.93646  0.20947  0.33802  Biso   1.000  O
  O9       1.0000 0.88387  0.82453  0.46399  Biso   1.000  O
  O10      1.0000 0.11613  0.17547  0.53601  Biso   1.000  O
  O11      1.0000 0.08005  0.03489  0.68097  Biso   1.000  O
  O12      1.0000 0.91995  0.96511  0.31903  Biso   1.000  O
  H3       1.0000 0.07740  0.06520  0.62030  Biso   1.000  H
  H4       1.0000 0.92260  0.93480  0.37970  Biso   1.000  H
  N1       1.0000 0.63594  0.73104  0.67126  Biso   1.000  N
  N2       1.0000 0.36406  0.26896  0.32874  Biso   1.000  N
  H5       1.0000 0.57360  0.68650  0.57930  Biso   1.000  H
  H6       1.0000 0.42640  0.31350  0.42070  Biso   1.000  H
  N3       1.0000 0.75427  0.64398  0.85928  Biso   1.000  N
  N4       1.0000 0.24573  0.35602  0.14072  Biso   1.000  N
  C1       1.0000 0.47881  0.70394  0.75372  Biso   1.000  C
  C2       1.0000 0.52119  0.29606  0.24628  Biso   1.000  C
  H7       1.0000 0.41350  0.78620  0.78910  Biso   1.000  H
  H8       1.0000 0.58650  0.21380  0.21090  Biso   1.000  H
  C3       1.0000 0.72064  0.88483  0.70471  Biso   1.000  C
  C4       1.0000 0.27936  0.11517  0.29529  Biso   1.000  C
  C5       1.0000 0.79153  0.97058  0.86071  Biso   1.000  C
  C6       1.0000 0.20847  0.02942  0.13929  Biso   1.000  C
  H9       1.0000 0.88630  0.92670  0.89360  Biso   1.000  H
  H10      1.0000 0.11370  0.07330  0.10640  Biso   1.000  H
  H11      1.0000 0.86190  0.06690  0.88000  Biso   1.000  H
  H12      1.0000 0.13810  0.93310  0.12000  Biso   1.000  H
  H13      1.0000 0.67160  0.97290  0.90810  Biso   1.000  H
  H14      1.0000 0.32840  0.02710  0.09190  Biso   1.000  H
  C7       1.0000 0.56481  0.94609  0.65067  Biso   1.000  C
  C8       1.0000 0.43519  0.05391  0.34933  Biso   1.000  C
  H15      1.0000 0.44540  0.94620  0.69840  Biso   1.000  H
  H16      1.0000 0.55460  0.05380  0.30160  Biso   1.000  H
  H17      1.0000 0.62890  0.04280  0.66750  Biso   1.000  H
  H18      1.0000 0.37110  0.95720  0.33250  Biso   1.000  H
  H19      1.0000 0.52010  0.88860  0.55140  Biso   1.000  H
  H20      1.0000 0.47990  0.11140  0.44860  Biso   1.000  H
  C9       1.0000 0.57837  0.68874  0.87573  Biso   1.000  C
  C10      1.0000 0.42163  0.31126  0.12427  Biso   1.000  C
  C11      1.0000 0.84830  0.62071  0.96015  Biso   1.000  C
  C12      1.0000 0.15170  0.37929  0.03985  Biso   1.000  C
  H21      1.0000 0.97210  0.58880  0.94780  Biso   1.000  H
  H22      1.0000 0.02790  0.41120  0.05220  Biso   1.000  H
  C13      1.0000 0.77020  0.64185  0.08142  Biso   1.000  C
  C14      1.0000 0.22980  0.35815  0.91858  Biso   1.000  C
  H23      1.0000 0.83910  0.62450  0.15090  Biso   1.000  H
  H24      1.0000 0.16090  0.37550  0.84910  Biso   1.000  H
  C15      1.0000 0.58882  0.68903  0.09928  Biso   1.000  C
  C16      1.0000 0.41118  0.31097  0.90072  Biso   1.000  C
  H25      1.0000 0.53220  0.70470  0.18140  Biso   1.000  H
  H26      1.0000 0.46780  0.29530  0.81860  Biso   1.000  H
  C17      1.0000 0.49186  0.71279  0.99499  Biso   1.000  C
  C18      1.0000 0.50814  0.28721  0.00501  Biso   1.000  C
  H27      1.0000 0.36810  0.74500  0.00500  Biso   1.000  H
  H28      1.0000 0.63190  0.25500  0.99500  Biso   1.000  H
  O13      1.0000 0.74910  0.28593  0.67158  Biso   1.000  O
  O14      1.0000 0.25090  0.71407  0.32842  Biso   1.000  O
  H29      1.0000 0.72300  0.35150  0.65400  Biso   1.000  H
  H30      1.0000 0.27700  0.64850  0.34600  Biso   1.000  H
  H31      1.0000 0.85200  0.26100  0.63700  Biso   1.000  H
  H32      1.0000 0.14800  0.73900  0.36300  Biso   1.000  H
