data_image0
_cell_length_a       6.9386
_cell_length_b       10.3463
_cell_length_c       10.8572
_cell_angle_alpha    69.734
_cell_angle_beta     81.354
_cell_angle_gamma    75.687

_symmetry_space_group_name_H-M    "P 1"
_symmetry_int_tables_number       1

loop_
  _symmetry_equiv_pos_as_xyz
  'x, y, z'

loop_
  _atom_site_label
  _atom_site_occupancy
  _atom_site_fract_x
  _atom_site_fract_y
  _atom_site_fract_z
  _atom_site_thermal_displace_type
  _atom_site_B_iso_or_equiv
  _atom_site_type_symbol
  Cu1      1.0000 0.15033  0.08981  0.36424  Biso   1.000  Cu
  Cu2      1.0000 0.84967  0.91019  0.63576  Biso   1.000  Cu
  N1       1.0000 0.27450  0.91990  0.31010  Biso   1.000  N
  N2       1.0000 0.72550  0.08010  0.68990  Biso   1.000  N
  N3       1.0000 0.07960  0.17090  0.17620  Biso   1.000  N
  N4       1.0000 0.92040  0.82910  0.82380  Biso   1.000  N
  O1       1.0000 0.19110  0.99790  0.55507  Biso   1.000  O
  O2       1.0000 0.80890  0.00210  0.44493  Biso   1.000  O
  H1       1.0000 0.17590  0.07930  0.58210  Biso   1.000  H
  H2       1.0000 0.82410  0.92070  0.41790  Biso   1.000  H
  H3       1.0000 0.30860  0.92070  0.60210  Biso   1.000  H
  H4       1.0000 0.69140  0.07930  0.39790  Biso   1.000  H
  O3       1.0000 0.03520  0.26910  0.38820  Biso   1.000  O
  O4       1.0000 0.96480  0.73090  0.61180  Biso   1.000  O
  O5       1.0000 0.12310  0.23930  0.58690  Biso   1.000  O
  O6       1.0000 0.87690  0.76070  0.41310  Biso   1.000  O
  C1       1.0000 0.36390  0.79120  0.38150  Biso   1.000  C
  C2       1.0000 0.63610  0.20880  0.61850  Biso   1.000  C
  H5       1.0000 0.37160  0.77160  0.47110  Biso   1.000  H
  H6       1.0000 0.62840  0.22840  0.52890  Biso   1.000  H
  C3       1.0000 0.44640  0.68490  0.32560  Biso   1.000  C
  C4       1.0000 0.55360  0.31510  0.67440  Biso   1.000  C
  H7       1.0000 0.50540  0.59570  0.37840  Biso   1.000  H
  H8       1.0000 0.49460  0.40430  0.62160  Biso   1.000  H
  C5       1.0000 0.44080  0.71110  0.19400  Biso   1.000  C
  C6       1.0000 0.55920  0.28890  0.80600  Biso   1.000  C
  H9       1.0000 0.49530  0.64030  0.15680  Biso   1.000  H
  H10      1.0000 0.50470  0.35970  0.84320  Biso   1.000  H
  C7       1.0000 0.35160  0.84650  0.11530  Biso   1.000  C
  C8       1.0000 0.64840  0.15350  0.88470  Biso   1.000  C
  C9       1.0000 0.26720  0.94580  0.17940  Biso   1.000  C
  C10      1.0000 0.73280  0.05420  0.82060  Biso   1.000  C
  C11      1.0000 0.16560  0.08330  0.10630  Biso   1.000  C
  C12      1.0000 0.83440  0.91670  0.89370  Biso   1.000  C
  C13      1.0000 0.15800  0.12080  0.97000  Biso   1.000  C
  C14      1.0000 0.84200  0.87920  0.03000  Biso   1.000  C
  C15      1.0000 0.25410  0.01980  0.90610  Biso   1.000  C
  C16      1.0000 0.74590  0.98020  0.09390  Biso   1.000  C
  H11      1.0000 0.25370  0.04490  0.81520  Biso   1.000  H
  H12      1.0000 0.74630  0.95510  0.18480  Biso   1.000  H
  C17      1.0000 0.34580  0.88810  0.97550  Biso   1.000  C
  C18      1.0000 0.65420  0.11190  0.02450  Biso   1.000  C
  H13      1.0000 0.40590  0.82390  0.93170  Biso   1.000  H
  H14      1.0000 0.59410  0.17610  0.06830  Biso   1.000  H
  C19      1.0000 0.05180  0.25760  0.90570  Biso   1.000  C
  C20      1.0000 0.94820  0.74240  0.09430  Biso   1.000  C
  H15      1.0000 0.04510  0.28910  0.81480  Biso   1.000  H
  H16      1.0000 0.95490  0.71090  0.18520  Biso   1.000  H
  C21      1.0000 0.95920  0.34340  0.97750  Biso   1.000  C
  C22      1.0000 0.04080  0.65660  0.02250  Biso   1.000  C
  H17      1.0000 0.88440  0.43230  0.93610  Biso   1.000  H
  H18      1.0000 0.11560  0.56770  0.06390  Biso   1.000  H
  C23      1.0000 0.97630  0.29800  0.11350  Biso   1.000  C
  C24      1.0000 0.02370  0.70200  0.88650  Biso   1.000  C
  H19      1.0000 0.91380  0.35810  0.16110  Biso   1.000  H
  H20      1.0000 0.08620  0.64190  0.83890  Biso   1.000  H
  C25      1.0000 0.05920  0.31440  0.47870  Biso   1.000  C
  C26      1.0000 0.94080  0.68560  0.52130  Biso   1.000  C
  C27      1.0000 0.00110  0.47270  0.44510  Biso   1.000  C
  C28      1.0000 0.99890  0.52730  0.55490  Biso   1.000  C
  H21      1.0000 0.09310  0.51410  0.37430  Biso   1.000  H
  H22      1.0000 0.90690  0.48590  0.62570  Biso   1.000  H
  H23      1.0000 0.86930  0.50450  0.41210  Biso   1.000  H
  H24      1.0000 0.13070  0.49550  0.58790  Biso   1.000  H
  N5       1.0000 0.47170  0.29840  0.26530  Biso   1.000  N
  N6       1.0000 0.52830  0.70160  0.73470  Biso   1.000  N
  O7       1.0000 0.48010  0.16640  0.31690  Biso   1.000  O
  O8       1.0000 0.51990  0.83360  0.68310  Biso   1.000  O
  O9       1.0000 0.53830  0.35960  0.32100  Biso   1.000  O
  O10      1.0000 0.46170  0.64040  0.67900  Biso   1.000  O
  O11      1.0000 0.39780  0.36120  0.15960  Biso   1.000  O
  O12      1.0000 0.60220  0.63880  0.84040  Biso   1.000  O
