data_image0
_cell_length_a       15.616
_cell_length_b       6.702
_cell_length_c       7.208
_cell_angle_alpha    90
_cell_angle_beta     91.87
_cell_angle_gamma    90

_symmetry_space_group_name_H-M    "P 1"
_symmetry_int_tables_number       1

loop_
  _symmetry_equiv_pos_as_xyz
  'x, y, z'

loop_
  _atom_site_label
  _atom_site_occupancy
  _atom_site_fract_x
  _atom_site_fract_y
  _atom_site_fract_z
  _atom_site_thermal_displace_type
  _atom_site_B_iso_or_equiv
  _atom_site_type_symbol
  Cu1      1.0000 0.00000  0.50000  0.50000  Biso   1.000  Cu
  Cu2      1.0000 0.00000  0.00000  0.00000  Biso   1.000  Cu
  Cl1      1.0000 0.94254  0.71706  0.28493  Biso   1.000  Cl
  Cl2      1.0000 0.94254  0.78294  0.78493  Biso   1.000  Cl
  Cl3      1.0000 0.05746  0.28294  0.71507  Biso   1.000  Cl
  Cl4      1.0000 0.05746  0.21706  0.21507  Biso   1.000  Cl
  N1       1.0000 0.20604  0.87320  0.46900  Biso   1.000  N
  N2       1.0000 0.20604  0.62680  0.96900  Biso   1.000  N
  N3       1.0000 0.79396  0.12680  0.53100  Biso   1.000  N
  N4       1.0000 0.79396  0.37320  0.03100  Biso   1.000  N
  N5       1.0000 0.24478  0.69720  0.44240  Biso   1.000  N
  N6       1.0000 0.24478  0.80280  0.94240  Biso   1.000  N
  N7       1.0000 0.75522  0.30280  0.55760  Biso   1.000  N
  N8       1.0000 0.75522  0.19720  0.05760  Biso   1.000  N
  N9       1.0000 0.18738  0.56090  0.45860  Biso   1.000  N
  N10      1.0000 0.18738  0.93910  0.95860  Biso   1.000  N
  N11      1.0000 0.81262  0.43910  0.54140  Biso   1.000  N
  N12      1.0000 0.81262  0.06090  0.04140  Biso   1.000  N
  N13      1.0000 0.11123  0.64690  0.49280  Biso   1.000  N
  N14      1.0000 0.11123  0.85310  0.99280  Biso   1.000  N
  N15      1.0000 0.88877  0.35310  0.50720  Biso   1.000  N
  N16      1.0000 0.88877  0.14690  0.00720  Biso   1.000  N
  C1       1.0000 0.12436  0.83980  0.49840  Biso   1.000  C
  C2       1.0000 0.12436  0.66020  0.99840  Biso   1.000  C
  C3       1.0000 0.87564  0.16020  0.50160  Biso   1.000  C
  C4       1.0000 0.87564  0.33980  0.00160  Biso   1.000  C
  H1       1.0000 0.08320  0.93670  0.51960  Biso   1.000  H
  H2       1.0000 0.08320  0.56330  0.01960  Biso   1.000  H
  H3       1.0000 0.91680  0.06330  0.48040  Biso   1.000  H
  H4       1.0000 0.91680  0.43670  0.98040  Biso   1.000  H
  C5       1.0000 0.25272  0.06200  0.45320  Biso   1.000  C
  C6       1.0000 0.25272  0.43800  0.95320  Biso   1.000  C
  C7       1.0000 0.74728  0.93800  0.54680  Biso   1.000  C
  C8       1.0000 0.74728  0.56200  0.04680  Biso   1.000  C
  H5       1.0000 0.21650  0.17090  0.49200  Biso   1.000  H
  H6       1.0000 0.21650  0.32910  0.99200  Biso   1.000  H
  H7       1.0000 0.78350  0.82910  0.50800  Biso   1.000  H
  H8       1.0000 0.78350  0.67090  0.00800  Biso   1.000  H
  H9       1.0000 0.26640  0.08410  0.32450  Biso   1.000  H
  H10      1.0000 0.26640  0.41590  0.82450  Biso   1.000  H
  H11      1.0000 0.73360  0.91590  0.67550  Biso   1.000  H
  H12      1.0000 0.73360  0.58410  0.17550  Biso   1.000  H
  C9       1.0000 0.33252  0.06090  0.56850  Biso   1.000  C
  C10      1.0000 0.33252  0.43910  0.06850  Biso   1.000  C
  C11      1.0000 0.66748  0.93910  0.43150  Biso   1.000  C
  C12      1.0000 0.66748  0.56090  0.93150  Biso   1.000  C
  H13      1.0000 0.36920  0.95160  0.53270  Biso   1.000  H
  H14      1.0000 0.36920  0.54840  0.03270  Biso   1.000  H
  H15      1.0000 0.63080  0.04840  0.46730  Biso   1.000  H
  H16      1.0000 0.63080  0.45160  0.96730  Biso   1.000  H
  H17      1.0000 0.31980  0.04590  0.69860  Biso   1.000  H
  H18      1.0000 0.31980  0.45410  0.19860  Biso   1.000  H
  H19      1.0000 0.68020  0.95410  0.30140  Biso   1.000  H
  H20      1.0000 0.68020  0.54590  0.80140  Biso   1.000  H
  N17      1.0000 0.37491  0.25410  0.53640  Biso   1.000  N
  N18      1.0000 0.37491  0.24590  0.03640  Biso   1.000  N
  N19      1.0000 0.62509  0.74590  0.46360  Biso   1.000  N
  N20      1.0000 0.62509  0.75410  0.96360  Biso   1.000  N
  N21      1.0000 0.44506  0.27360  0.60840  Biso   1.000  N
  N22      1.0000 0.44506  0.22640  0.10840  Biso   1.000  N
  N23      1.0000 0.55494  0.72640  0.39160  Biso   1.000  N
  N24      1.0000 0.55494  0.77360  0.89160  Biso   1.000  N
  N25      1.0000 0.51090  0.30940  0.66660  Biso   1.000  N
  N26      1.0000 0.51090  0.19060  0.16660  Biso   1.000  N
  N27      1.0000 0.48910  0.69060  0.33340  Biso   1.000  N
  N28      1.0000 0.48910  0.80940  0.83340  Biso   1.000  N
