data_image0
_cell_length_a       6.94
_cell_length_b       10.351
_cell_length_c       10.857
_cell_angle_alpha    69.72
_cell_angle_beta     81.28
_cell_angle_gamma    75.75

_symmetry_space_group_name_H-M    "P 1"
_symmetry_int_tables_number       1

loop_
  _symmetry_equiv_pos_as_xyz
  'x, y, z'

loop_
  _atom_site_label
  _atom_site_occupancy
  _atom_site_fract_x
  _atom_site_fract_y
  _atom_site_fract_z
  _atom_site_thermal_displace_type
  _atom_site_B_iso_or_equiv
  _atom_site_type_symbol
  Cu1      1.0000 0.65020  0.08976  0.36415  Biso   1.000  Cu
  Cu2      1.0000 0.34980  0.91024  0.63585  Biso   1.000  Cu
  O1       1.0000 0.53570  0.26940  0.38830  Biso   1.000  O
  O2       1.0000 0.46430  0.73060  0.61170  Biso   1.000  O
  O3       1.0000 0.62310  0.23920  0.58670  Biso   1.000  O
  O4       1.0000 0.37690  0.76080  0.41330  Biso   1.000  O
  O5       1.0000 0.97970  0.16620  0.31730  Biso   1.000  O
  O6       1.0000 0.02030  0.83380  0.68270  Biso   1.000  O
  O7       1.0000 0.89670  0.36090  0.15950  Biso   1.000  O
  O8       1.0000 0.10330  0.63910  0.84050  Biso   1.000  O
  O9       1.0000 0.03980  0.35930  0.32050  Biso   1.000  O
  O10      1.0000 0.96020  0.64070  0.67950  Biso   1.000  O
  O11      1.0000 0.68980  0.99890  0.55470  Biso   1.000  O
  O12      1.0000 0.31020  0.00110  0.44530  Biso   1.000  O
  N1       1.0000 0.58000  0.17140  0.17550  Biso   1.000  N
  N2       1.0000 0.42000  0.82860  0.82450  Biso   1.000  N
  N3       1.0000 0.77510  0.92000  0.30970  Biso   1.000  N
  N4       1.0000 0.22490  0.08000  0.69030  Biso   1.000  N
  N5       1.0000 0.97170  0.29930  0.26430  Biso   1.000  N
  N6       1.0000 0.02830  0.70070  0.73570  Biso   1.000  N
  C1       1.0000 0.47750  0.29770  0.11350  Biso   1.000  C
  C2       1.0000 0.52250  0.70230  0.88650  Biso   1.000  C
  C3       1.0000 0.46010  0.34220  0.97690  Biso   1.000  C
  C4       1.0000 0.53990  0.65780  0.02310  Biso   1.000  C
  C5       1.0000 0.55210  0.25740  0.90620  Biso   1.000  C
  C6       1.0000 0.44790  0.74260  0.09380  Biso   1.000  C
  C7       1.0000 0.65870  0.12080  0.97000  Biso   1.000  C
  C8       1.0000 0.34130  0.87920  0.03000  Biso   1.000  C
  C9       1.0000 0.75550  0.01960  0.90610  Biso   1.000  C
  C10      1.0000 0.24450  0.98040  0.09390  Biso   1.000  C
  C11      1.0000 0.84530  0.88870  0.97610  Biso   1.000  C
  C12      1.0000 0.15470  0.11130  0.02390  Biso   1.000  C
  C13      1.0000 0.85220  0.84660  0.11470  Biso   1.000  C
  C14      1.0000 0.14780  0.15340  0.88530  Biso   1.000  C
  C15      1.0000 0.94100  0.71140  0.19450  Biso   1.000  C
  C16      1.0000 0.05900  0.28860  0.80550  Biso   1.000  C
  C17      1.0000 0.94580  0.68540  0.32530  Biso   1.000  C
  C18      1.0000 0.05420  0.31460  0.67470  Biso   1.000  C
  C19      1.0000 0.86570  0.79010  0.38080  Biso   1.000  C
  C20      1.0000 0.13430  0.20990  0.61920  Biso   1.000  C
  C21      1.0000 0.76830  0.94490  0.17960  Biso   1.000  C
  C22      1.0000 0.23170  0.05510  0.82040  Biso   1.000  C
  C23      1.0000 0.66500  0.08380  0.10630  Biso   1.000  C
  C24      1.0000 0.33500  0.91620  0.89370  Biso   1.000  C
  C25      1.0000 0.55880  0.31460  0.47840  Biso   1.000  C
  C26      1.0000 0.44120  0.68540  0.52160  Biso   1.000  C
  C27      1.0000 0.50110  0.47240  0.44510  Biso   1.000  C
  C28      1.0000 0.49890  0.52760  0.55490  Biso   1.000  C
  H1       1.0000 0.70310  0.06570  0.59560  Biso   1.000  H
  H2       1.0000 0.29690  0.93430  0.40440  Biso   1.000  H
  H3       1.0000 0.80460  0.92120  0.57050  Biso   1.000  H
  H4       1.0000 0.19540  0.07880  0.42950  Biso   1.000  H
  H5       1.0000 0.41580  0.35810  0.16090  Biso   1.000  H
  H6       1.0000 0.58420  0.64190  0.83910  Biso   1.000  H
  H7       1.0000 0.38470  0.43060  0.93540  Biso   1.000  H
  H8       1.0000 0.61530  0.56940  0.06460  Biso   1.000  H
  H9       1.0000 0.54550  0.28890  0.81540  Biso   1.000  H
  H10      1.0000 0.45450  0.71110  0.18460  Biso   1.000  H
  H11      1.0000 0.75640  0.04440  0.81510  Biso   1.000  H
  H12      1.0000 0.24360  0.95560  0.18490  Biso   1.000  H
  H13      1.0000 0.90440  0.82410  0.93240  Biso   1.000  H
  H14      1.0000 0.09560  0.17590  0.06760  Biso   1.000  H
  H15      1.0000 0.99610  0.64050  0.15760  Biso   1.000  H
  H16      1.0000 0.00390  0.35950  0.84240  Biso   1.000  H
  H17      1.0000 0.00360  0.59600  0.37810  Biso   1.000  H
  H18      1.0000 0.99640  0.40400  0.62190  Biso   1.000  H
  H19      1.0000 0.87460  0.77020  0.47030  Biso   1.000  H
  H20      1.0000 0.12540  0.22980  0.52970  Biso   1.000  H
  H21      1.0000 0.59310  0.51380  0.37410  Biso   1.000  H
  H22      1.0000 0.40690  0.48620  0.62590  Biso   1.000  H
  H23      1.0000 0.36940  0.50410  0.41220  Biso   1.000  H
  H24      1.0000 0.63060  0.49590  0.58780  Biso   1.000  H
