data_image0
_cell_length_a       8.0762
_cell_length_b       9.9366
_cell_length_c       14.1558
_cell_angle_alpha    90
_cell_angle_beta     90
_cell_angle_gamma    90

_symmetry_space_group_name_H-M    "P 1"
_symmetry_int_tables_number       1

loop_
  _symmetry_equiv_pos_as_xyz
  'x, y, z'

loop_
  _atom_site_label
  _atom_site_occupancy
  _atom_site_fract_x
  _atom_site_fract_y
  _atom_site_fract_z
  _atom_site_thermal_displace_type
  _atom_site_B_iso_or_equiv
  _atom_site_type_symbol
  Cu1      1.0000 0.12533  0.43841  0.13972  Biso   1.000  Cu
  Cu2      1.0000 0.87467  0.56159  0.63972  Biso   1.000  Cu
  Cu3      1.0000 0.62533  0.06159  0.13972  Biso   1.000  Cu
  Cu4      1.0000 0.37467  0.93841  0.63972  Biso   1.000  Cu
  N1       1.0000 0.20760  0.58050  0.22700  Biso   1.000  N
  N2       1.0000 0.79240  0.41950  0.72700  Biso   1.000  N
  N3       1.0000 0.70760  0.91950  0.22700  Biso   1.000  N
  N4       1.0000 0.29240  0.08050  0.72700  Biso   1.000  N
  N5       1.0000 0.06170  0.60350  0.06500  Biso   1.000  N
  N6       1.0000 0.93830  0.39650  0.56500  Biso   1.000  N
  N7       1.0000 0.56170  0.89650  0.06500  Biso   1.000  N
  N8       1.0000 0.43830  0.10350  0.56500  Biso   1.000  N
  C1       1.0000 0.82290  0.28530  0.18170  Biso   1.000  C
  C2       1.0000 0.17710  0.71470  0.68170  Biso   1.000  C
  C3       1.0000 0.32290  0.21470  0.18170  Biso   1.000  C
  C4       1.0000 0.67710  0.78530  0.68170  Biso   1.000  C
  C5       1.0000 0.90650  0.23470  0.08960  Biso   1.000  C
  C6       1.0000 0.09350  0.76530  0.58960  Biso   1.000  C
  C7       1.0000 0.40650  0.26530  0.08960  Biso   1.000  C
  C8       1.0000 0.59350  0.73470  0.58960  Biso   1.000  C
  C9       1.0000 0.27980  0.55870  0.31120  Biso   1.000  C
  C10      1.0000 0.72020  0.44130  0.81120  Biso   1.000  C
  C11      1.0000 0.77980  0.94130  0.31120  Biso   1.000  C
  C12      1.0000 0.22020  0.05870  0.81120  Biso   1.000  C
  H1       1.0000 0.29960  0.47060  0.33010  Biso   1.000  H
  H2       1.0000 0.70040  0.52940  0.83010  Biso   1.000  H
  H3       1.0000 0.79960  0.02940  0.33010  Biso   1.000  H
  H4       1.0000 0.20040  0.97060  0.83010  Biso   1.000  H
  H5       1.0000 0.37920  0.64100  0.42550  Biso   1.000  H
  H6       1.0000 0.62080  0.35900  0.92550  Biso   1.000  H
  H7       1.0000 0.87920  0.85900  0.42550  Biso   1.000  H
  H8       1.0000 0.12080  0.14100  0.92550  Biso   1.000  H
  H9       1.0000 0.31250  0.86070  0.38760  Biso   1.000  H
  H10      1.0000 0.68750  0.13930  0.88760  Biso   1.000  H
  H11      1.0000 0.81250  0.63930  0.38760  Biso   1.000  H
  H12      1.0000 0.18750  0.36070  0.88760  Biso   1.000  H
  H13      1.0000 0.19870  0.90180  0.23800  Biso   1.000  H
  H14      1.0000 0.80130  0.09820  0.73800  Biso   1.000  H
  H15      1.0000 0.69870  0.59820  0.23800  Biso   1.000  H
  H16      1.0000 0.30130  0.40180  0.73800  Biso   1.000  H
  H17      1.0000 0.06770  0.92320  0.09680  Biso   1.000  H
  H18      1.0000 0.93230  0.07680  0.59680  Biso   1.000  H
  H19      1.0000 0.56770  0.57680  0.09680  Biso   1.000  H
  H20      1.0000 0.43230  0.42320  0.59680  Biso   1.000  H
  H21      1.0000 0.94630  0.92060  0.95030  Biso   1.000  H
  H22      1.0000 0.05370  0.07940  0.45030  Biso   1.000  H
  H23      1.0000 0.44630  0.57940  0.95030  Biso   1.000  H
  H24      1.0000 0.55370  0.42060  0.45030  Biso   1.000  H
  H25      1.0000 0.89540  0.71670  0.87550  Biso   1.000  H
  H26      1.0000 0.10460  0.28330  0.37550  Biso   1.000  H
  H27      1.0000 0.39540  0.78330  0.87550  Biso   1.000  H
  H28      1.0000 0.60460  0.21670  0.37550  Biso   1.000  H
  H29      1.0000 0.97550  0.52320  0.95030  Biso   1.000  H
  H30      1.0000 0.02450  0.47680  0.45030  Biso   1.000  H
  H31      1.0000 0.47550  0.97680  0.95030  Biso   1.000  H
  H32      1.0000 0.52450  0.02320  0.45030  Biso   1.000  H
  C13      1.0000 0.32460  0.66040  0.36920  Biso   1.000  C
  C14      1.0000 0.67540  0.33960  0.86920  Biso   1.000  C
  C15      1.0000 0.82460  0.83960  0.36920  Biso   1.000  C
  C16      1.0000 0.17540  0.16040  0.86920  Biso   1.000  C
  C17      1.0000 0.28960  0.79070  0.34630  Biso   1.000  C
  C18      1.0000 0.71040  0.20930  0.84630  Biso   1.000  C
  C19      1.0000 0.78960  0.70930  0.34630  Biso   1.000  C
  C20      1.0000 0.21040  0.29070  0.84630  Biso   1.000  C
  C21      1.0000 0.21770  0.81460  0.25820  Biso   1.000  C
  C22      1.0000 0.78230  0.18540  0.75820  Biso   1.000  C
  C23      1.0000 0.71770  0.68540  0.25820  Biso   1.000  C
  C24      1.0000 0.28230  0.31460  0.75820  Biso   1.000  C
  C25      1.0000 0.17460  0.70990  0.20200  Biso   1.000  C
  C26      1.0000 0.82540  0.29010  0.70200  Biso   1.000  C
  C27      1.0000 0.67460  0.79010  0.20200  Biso   1.000  C
  C28      1.0000 0.32540  0.20990  0.70200  Biso   1.000  C
  C29      1.0000 0.09420  0.71890  0.10940  Biso   1.000  C
  C30      1.0000 0.90580  0.28110  0.60940  Biso   1.000  C
  C31      1.0000 0.59420  0.78110  0.10940  Biso   1.000  C
  C32      1.0000 0.40580  0.21890  0.60940  Biso   1.000  C
  C33      1.0000 0.04850  0.84250  0.06590  Biso   1.000  C
  C34      1.0000 0.95150  0.15750  0.56590  Biso   1.000  C
  C35      1.0000 0.54850  0.65750  0.06590  Biso   1.000  C
  C36      1.0000 0.45150  0.34250  0.56590  Biso   1.000  C
  C37      1.0000 0.97600  0.84080  0.97930  Biso   1.000  C
  C38      1.0000 0.02400  0.15920  0.47930  Biso   1.000  C
  C39      1.0000 0.47600  0.65920  0.97930  Biso   1.000  C
  C40      1.0000 0.52400  0.34080  0.47930  Biso   1.000  C
  C41      1.0000 0.94580  0.72060  0.93460  Biso   1.000  C
  C42      1.0000 0.05420  0.27940  0.43460  Biso   1.000  C
  C43      1.0000 0.44580  0.77940  0.93460  Biso   1.000  C
  C44      1.0000 0.55420  0.22060  0.43460  Biso   1.000  C
  C45      1.0000 0.99300  0.60560  0.98050  Biso   1.000  C
  C46      1.0000 0.00700  0.39440  0.48050  Biso   1.000  C
  C47      1.0000 0.49300  0.89440  0.98050  Biso   1.000  C
  C48      1.0000 0.50700  0.10560  0.48050  Biso   1.000  C
  O1       1.0000 0.86840  0.39540  0.21470  Biso   1.000  O
  O2       1.0000 0.13160  0.60460  0.71470  Biso   1.000  O
  O3       1.0000 0.36840  0.10460  0.21470  Biso   1.000  O
  O4       1.0000 0.63160  0.89540  0.71470  Biso   1.000  O
  O5       1.0000 0.70980  0.21180  0.21690  Biso   1.000  O
  O6       1.0000 0.29020  0.78820  0.71690  Biso   1.000  O
  O7       1.0000 0.20980  0.28820  0.21690  Biso   1.000  O
  O8       1.0000 0.79020  0.71180  0.71690  Biso   1.000  O
  O9       1.0000 0.01540  0.31040  0.05360  Biso   1.000  O
  O10      1.0000 0.98460  0.68960  0.55360  Biso   1.000  O
  O11      1.0000 0.51540  0.18960  0.05360  Biso   1.000  O
  O12      1.0000 0.48460  0.81040  0.55360  Biso   1.000  O
  O13      1.0000 0.86470  0.12310  0.05910  Biso   1.000  O
  O14      1.0000 0.13530  0.87690  0.55910  Biso   1.000  O
  O15      1.0000 0.36470  0.37690  0.05910  Biso   1.000  O
  O16      1.0000 0.63530  0.62310  0.55910  Biso   1.000  O
