data_image0
_cell_length_a       9.481
_cell_length_b       17.062
_cell_length_c       9.678
_cell_angle_alpha    90
_cell_angle_beta     110.255
_cell_angle_gamma    90

_symmetry_space_group_name_H-M    "P 1"
_symmetry_int_tables_number       1

loop_
  _symmetry_equiv_pos_as_xyz
  'x, y, z'

loop_
  _atom_site_label
  _atom_site_occupancy
  _atom_site_fract_x
  _atom_site_fract_y
  _atom_site_fract_z
  _atom_site_thermal_displace_type
  _atom_site_B_iso_or_equiv
  _atom_site_type_symbol
  Cu1      1.0000 0.38097  0.02657  0.39279  Biso   1.000  Cu
  Cu2      1.0000 0.61903  0.52657  0.10721  Biso   1.000  Cu
  Cu3      1.0000 0.61903  0.97343  0.60721  Biso   1.000  Cu
  Cu4      1.0000 0.38097  0.47343  0.89279  Biso   1.000  Cu
  O1       1.0000 0.50390  0.11566  0.37610  Biso   1.000  O
  O2       1.0000 0.49610  0.61566  0.12390  Biso   1.000  O
  O3       1.0000 0.49610  0.88434  0.62390  Biso   1.000  O
  O4       1.0000 0.50390  0.38434  0.87610  Biso   1.000  O
  O5       1.0000 0.70440  0.07165  0.56300  Biso   1.000  O
  O6       1.0000 0.29560  0.57165  0.93700  Biso   1.000  O
  O7       1.0000 0.29560  0.92835  0.43700  Biso   1.000  O
  O8       1.0000 0.70440  0.42835  0.06300  Biso   1.000  O
  O9       1.0000 0.45850  0.96778  0.25990  Biso   1.000  O
  O10      1.0000 0.54150  0.46778  0.24010  Biso   1.000  O
  O11      1.0000 0.54150  0.03222  0.74010  Biso   1.000  O
  O12      1.0000 0.45850  0.53222  0.75990  Biso   1.000  O
  O13      1.0000 0.65950  0.92126  0.44390  Biso   1.000  O
  O14      1.0000 0.34050  0.42126  0.05610  Biso   1.000  O
  O15      1.0000 0.34050  0.07874  0.55610  Biso   1.000  O
  O16      1.0000 0.65950  0.57874  0.94390  Biso   1.000  O
  C1       1.0000 0.63760  0.12030  0.46400  Biso   1.000  C
  C2       1.0000 0.36240  0.62030  0.03600  Biso   1.000  C
  C3       1.0000 0.36240  0.87970  0.53600  Biso   1.000  C
  C4       1.0000 0.63760  0.37970  0.96400  Biso   1.000  C
  C5       1.0000 0.57700  0.92810  0.30970  Biso   1.000  C
  C6       1.0000 0.42300  0.42810  0.19030  Biso   1.000  C
  C7       1.0000 0.42300  0.07190  0.69030  Biso   1.000  C
  C8       1.0000 0.57700  0.57190  0.80970  Biso   1.000  C
  N1       1.0000 0.15770  0.04830  0.23290  Biso   1.000  N
  N2       1.0000 0.84230  0.54830  0.26710  Biso   1.000  N
  N3       1.0000 0.84230  0.95170  0.76710  Biso   1.000  N
  N4       1.0000 0.15770  0.45170  0.73290  Biso   1.000  N
  C9       1.0000 0.12820  0.02060  0.09060  Biso   1.000  C
  C10      1.0000 0.87180  0.52060  0.40940  Biso   1.000  C
  C11      1.0000 0.87180  0.97940  0.90940  Biso   1.000  C
  C12      1.0000 0.12820  0.47940  0.59060  Biso   1.000  C
  H1       1.0000 0.20860  0.01140  0.05540  Biso   1.000  H
  H2       1.0000 0.79140  0.51140  0.44460  Biso   1.000  H
  H3       1.0000 0.79140  0.98860  0.94460  Biso   1.000  H
  H4       1.0000 0.20860  0.48860  0.55540  Biso   1.000  H
  C13      1.0000 0.98090  0.00630  0.99980  Biso   1.000  C
  C14      1.0000 0.01910  0.50630  0.50020  Biso   1.000  C
  C15      1.0000 0.01910  0.99370  0.00020  Biso   1.000  C
  C16      1.0000 0.98090  0.49370  0.49980  Biso   1.000  C
  C17      1.0000 0.13690  0.98020  0.94870  Biso   1.000  C
  C18      1.0000 0.86310  0.48020  0.55130  Biso   1.000  C
  C19      1.0000 0.86310  0.01980  0.05130  Biso   1.000  C
  C20      1.0000 0.13690  0.51980  0.44870  Biso   1.000  C
  H5       1.0000 0.23750  0.99000  0.01080  Biso   1.000  H
  H6       1.0000 0.76250  0.49000  0.48920  Biso   1.000  H
  H7       1.0000 0.76250  0.01000  0.98920  Biso   1.000  H
  H8       1.0000 0.23750  0.51000  0.51080  Biso   1.000  H
  C21      1.0000 0.10730  0.95250  0.80640  Biso   1.000  C
  C22      1.0000 0.89270  0.45250  0.69360  Biso   1.000  C
  C23      1.0000 0.89270  0.04750  0.19360  Biso   1.000  C
  C24      1.0000 0.10730  0.54750  0.30640  Biso   1.000  C
  H9       1.0000 0.18770  0.94330  0.77120  Biso   1.000  H
  H10      1.0000 0.81230  0.44330  0.72880  Biso   1.000  H
  H11      1.0000 0.81230  0.05670  0.22880  Biso   1.000  H
  H12      1.0000 0.18770  0.55670  0.27120  Biso   1.000  H
  C25      1.0000 0.04000  0.06180  0.28440  Biso   1.000  C
  C26      1.0000 0.96000  0.56180  0.21560  Biso   1.000  C
  C27      1.0000 0.96000  0.93820  0.71560  Biso   1.000  C
  C28      1.0000 0.04000  0.43820  0.78440  Biso   1.000  C
  H13      1.0000 0.06020  0.08080  0.38160  Biso   1.000  H
  H14      1.0000 0.93980  0.58080  0.11840  Biso   1.000  H
  H15      1.0000 0.93980  0.91920  0.61840  Biso   1.000  H
  H16      1.0000 0.06020  0.41920  0.88160  Biso   1.000  H
  O17      1.0000 0.17090  0.05880  0.21610  Biso   1.000  O
  O18      1.0000 0.82910  0.55880  0.28390  Biso   1.000  O
  O19      1.0000 0.82910  0.94120  0.78390  Biso   1.000  O
  O20      1.0000 0.17090  0.44120  0.71610  Biso   1.000  O
  N5       1.0000 0.04950  0.99050  0.78310  Biso   1.000  N
  N6       1.0000 0.95050  0.49050  0.71690  Biso   1.000  N
  N7       1.0000 0.95050  0.00950  0.21690  Biso   1.000  N
  N8       1.0000 0.04950  0.50950  0.28310  Biso   1.000  N
  H17      1.0000 0.12830  0.01960  0.82950  Biso   1.000  H
  H18      1.0000 0.87170  0.51960  0.67050  Biso   1.000  H
  H19      1.0000 0.87170  0.98040  0.17050  Biso   1.000  H
  H20      1.0000 0.12830  0.48040  0.32950  Biso   1.000  H
  C29      1.0000 0.05350  0.02260  0.15200  Biso   1.000  C
  C30      1.0000 0.94650  0.52260  0.34800  Biso   1.000  C
  C31      1.0000 0.94650  0.97740  0.84800  Biso   1.000  C
  C32      1.0000 0.05350  0.47740  0.65200  Biso   1.000  C
  C33      1.0000 0.03560  0.95850  0.64030  Biso   1.000  C
  C34      1.0000 0.96440  0.45850  0.85970  Biso   1.000  C
  C35      1.0000 0.96440  0.04150  0.35970  Biso   1.000  C
  C36      1.0000 0.03560  0.54150  0.14030  Biso   1.000  C
  H21      1.0000 0.12240  0.97450  0.61420  Biso   1.000  H
  H22      1.0000 0.87760  0.47450  0.88580  Biso   1.000  H
  H23      1.0000 0.87760  0.02550  0.38580  Biso   1.000  H
  H24      1.0000 0.12240  0.52550  0.11420  Biso   1.000  H
  H25      1.0000 0.94310  0.97810  0.56610  Biso   1.000  H
  H26      1.0000 0.05690  0.47810  0.93390  Biso   1.000  H
  H27      1.0000 0.05690  0.02190  0.43390  Biso   1.000  H
  H28      1.0000 0.94310  0.52190  0.06610  Biso   1.000  H
  H29      1.0000 0.96820  0.09880  0.35600  Biso   1.000  H
  H30      1.0000 0.03180  0.59880  0.14400  Biso   1.000  H
  H31      1.0000 0.03180  0.90120  0.64400  Biso   1.000  H
  H32      1.0000 0.96820  0.40120  0.85600  Biso   1.000  H
  S1       1.0000 0.66000  0.25477  0.31160  Biso   1.000  S
  S2       1.0000 0.34000  0.75477  0.18840  Biso   1.000  S
  S3       1.0000 0.34000  0.74523  0.68840  Biso   1.000  S
  S4       1.0000 0.66000  0.24523  0.81160  Biso   1.000  S
  C37      1.0000 0.72880  0.18970  0.45580  Biso   1.000  C
  C38      1.0000 0.27120  0.68970  0.04420  Biso   1.000  C
  C39      1.0000 0.27120  0.81030  0.54420  Biso   1.000  C
  C40      1.0000 0.72880  0.31030  0.95580  Biso   1.000  C
  C41      1.0000 0.86790  0.21460  0.55140  Biso   1.000  C
  C42      1.0000 0.13210  0.71460  0.94860  Biso   1.000  C
  C43      1.0000 0.13210  0.78540  0.44860  Biso   1.000  C
  C44      1.0000 0.86790  0.28540  0.05140  Biso   1.000  C
  H33      1.0000 0.92270  0.18780  0.63960  Biso   1.000  H
  H34      1.0000 0.07730  0.68780  0.86040  Biso   1.000  H
  H35      1.0000 0.07730  0.81220  0.36040  Biso   1.000  H
  H36      1.0000 0.92270  0.31220  0.13960  Biso   1.000  H
  C45      1.0000 0.91880  0.28230  0.50580  Biso   1.000  C
  C46      1.0000 0.08120  0.78230  0.99420  Biso   1.000  C
  C47      1.0000 0.08120  0.71770  0.49420  Biso   1.000  C
  C48      1.0000 0.91880  0.21770  0.00580  Biso   1.000  C
  H37      1.0000 0.01320  0.30580  0.55740  Biso   1.000  H
  H38      1.0000 0.98680  0.80580  0.94260  Biso   1.000  H
  H39      1.0000 0.98680  0.69420  0.44260  Biso   1.000  H
  H40      1.0000 0.01320  0.19420  0.05740  Biso   1.000  H
  C49      1.0000 0.81840  0.31160  0.37830  Biso   1.000  C
  C50      1.0000 0.18160  0.81160  0.12170  Biso   1.000  C
  C51      1.0000 0.18160  0.68840  0.62170  Biso   1.000  C
  C52      1.0000 0.81840  0.18840  0.87830  Biso   1.000  C
  H41      1.0000 0.83440  0.35810  0.33200  Biso   1.000  H
  H42      1.0000 0.16560  0.85810  0.16800  Biso   1.000  H
  H43      1.0000 0.16560  0.64190  0.66800  Biso   1.000  H
  H44      1.0000 0.83440  0.14190  0.83200  Biso   1.000  H
  S5       1.0000 0.54170  0.89603  0.01720  Biso   1.000  S
  S6       1.0000 0.45830  0.39603  0.48280  Biso   1.000  S
  S7       1.0000 0.45830  0.10397  0.98280  Biso   1.000  S
  S8       1.0000 0.54170  0.60397  0.51720  Biso   1.000  S
  C53      1.0000 0.62900  0.88430  0.20390  Biso   1.000  C
  C54      1.0000 0.37100  0.38430  0.29610  Biso   1.000  C
  C55      1.0000 0.37100  0.11570  0.79610  Biso   1.000  C
  C56      1.0000 0.62900  0.61570  0.70390  Biso   1.000  C
  C57      1.0000 0.73730  0.82790  0.23520  Biso   1.000  C
  C58      1.0000 0.26270  0.32790  0.26480  Biso   1.000  C
  C59      1.0000 0.26270  0.17210  0.76480  Biso   1.000  C
  C60      1.0000 0.73730  0.67210  0.73520  Biso   1.000  C
  H45      1.0000 0.79810  0.81360  0.33250  Biso   1.000  H
  H46      1.0000 0.20190  0.31360  0.16750  Biso   1.000  H
  H47      1.0000 0.20190  0.18640  0.66750  Biso   1.000  H
  H48      1.0000 0.79810  0.68640  0.83250  Biso   1.000  H
  C61      1.0000 0.74940  0.79330  0.10820  Biso   1.000  C
  C62      1.0000 0.25060  0.29330  0.39180  Biso   1.000  C
  C63      1.0000 0.25060  0.20670  0.89180  Biso   1.000  C
  C64      1.0000 0.74940  0.70670  0.60820  Biso   1.000  C
  H49      1.0000 0.81650  0.75170  0.10960  Biso   1.000  H
  H50      1.0000 0.18350  0.25170  0.39040  Biso   1.000  H
  H51      1.0000 0.18350  0.24830  0.89040  Biso   1.000  H
  H52      1.0000 0.81650  0.74830  0.60960  Biso   1.000  H
  C65      1.0000 0.65280  0.82640  0.98220  Biso   1.000  C
  C66      1.0000 0.34720  0.32640  0.51780  Biso   1.000  C
  C67      1.0000 0.34720  0.17360  0.01780  Biso   1.000  C
  C68      1.0000 0.65280  0.67360  0.48220  Biso   1.000  C
  H53      1.0000 0.64850  0.81210  0.88600  Biso   1.000  H
  H54      1.0000 0.35150  0.31210  0.61400  Biso   1.000  H
  H55      1.0000 0.35150  0.18790  0.11400  Biso   1.000  H
  H56      1.0000 0.64850  0.68790  0.38600  Biso   1.000  H
  S9       1.0000 0.89990  0.19820  0.54970  Biso   1.000  S
  S10      1.0000 0.10010  0.69820  0.95030  Biso   1.000  S
  S11      1.0000 0.10010  0.80180  0.45030  Biso   1.000  S
  S12      1.0000 0.89990  0.30180  0.04970  Biso   1.000  S
  C69      1.0000 0.71600  0.18840  0.43700  Biso   1.000  C
  C70      1.0000 0.28400  0.68840  0.06300  Biso   1.000  C
  C71      1.0000 0.28400  0.81160  0.56300  Biso   1.000  C
  C72      1.0000 0.71600  0.31160  0.93700  Biso   1.000  C
  C73      1.0000 0.66800  0.25140  0.34500  Biso   1.000  C
  C74      1.0000 0.33200  0.75140  0.15500  Biso   1.000  C
  C75      1.0000 0.33200  0.74860  0.65500  Biso   1.000  C
  C76      1.0000 0.66800  0.24860  0.84500  Biso   1.000  C
  H57      1.0000 0.56980  0.25620  0.27410  Biso   1.000  H
  H58      1.0000 0.43020  0.75620  0.22590  Biso   1.000  H
  H59      1.0000 0.43020  0.74380  0.72590  Biso   1.000  H
  H60      1.0000 0.56980  0.24380  0.77410  Biso   1.000  H
  C77      1.0000 0.78000  0.30760  0.36600  Biso   1.000  C
  C78      1.0000 0.22000  0.80760  0.13400  Biso   1.000  C
  C79      1.0000 0.22000  0.69240  0.63400  Biso   1.000  C
  C80      1.0000 0.78000  0.19240  0.86600  Biso   1.000  C
  H61      1.0000 0.76470  0.35600  0.31440  Biso   1.000  H
  H62      1.0000 0.23530  0.85600  0.18560  Biso   1.000  H
  H63      1.0000 0.23530  0.64400  0.68560  Biso   1.000  H
  H64      1.0000 0.76470  0.14400  0.81440  Biso   1.000  H
  C81      1.0000 0.91400  0.28620  0.46900  Biso   1.000  C
  C82      1.0000 0.08600  0.78620  0.03100  Biso   1.000  C
  C83      1.0000 0.08600  0.71380  0.53100  Biso   1.000  C
  C84      1.0000 0.91400  0.21380  0.96900  Biso   1.000  C
  H65      1.0000 0.00360  0.31620  0.49370  Biso   1.000  H
  H66      1.0000 0.99640  0.81620  0.00630  Biso   1.000  H
  H67      1.0000 0.99640  0.68380  0.50630  Biso   1.000  H
  H68      1.0000 0.00360  0.18380  0.99370  Biso   1.000  H
  S13      1.0000 0.74600  0.81170  0.25820  Biso   1.000  S
  S14      1.0000 0.25400  0.31170  0.24180  Biso   1.000  S
  S15      1.0000 0.25400  0.18830  0.74180  Biso   1.000  S
  S16      1.0000 0.74600  0.68830  0.75820  Biso   1.000  S
  C85      1.0000 0.60400  0.87900  0.19800  Biso   1.000  C
  C86      1.0000 0.39600  0.37900  0.30200  Biso   1.000  C
  C87      1.0000 0.39600  0.12100  0.80200  Biso   1.000  C
  C88      1.0000 0.60400  0.62100  0.69800  Biso   1.000  C
  C89      1.0000 0.54900  0.88400  0.04720  Biso   1.000  C
  C90      1.0000 0.45100  0.38400  0.45280  Biso   1.000  C
  C91      1.0000 0.45100  0.11600  0.95280  Biso   1.000  C
  C92      1.0000 0.54900  0.61600  0.54720  Biso   1.000  C
  H69      1.0000 0.46920  0.91820  0.99410  Biso   1.000  H
  H70      1.0000 0.53080  0.41820  0.50590  Biso   1.000  H
  H71      1.0000 0.53080  0.08180  0.00590  Biso   1.000  H
  H72      1.0000 0.46920  0.58180  0.49410  Biso   1.000  H
  C93      1.0000 0.62400  0.83500  0.98100  Biso   1.000  C
  C94      1.0000 0.37600  0.33500  0.51900  Biso   1.000  C
  C95      1.0000 0.37600  0.16500  0.01900  Biso   1.000  C
  C96      1.0000 0.62400  0.66500  0.48100  Biso   1.000  C
  H73      1.0000 0.60210  0.83270  0.87760  Biso   1.000  H
  H74      1.0000 0.39790  0.33270  0.62240  Biso   1.000  H
  H75      1.0000 0.39790  0.16730  0.12240  Biso   1.000  H
  H76      1.0000 0.60210  0.66730  0.37760  Biso   1.000  H
  C97      1.0000 0.73100  0.79000  0.08000  Biso   1.000  C
  C98      1.0000 0.26900  0.29000  0.42000  Biso   1.000  C
  C99      1.0000 0.26900  0.21000  0.92000  Biso   1.000  C
  C100     1.0000 0.73100  0.71000  0.58000  Biso   1.000  C
  H77      1.0000 0.79000  0.75180  0.05410  Biso   1.000  H
  H78      1.0000 0.21000  0.25180  0.44590  Biso   1.000  H
  H79      1.0000 0.21000  0.24820  0.94590  Biso   1.000  H
  H80      1.0000 0.79000  0.74820  0.55410  Biso   1.000  H
