data_image0
_cell_length_a       4.7094
_cell_length_b       20.2467
_cell_length_c       11.2824
_cell_angle_alpha    90
_cell_angle_beta     98.827
_cell_angle_gamma    90

_symmetry_space_group_name_H-M    "P 1"
_symmetry_int_tables_number       1

loop_
  _symmetry_equiv_pos_as_xyz
  'x, y, z'

loop_
  _atom_site_label
  _atom_site_occupancy
  _atom_site_fract_x
  _atom_site_fract_y
  _atom_site_fract_z
  _atom_site_thermal_displace_type
  _atom_site_B_iso_or_equiv
  _atom_site_type_symbol
  Cu1      1.0000 0.67580  0.33750  0.55510  Biso   1.000  Cu
  Cu2      1.0000 0.32420  0.83750  0.94490  Biso   1.000  Cu
  Cu3      1.0000 0.32420  0.66250  0.44490  Biso   1.000  Cu
  Cu4      1.0000 0.67580  0.16250  0.05510  Biso   1.000  Cu
  O1       1.0000 0.85100  0.36080  0.71840  Biso   1.000  O
  O2       1.0000 0.14900  0.86080  0.78160  Biso   1.000  O
  O3       1.0000 0.14900  0.63920  0.28160  Biso   1.000  O
  O4       1.0000 0.85100  0.13920  0.21840  Biso   1.000  O
  O5       1.0000 0.12700  0.32140  0.87640  Biso   1.000  O
  O6       1.0000 0.87300  0.82140  0.62360  Biso   1.000  O
  O7       1.0000 0.87300  0.67860  0.12360  Biso   1.000  O
  O8       1.0000 0.12700  0.17860  0.37640  Biso   1.000  O
  O9       1.0000 0.47500  0.19250  0.89200  Biso   1.000  O
  O10      1.0000 0.52500  0.69250  0.60800  Biso   1.000  O
  O11      1.0000 0.52500  0.80750  0.10800  Biso   1.000  O
  O12      1.0000 0.47500  0.30750  0.39200  Biso   1.000  O
  O13      1.0000 0.11600  0.16860  0.98640  Biso   1.000  O
  O14      1.0000 0.88400  0.66860  0.51360  Biso   1.000  O
  O15      1.0000 0.88400  0.83140  0.01360  Biso   1.000  O
  O16      1.0000 0.11600  0.33140  0.48640  Biso   1.000  O
  N1       1.0000 0.73200  0.24690  0.62260  Biso   1.000  N
  N2       1.0000 0.26800  0.74690  0.87740  Biso   1.000  N
  N3       1.0000 0.26800  0.75310  0.37740  Biso   1.000  N
  N4       1.0000 0.73200  0.25310  0.12260  Biso   1.000  N
  N5       1.0000 0.92000  0.13200  0.73200  Biso   1.000  N
  N6       1.0000 0.08000  0.63200  0.76800  Biso   1.000  N
  N7       1.0000 0.08000  0.86800  0.26800  Biso   1.000  N
  N8       1.0000 0.92000  0.36800  0.23200  Biso   1.000  N
  N9       1.0000 0.57400  0.43410  0.51930  Biso   1.000  N
  N10      1.0000 0.42600  0.93410  0.98070  Biso   1.000  N
  N11      1.0000 0.42600  0.56590  0.48070  Biso   1.000  N
  N12      1.0000 0.57400  0.06590  0.01930  Biso   1.000  N
  C1       1.0000 0.91200  0.24700  0.72630  Biso   1.000  C
  C2       1.0000 0.08800  0.74700  0.77370  Biso   1.000  C
  C3       1.0000 0.08800  0.75300  0.27370  Biso   1.000  C
  C4       1.0000 0.91200  0.25300  0.22630  Biso   1.000  C
  C5       1.0000 0.01700  0.18910  0.77950  Biso   1.000  C
  C6       1.0000 0.98300  0.68910  0.72050  Biso   1.000  C
  C7       1.0000 0.98300  0.81090  0.22050  Biso   1.000  C
  C8       1.0000 0.01700  0.31090  0.27950  Biso   1.000  C
  C9       1.0000 0.75700  0.13210  0.62700  Biso   1.000  C
  C10      1.0000 0.24300  0.63210  0.87300  Biso   1.000  C
  C11      1.0000 0.24300  0.86790  0.37300  Biso   1.000  C
  C12      1.0000 0.75700  0.36790  0.12700  Biso   1.000  C
  C13      1.0000 0.64600  0.18890  0.57100  Biso   1.000  C
  C14      1.0000 0.35400  0.68890  0.92900  Biso   1.000  C
  C15      1.0000 0.35400  0.81110  0.42900  Biso   1.000  C
  C16      1.0000 0.64600  0.31110  0.07100  Biso   1.000  C
  C17      1.0000 0.98000  0.31590  0.77830  Biso   1.000  C
  C18      1.0000 0.02000  0.81590  0.72170  Biso   1.000  C
  C19      1.0000 0.02000  0.68410  0.22170  Biso   1.000  C
  C20      1.0000 0.98000  0.18410  0.27830  Biso   1.000  C
  C21      1.0000 0.21600  0.18150  0.89480  Biso   1.000  C
  C22      1.0000 0.78400  0.68150  0.60520  Biso   1.000  C
  C23      1.0000 0.78400  0.81850  0.10520  Biso   1.000  C
  C24      1.0000 0.21600  0.31850  0.39480  Biso   1.000  C
  C25      1.0000 0.48400  0.46900  0.60360  Biso   1.000  C
  C26      1.0000 0.51600  0.96900  0.89640  Biso   1.000  C
  C27      1.0000 0.51600  0.53100  0.39640  Biso   1.000  C
  C28      1.0000 0.48400  0.03100  0.10360  Biso   1.000  C
  C29      1.0000 0.60800  0.46440  0.41800  Biso   1.000  C
  C30      1.0000 0.39200  0.96440  0.08200  Biso   1.000  C
  C31      1.0000 0.39200  0.53560  0.58200  Biso   1.000  C
  C32      1.0000 0.60800  0.03560  0.91800  Biso   1.000  C
  H1       1.0000 0.72000  0.09050  0.58300  Biso   1.000  H
  H2       1.0000 0.28000  0.59050  0.91700  Biso   1.000  H
  H3       1.0000 0.28000  0.90950  0.41700  Biso   1.000  H
  H4       1.0000 0.72000  0.40950  0.08300  Biso   1.000  H
  H5       1.0000 0.52400  0.18870  0.49500  Biso   1.000  H
  H6       1.0000 0.47600  0.68870  0.00500  Biso   1.000  H
  H7       1.0000 0.47600  0.81130  0.50500  Biso   1.000  H
  H8       1.0000 0.52400  0.31130  0.99500  Biso   1.000  H
  H9       1.0000 0.46100  0.44920  0.68000  Biso   1.000  H
  H10      1.0000 0.53900  0.94920  0.82000  Biso   1.000  H
  H11      1.0000 0.53900  0.55080  0.32000  Biso   1.000  H
  H12      1.0000 0.46100  0.05080  0.18000  Biso   1.000  H
  H13      1.0000 0.67700  0.44010  0.35500  Biso   1.000  H
  H14      1.0000 0.32300  0.94010  0.14500  Biso   1.000  H
  H15      1.0000 0.32300  0.55990  0.64500  Biso   1.000  H
  H16      1.0000 0.67700  0.05990  0.85500  Biso   1.000  H
  C33      1.0000 0.01255  0.51967  0.04016  Biso   1.000  C
  C34      1.0000 0.98745  0.01967  0.45984  Biso   1.000  C
  C35      1.0000 0.98745  0.48033  0.95984  Biso   1.000  C
  C36      1.0000 0.01255  0.98033  0.54016  Biso   1.000  C
  H17      1.0000 0.03445  0.55446  0.11110  Biso   1.000  H
  H18      1.0000 0.96555  0.05446  0.38890  Biso   1.000  H
  H19      1.0000 0.96555  0.44554  0.88890  Biso   1.000  H
  H20      1.0000 0.03445  0.94554  0.61110  Biso   1.000  H
