data_image0
_cell_length_a       9.849
_cell_length_b       7.2176
_cell_length_c       29.042
_cell_angle_alpha    90
_cell_angle_beta     90.78
_cell_angle_gamma    90

_symmetry_space_group_name_H-M    "P 1"
_symmetry_int_tables_number       1

loop_
  _symmetry_equiv_pos_as_xyz
  'x, y, z'

loop_
  _atom_site_label
  _atom_site_occupancy
  _atom_site_fract_x
  _atom_site_fract_y
  _atom_site_fract_z
  _atom_site_thermal_displace_type
  _atom_site_B_iso_or_equiv
  _atom_site_type_symbol
  Cu1      1.0000 0.50000  0.69634  0.75000  Biso   1.000  Cu
  Cu2      1.0000 0.50000  0.30366  0.25000  Biso   1.000  Cu
  N1       1.0000 0.89710  0.74550  0.95435  Biso   1.000  N
  N2       1.0000 0.10290  0.74550  0.54565  Biso   1.000  N
  N3       1.0000 0.10290  0.25450  0.04565  Biso   1.000  N
  N4       1.0000 0.89710  0.25450  0.45435  Biso   1.000  N
  N5       1.0000 0.64420  0.70940  0.80028  Biso   1.000  N
  N6       1.0000 0.35580  0.70940  0.69972  Biso   1.000  N
  N7       1.0000 0.35580  0.29060  0.19972  Biso   1.000  N
  N8       1.0000 0.64420  0.29060  0.30028  Biso   1.000  N
  C1       1.0000 0.93660  0.72500  0.90924  Biso   1.000  C
  C2       1.0000 0.06340  0.72500  0.59076  Biso   1.000  C
  C3       1.0000 0.06340  0.27500  0.09076  Biso   1.000  C
  C4       1.0000 0.93660  0.27500  0.40924  Biso   1.000  C
  N9       1.0000 0.12170  0.71610  0.95300  Biso   1.000  N
  N10      1.0000 0.87830  0.71610  0.54700  Biso   1.000  N
  N11      1.0000 0.87830  0.28390  0.04700  Biso   1.000  N
  N12      1.0000 0.12170  0.28390  0.45300  Biso   1.000  N
  H1       1.0000 0.20490  0.70830  0.96220  Biso   1.000  H
  H2       1.0000 0.79510  0.70830  0.53780  Biso   1.000  H
  H3       1.0000 0.79510  0.29170  0.03780  Biso   1.000  H
  H4       1.0000 0.20490  0.29170  0.46220  Biso   1.000  H
  C5       1.0000 0.02080  0.75530  0.03059  Biso   1.000  C
  C6       1.0000 0.97920  0.75530  0.46941  Biso   1.000  C
  C7       1.0000 0.97920  0.24470  0.96941  Biso   1.000  C
  C8       1.0000 0.02080  0.24470  0.53059  Biso   1.000  C
  C9       1.0000 0.07650  0.70850  0.90925  Biso   1.000  C
  C10      1.0000 0.92350  0.70850  0.59075  Biso   1.000  C
  C11      1.0000 0.92350  0.29150  0.09075  Biso   1.000  C
  C12      1.0000 0.07650  0.29150  0.40925  Biso   1.000  C
  C13      1.0000 0.83630  0.72000  0.87164  Biso   1.000  C
  C14      1.0000 0.16370  0.72000  0.62836  Biso   1.000  C
  C15      1.0000 0.16370  0.28000  0.12836  Biso   1.000  C
  C16      1.0000 0.83630  0.28000  0.37164  Biso   1.000  C
  C17      1.0000 0.71810  0.83070  0.87280  Biso   1.000  C
  C18      1.0000 0.28190  0.83070  0.62720  Biso   1.000  C
  C19      1.0000 0.28190  0.16930  0.12720  Biso   1.000  C
  C20      1.0000 0.71810  0.16930  0.37280  Biso   1.000  C
  H5       1.0000 0.70260  0.90900  0.89760  Biso   1.000  H
  H6       1.0000 0.29740  0.90900  0.60240  Biso   1.000  H
  H7       1.0000 0.29740  0.09100  0.10240  Biso   1.000  H
  H8       1.0000 0.70260  0.09100  0.39760  Biso   1.000  H
  S1       1.0000 0.45600  0.20710  0.73440  Biso   1.000  S
  S2       1.0000 0.54400  0.20710  0.76560  Biso   1.000  S
  S3       1.0000 0.54400  0.79290  0.26560  Biso   1.000  S
  S4       1.0000 0.45600  0.79290  0.23440  Biso   1.000  S
  O1       1.0000 0.50000  0.37380  0.75000  Biso   1.000  O
  O2       1.0000 0.50000  0.62620  0.25000  Biso   1.000  O
  C21      1.0000 0.16950  0.70020  0.87007  Biso   1.000  C
  C22      1.0000 0.83050  0.70020  0.62993  Biso   1.000  C
  C23      1.0000 0.83050  0.29980  0.12993  Biso   1.000  C
  C24      1.0000 0.16950  0.29980  0.37007  Biso   1.000  C
  N13      1.0000 0.03640  0.79400  0.12486  Biso   1.000  N
  N14      1.0000 0.96360  0.79400  0.37514  Biso   1.000  N
  N15      1.0000 0.96360  0.20600  0.87514  Biso   1.000  N
  N16      1.0000 0.03640  0.20600  0.62486  Biso   1.000  N
  C25      1.0000 0.90550  0.79160  0.05540  Biso   1.000  C
  C26      1.0000 0.09450  0.79160  0.44460  Biso   1.000  C
  C27      1.0000 0.09450  0.20840  0.94460  Biso   1.000  C
  C28      1.0000 0.90550  0.20840  0.55540  Biso   1.000  C
  H9       1.0000 0.82140  0.80310  0.04070  Biso   1.000  H
  H10      1.0000 0.17860  0.80310  0.45930  Biso   1.000  H
  H11      1.0000 0.17860  0.19690  0.95930  Biso   1.000  H
  H12      1.0000 0.82140  0.19690  0.54070  Biso   1.000  H
  C29      1.0000 0.85490  0.60680  0.83292  Biso   1.000  C
  C30      1.0000 0.14510  0.60680  0.66708  Biso   1.000  C
  C31      1.0000 0.14510  0.39320  0.16708  Biso   1.000  C
  C32      1.0000 0.85490  0.39320  0.33292  Biso   1.000  C
  H13      1.0000 0.93240  0.53410  0.83030  Biso   1.000  H
  H14      1.0000 0.06760  0.53410  0.66970  Biso   1.000  H
  H15      1.0000 0.06760  0.46590  0.16970  Biso   1.000  H
  H16      1.0000 0.93240  0.46590  0.33030  Biso   1.000  H
  C33      1.0000 0.01280  0.73800  0.97957  Biso   1.000  C
  C34      1.0000 0.98720  0.73800  0.52043  Biso   1.000  C
  C35      1.0000 0.98720  0.26200  0.02043  Biso   1.000  C
  C36      1.0000 0.01280  0.26200  0.47957  Biso   1.000  C
  C37      1.0000 0.75670  0.60590  0.79921  Biso   1.000  C
  C38      1.0000 0.24330  0.60590  0.70079  Biso   1.000  C
  C39      1.0000 0.24330  0.39410  0.20079  Biso   1.000  C
  C40      1.0000 0.75670  0.39410  0.29921  Biso   1.000  C
  H17      1.0000 0.76890  0.52850  0.77400  Biso   1.000  H
  H18      1.0000 0.23110  0.52850  0.72600  Biso   1.000  H
  H19      1.0000 0.23110  0.47150  0.22600  Biso   1.000  H
  H20      1.0000 0.76890  0.47150  0.27400  Biso   1.000  H
  C41      1.0000 0.62770  0.82130  0.83740  Biso   1.000  C
  C42      1.0000 0.37230  0.82130  0.66260  Biso   1.000  C
  C43      1.0000 0.37230  0.17870  0.16260  Biso   1.000  C
  C44      1.0000 0.62770  0.17870  0.33740  Biso   1.000  C
  H21      1.0000 0.55050  0.89520  0.83850  Biso   1.000  H
  H22      1.0000 0.44950  0.89520  0.66150  Biso   1.000  H
  H23      1.0000 0.44950  0.10480  0.16150  Biso   1.000  H
  H24      1.0000 0.55050  0.10480  0.33850  Biso   1.000  H
  C45      1.0000 0.91820  0.81050  0.10320  Biso   1.000  C
  C46      1.0000 0.08180  0.81050  0.39680  Biso   1.000  C
  C47      1.0000 0.08180  0.18950  0.89680  Biso   1.000  C
  C48      1.0000 0.91820  0.18950  0.60320  Biso   1.000  C
  H25      1.0000 0.84110  0.83550  0.12030  Biso   1.000  H
  H26      1.0000 0.15890  0.83550  0.37970  Biso   1.000  H
  H27      1.0000 0.15890  0.16450  0.87970  Biso   1.000  H
  H28      1.0000 0.84110  0.16450  0.62030  Biso   1.000  H
  C49      1.0000 0.14420  0.73780  0.05340  Biso   1.000  C
  C50      1.0000 0.85580  0.73780  0.44660  Biso   1.000  C
  C51      1.0000 0.85580  0.26220  0.94660  Biso   1.000  C
  C52      1.0000 0.14420  0.26220  0.55340  Biso   1.000  C
  H29      1.0000 0.22320  0.71360  0.03730  Biso   1.000  H
  H30      1.0000 0.77680  0.71360  0.46270  Biso   1.000  H
  H31      1.0000 0.77680  0.28640  0.96270  Biso   1.000  H
  H32      1.0000 0.22320  0.28640  0.53730  Biso   1.000  H
  C53      1.0000 0.14740  0.75740  0.10100  Biso   1.000  C
  C54      1.0000 0.85260  0.75740  0.39900  Biso   1.000  C
  C55      1.0000 0.85260  0.24260  0.89900  Biso   1.000  C
  C56      1.0000 0.14740  0.24260  0.60100  Biso   1.000  C
  H33      1.0000 0.22990  0.74440  0.11670  Biso   1.000  H
  H34      1.0000 0.77010  0.74440  0.38330  Biso   1.000  H
  H35      1.0000 0.77010  0.25560  0.88330  Biso   1.000  H
  H36      1.0000 0.22990  0.25560  0.61670  Biso   1.000  H
  O3       1.0000 0.50000  0.03210  0.75000  Biso   1.000  O
  O4       1.0000 0.50000  0.96790  0.25000  Biso   1.000  O
  N17      1.0000 0.35640  0.69030  0.79891  Biso   1.000  N
  N18      1.0000 0.64360  0.69030  0.70109  Biso   1.000  N
  N19      1.0000 0.64360  0.30970  0.20109  Biso   1.000  N
  N20      1.0000 0.35640  0.30970  0.29891  Biso   1.000  N
  C57      1.0000 0.24680  0.80370  0.79660  Biso   1.000  C
  C58      1.0000 0.75320  0.80370  0.70340  Biso   1.000  C
  C59      1.0000 0.75320  0.19630  0.20340  Biso   1.000  C
  C60      1.0000 0.24680  0.19630  0.29660  Biso   1.000  C
  H37      1.0000 0.23520  0.88080  0.77120  Biso   1.000  H
  H38      1.0000 0.76480  0.88080  0.72880  Biso   1.000  H
  H39      1.0000 0.76480  0.11920  0.22880  Biso   1.000  H
  H40      1.0000 0.23520  0.11920  0.27120  Biso   1.000  H
  C61      1.0000 0.15250  0.80710  0.83105  Biso   1.000  C
  C62      1.0000 0.84750  0.80710  0.66895  Biso   1.000  C
  C63      1.0000 0.84750  0.19290  0.16895  Biso   1.000  C
  C64      1.0000 0.15250  0.19290  0.33105  Biso   1.000  C
  H41      1.0000 0.07630  0.88230  0.82800  Biso   1.000  H
  H42      1.0000 0.92370  0.88230  0.67200  Biso   1.000  H
  H43      1.0000 0.92370  0.11770  0.17200  Biso   1.000  H
  H44      1.0000 0.07630  0.11770  0.32800  Biso   1.000  H
  C65      1.0000 0.28130  0.57910  0.87187  Biso   1.000  C
  C66      1.0000 0.71870  0.57910  0.62813  Biso   1.000  C
  C67      1.0000 0.71870  0.42090  0.12813  Biso   1.000  C
  C68      1.0000 0.28130  0.42090  0.37187  Biso   1.000  C
  H45      1.0000 0.29500  0.50210  0.89720  Biso   1.000  H
  H46      1.0000 0.70500  0.50210  0.60280  Biso   1.000  H
  H47      1.0000 0.70500  0.49790  0.10280  Biso   1.000  H
  H48      1.0000 0.29500  0.49790  0.39720  Biso   1.000  H
  C69      1.0000 0.37000  0.57600  0.83580  Biso   1.000  C
  C70      1.0000 0.63000  0.57600  0.66420  Biso   1.000  C
  C71      1.0000 0.63000  0.42400  0.16420  Biso   1.000  C
  C72      1.0000 0.37000  0.42400  0.33580  Biso   1.000  C
  H49      1.0000 0.44200  0.49260  0.83670  Biso   1.000  H
  H50      1.0000 0.55800  0.49260  0.66330  Biso   1.000  H
  H51      1.0000 0.55800  0.50740  0.16330  Biso   1.000  H
  H52      1.0000 0.44200  0.50740  0.33670  Biso   1.000  H
  O5       1.0000 0.39300  0.21700  0.68970  Biso   1.000  O
  O6       1.0000 0.60700  0.21700  0.81030  Biso   1.000  O
  O7       1.0000 0.60700  0.78300  0.31030  Biso   1.000  O
  O8       1.0000 0.39300  0.78300  0.18970  Biso   1.000  O
  O9       1.0000 0.34200  0.19500  0.76600  Biso   1.000  O
  O10      1.0000 0.65800  0.19500  0.73400  Biso   1.000  O
  O11      1.0000 0.65800  0.80500  0.23400  Biso   1.000  O
  O12      1.0000 0.34200  0.80500  0.26600  Biso   1.000  O
